MODEL 1
REMARK VINA RESULT:      -8.0      0.000      0.000
REMARK  Name = 
REMARK  7 active torsions:
REMARK  status: ('A' for Active; 'I' for Inactive)
REMARK    1  A    between atoms: C_2  and  O_3
REMARK    2  A    between atoms: C_2  and  C_4
REMARK    3  A    between atoms: C_8  and  S_9
REMARK    4  A    between atoms: S_9  and  N_12
REMARK    5  A    between atoms: N_12  and  C_13
REMARK    6  A    between atoms: C_16  and  S_17
REMARK    7  A    between atoms: S_17  and  N_20
REMARK                            x       y       z     vdW  Elec       q    Type
REMARK                         _______ _______ _______ _____ _____    ______ ____
ROOT
ATOM      1  N   UNL     1       2.771   5.711  20.145  0.00  0.00    +0.000 N 
ATOM      2  H   UNL     1       2.473   5.259  21.008  0.00  0.00    +0.000 HD
ENDROOT
BRANCH   1   3
ATOM      3  C   UNL     1       2.274   7.027  19.888  0.00  0.00    +0.000 A 
ATOM      4  C   UNL     1       1.490   7.669  20.853  0.00  0.00    +0.000 A 
ATOM      5  C   UNL     1       0.927   8.923  20.575  0.00  0.00    +0.000 A 
ATOM      6  C   UNL     1       1.148   9.529  19.332  0.00  0.00    +0.000 A 
ATOM      7  C   UNL     1       1.909   8.873  18.361  0.00  0.00    +0.000 A 
ATOM      8  C   UNL     1       2.478   7.626  18.649  0.00  0.00    +0.000 A 
BRANCH   6   9
ATOM      9  S   UNL     1       0.385  11.100  18.949  0.00  0.00    +0.000 S 
ATOM     10  O   UNL     1       1.431  11.945  18.403  0.00  0.00    +0.000 OA
ATOM     11  O   UNL     1      -0.826  10.839  18.202  0.00  0.00    +0.000 OA
BRANCH   9  12
ATOM     12  N   UNL     1      -0.068  11.748  20.457  0.00  0.00    +0.000 NA
ATOM     13  C   UNL     1      -1.517  11.835  20.790  0.00  0.00    +0.000 C 
ATOM     14  C   UNL     1      -2.188  13.079  20.195  0.00  0.00    +0.000 C 
ATOM     15  O   UNL     1      -1.501  14.291  20.527  0.00  0.00    +0.000 OA
ATOM     16  C   UNL     1      -0.105  14.253  20.203  0.00  0.00    +0.000 C 
ATOM     17  C   UNL     1       0.597  13.042  20.828  0.00  0.00    +0.000 C 
ENDBRANCH   9  12
ENDBRANCH   6   9
ENDBRANCH   1   3
BRANCH   1  18
ATOM     18  S   UNL     1       2.709   4.595  18.867  0.00  0.00    +0.000 S 
ATOM     19  O   UNL     1       1.777   5.066  17.866  0.00  0.00    +0.000 OA
ATOM     20  O   UNL     1       2.554   3.290  19.480  0.00  0.00    +0.000 OA
BRANCH  18  25
ATOM     21  C   UNL     1       6.661   5.335  18.358  0.00  0.00    +0.000 A 
ATOM     22  C   UNL     1       6.920   4.742  17.114  0.00  0.00    +0.000 A 
ATOM     23  C   UNL     1       5.887   4.132  16.397  0.00  0.00    +0.000 A 
ATOM     24  C   UNL     1       4.596   4.091  16.929  0.00  0.00    +0.000 A 
ATOM     25  C   UNL     1       4.352   4.645  18.190  0.00  0.00    +0.000 A 
ATOM     26  C   UNL     1       5.374   5.275  18.906  0.00  0.00    +0.000 A 
BRANCH  21  28
ATOM     27  O   UNL     1       8.330   6.978  18.742  0.00  0.00    +0.000 OA
ATOM     28  C   UNL     1       7.727   6.001  19.145  0.00  0.00    +0.000 C 
BRANCH  28  29
ATOM     29  O   UNL     1       7.985   5.401  20.326  0.00  0.00    +0.000 OA
ATOM     30  H   UNL     1       8.288   5.994  21.038  0.00  0.00    +0.000 HD
ENDBRANCH  28  29
ENDBRANCH  21  28
ENDBRANCH  18  25
ENDBRANCH   1  18
TORSDOF 7
ENDMDL
MODEL 2
REMARK VINA RESULT:      -8.0      0.652      1.177
REMARK  Name = 
REMARK  7 active torsions:
REMARK  status: ('A' for Active; 'I' for Inactive)
REMARK    1  A    between atoms: C_2  and  O_3
REMARK    2  A    between atoms: C_2  and  C_4
REMARK    3  A    between atoms: C_8  and  S_9
REMARK    4  A    between atoms: S_9  and  N_12
REMARK    5  A    between atoms: N_12  and  C_13
REMARK    6  A    between atoms: C_16  and  S_17
REMARK    7  A    between atoms: S_17  and  N_20
REMARK                            x       y       z     vdW  Elec       q    Type
REMARK                         _______ _______ _______ _____ _____    ______ ____
ROOT
ATOM      1  N   UNL     1       3.085   6.043  19.844  0.00  0.00    +0.000 N 
ATOM      2  H   UNL     1       3.036   5.646  20.780  0.00  0.00    +0.000 HD
ENDROOT
BRANCH   1   3
ATOM      3  C   UNL     1       2.355   7.249  19.604  0.00  0.00    +0.000 A 
ATOM      4  C   UNL     1       2.499   7.912  18.381  0.00  0.00    +0.000 A 
ATOM      5  C   UNL     1       1.853   9.139  18.170  0.00  0.00    +0.000 A 
ATOM      6  C   UNL     1       1.071   9.701  19.186  0.00  0.00    +0.000 A 
ATOM      7  C   UNL     1       0.950   9.050  20.417  0.00  0.00    +0.000 A 
ATOM      8  C   UNL     1       1.587   7.819  20.616  0.00  0.00    +0.000 A 
BRANCH   6   9
ATOM      9  S   UNL     1       0.294  11.294  18.946  0.00  0.00    +0.000 S 
ATOM     10  O   UNL     1       1.324  12.185  18.443  0.00  0.00    +0.000 OA
ATOM     11  O   UNL     1      -0.934  11.086  18.210  0.00  0.00    +0.000 OA
BRANCH   9  12
ATOM     12  N   UNL     1      -0.124  11.820  20.510  0.00  0.00    +0.000 NA
ATOM     13  C   UNL     1      -1.561  11.821  20.903  0.00  0.00    +0.000 C 
ATOM     14  C   UNL     1      -2.306  13.071  20.418  0.00  0.00    +0.000 C 
ATOM     15  O   UNL     1      -1.657  14.288  20.807  0.00  0.00    +0.000 OA
ATOM     16  C   UNL     1      -0.275  14.333  20.429  0.00  0.00    +0.000 C 
ATOM     17  C   UNL     1       0.502  13.114  20.944  0.00  0.00    +0.000 C 
ENDBRANCH   9  12
ENDBRANCH   6   9
ENDBRANCH   1   3
BRANCH   1  18
ATOM     18  S   UNL     1       2.940   4.806  18.690  0.00  0.00    +0.000 S 
ATOM     19  O   UNL     1       1.849   5.115  17.793  0.00  0.00    +0.000 OA
ATOM     20  O   UNL     1       2.970   3.560  19.432  0.00  0.00    +0.000 OA
BRANCH  18  25
ATOM     21  C   UNL     1       6.609   5.947  17.402  0.00  0.00    +0.000 A 
ATOM     22  C   UNL     1       6.853   5.047  16.355  0.00  0.00    +0.000 A 
ATOM     23  C   UNL     1       5.890   4.096  16.007  0.00  0.00    +0.000 A 
ATOM     24  C   UNL     1       4.688   4.024  16.716  0.00  0.00    +0.000 A 
ATOM     25  C   UNL     1       4.468   4.895  17.788  0.00  0.00    +0.000 A 
ATOM     26  C   UNL     1       5.417   5.862  18.132  0.00  0.00    +0.000 A 
BRANCH  21  28
ATOM     27  O   UNL     1       7.821   7.968  17.126  0.00  0.00    +0.000 OA
ATOM     28  C   UNL     1       7.600   6.977  17.797  0.00  0.00    +0.000 C 
BRANCH  28  29
ATOM     29  O   UNL     1       8.252   6.692  18.943  0.00  0.00    +0.000 OA
ATOM     30  H   UNL     1       8.904   5.970  18.884  0.00  0.00    +0.000 HD
ENDBRANCH  28  29
ENDBRANCH  21  28
ENDBRANCH  18  25
ENDBRANCH   1  18
TORSDOF 7
ENDMDL
MODEL 3
REMARK VINA RESULT:      -8.0      1.534      2.196
REMARK  Name = 
REMARK  7 active torsions:
REMARK  status: ('A' for Active; 'I' for Inactive)
REMARK    1  A    between atoms: C_2  and  O_3
REMARK    2  A    between atoms: C_2  and  C_4
REMARK    3  A    between atoms: C_8  and  S_9
REMARK    4  A    between atoms: S_9  and  N_12
REMARK    5  A    between atoms: N_12  and  C_13
REMARK    6  A    between atoms: C_16  and  S_17
REMARK    7  A    between atoms: S_17  and  N_20
REMARK                            x       y       z     vdW  Elec       q    Type
REMARK                         _______ _______ _______ _____ _____    ______ ____
ROOT
ATOM      1  N   UNL     1       3.022   5.411  20.156  0.00  0.00    +0.000 N 
ATOM      2  H   UNL     1       2.660   4.914  20.968  0.00  0.00    +0.000 HD
ENDROOT
BRANCH   1   3
ATOM      3  C   UNL     1       2.405   6.657  19.822  0.00  0.00    +0.000 A 
ATOM      4  C   UNL     1       2.650   7.236  18.573  0.00  0.00    +0.000 A 
ATOM      5  C   UNL     1       2.118   8.498  18.270  0.00  0.00    +0.000 A 
ATOM      6  C   UNL     1       1.348   9.178  19.221  0.00  0.00    +0.000 A 
ATOM      7  C   UNL     1       1.127   8.610  20.478  0.00  0.00    +0.000 A 
ATOM      8  C   UNL     1       1.651   7.344  20.769  0.00  0.00    +0.000 A 
BRANCH   6   9
ATOM      9  S   UNL     1       0.718  10.814  18.864  0.00  0.00    +0.000 S 
ATOM     10  O   UNL     1       1.825  11.572  18.313  0.00  0.00    +0.000 OA
ATOM     11  O   UNL     1      -0.520  10.664  18.131  0.00  0.00    +0.000 OA
BRANCH   9  12
ATOM     12  N   UNL     1       0.341  11.481  20.384  0.00  0.00    +0.000 NA
ATOM     13  C   UNL     1      -1.092  11.669  20.746  0.00  0.00    +0.000 C 
ATOM     14  C   UNL     1      -1.684  12.961  20.170  0.00  0.00    +0.000 C 
ATOM     15  O   UNL     1      -0.906  14.119  20.496  0.00  0.00    +0.000 OA
ATOM     16  C   UNL     1       0.477  13.985  20.146  0.00  0.00    +0.000 C 
ATOM     17  C   UNL     1       1.103  12.722  20.750  0.00  0.00    +0.000 C 
ENDBRANCH   9  12
ENDBRANCH   6   9
ENDBRANCH   1   3
BRANCH   1  18
ATOM     18  S   UNL     1       3.290   4.314  18.889  0.00  0.00    +0.000 S 
ATOM     19  O   UNL     1       2.351   4.577  17.822  0.00  0.00    +0.000 OA
ATOM     20  O   UNL     1       3.377   3.003  19.504  0.00  0.00    +0.000 OA
BRANCH  18  25
ATOM     21  C   UNL     1       6.568   4.796  16.555  0.00  0.00    +0.000 A 
ATOM     22  C   UNL     1       7.502   5.330  17.454  0.00  0.00    +0.000 A 
ATOM     23  C   UNL     1       7.155   5.524  18.795  0.00  0.00    +0.000 A 
ATOM     24  C   UNL     1       5.869   5.207  19.238  0.00  0.00    +0.000 A 
ATOM     25  C   UNL     1       4.927   4.718  18.327  0.00  0.00    +0.000 A 
ATOM     26  C   UNL     1       5.270   4.502  16.989  0.00  0.00    +0.000 A 
BRANCH  21  28
ATOM     27  O   UNL     1       7.651   5.290  14.502  0.00  0.00    +0.000 OA
ATOM     28  C   UNL     1       6.898   4.567  15.128  0.00  0.00    +0.000 C 
BRANCH  28  29
ATOM     29  O   UNL     1       6.260   3.509  14.585  0.00  0.00    +0.000 OA
ATOM     30  H   UNL     1       6.554   3.258  13.691  0.00  0.00    +0.000 HD
ENDBRANCH  28  29
ENDBRANCH  21  28
ENDBRANCH  18  25
ENDBRANCH   1  18
TORSDOF 7
ENDMDL
MODEL 4
REMARK VINA RESULT:      -8.0      1.335      1.896
REMARK  Name = 
REMARK  7 active torsions:
REMARK  status: ('A' for Active; 'I' for Inactive)
REMARK    1  A    between atoms: C_2  and  O_3
REMARK    2  A    between atoms: C_2  and  C_4
REMARK    3  A    between atoms: C_8  and  S_9
REMARK    4  A    between atoms: S_9  and  N_12
REMARK    5  A    between atoms: N_12  and  C_13
REMARK    6  A    between atoms: C_16  and  S_17
REMARK    7  A    between atoms: S_17  and  N_20
REMARK                            x       y       z     vdW  Elec       q    Type
REMARK                         _______ _______ _______ _____ _____    ______ ____
ROOT
ATOM      1  N   UNL     1       3.160   6.064  19.867  0.00  0.00    +0.000 N 
ATOM      2  H   UNL     1       3.284   5.616  20.773  0.00  0.00    +0.000 HD
ENDROOT
BRANCH   1   3
ATOM      3  C   UNL     1       2.272   7.184  19.806  0.00  0.00    +0.000 A 
ATOM      4  C   UNL     1       2.288   8.017  18.683  0.00  0.00    +0.000 A 
ATOM      5  C   UNL     1       1.482   9.165  18.651  0.00  0.00    +0.000 A 
ATOM      6  C   UNL     1       0.667   9.476  19.746  0.00  0.00    +0.000 A 
ATOM      7  C   UNL     1       0.672   8.656  20.877  0.00  0.00    +0.000 A 
ATOM      8  C   UNL     1       1.470   7.505  20.897  0.00  0.00    +0.000 A 
BRANCH   6   9
ATOM      9  S   UNL     1      -0.318  10.969  19.738  0.00  0.00    +0.000 S 
ATOM     10  O   UNL     1      -1.386  10.755  18.778  0.00  0.00    +0.000 OA
ATOM     11  O   UNL     1      -0.611  11.319  21.111  0.00  0.00    +0.000 OA
BRANCH   9  12
ATOM     12  N   UNL     1       0.710  12.170  19.106  0.00  0.00    +0.000 NA
ATOM     13  C   UNL     1       1.786  12.718  19.977  0.00  0.00    +0.000 C 
ATOM     14  C   UNL     1       1.283  13.819  20.919  0.00  0.00    +0.000 C 
ATOM     15  O   UNL     1       0.588  14.864  20.227  0.00  0.00    +0.000 OA
ATOM     16  C   UNL     1      -0.470  14.377  19.391  0.00  0.00    +0.000 C 
ATOM     17  C   UNL     1       0.021  13.306  18.408  0.00  0.00    +0.000 C 
ENDBRANCH   9  12
ENDBRANCH   6   9
ENDBRANCH   1   3
BRANCH   1  18
ATOM     18  S   UNL     1       3.001   4.880  18.662  0.00  0.00    +0.000 S 
ATOM     19  O   UNL     1       1.870   5.203  17.821  0.00  0.00    +0.000 OA
ATOM     20  O   UNL     1       3.088   3.602  19.341  0.00  0.00    +0.000 OA
BRANCH  18  25
ATOM     21  C   UNL     1       6.616   6.137  17.329  0.00  0.00    +0.000 A 
ATOM     22  C   UNL     1       6.817   5.330  16.201  0.00  0.00    +0.000 A 
ATOM     23  C   UNL     1       5.840   4.410  15.811  0.00  0.00    +0.000 A 
ATOM     24  C   UNL     1       4.668   4.275  16.559  0.00  0.00    +0.000 A 
ATOM     25  C   UNL     1       4.492   5.050  17.710  0.00  0.00    +0.000 A 
ATOM     26  C   UNL     1       5.454   5.987  18.097  0.00  0.00    +0.000 A 
BRANCH  21  28
ATOM     27  O   UNL     1       7.875   8.139  17.136  0.00  0.00    +0.000 OA
ATOM     28  C   UNL     1       7.623   7.131  17.771  0.00  0.00    +0.000 C 
BRANCH  28  29
ATOM     29  O   UNL     1       8.252   6.796  18.916  0.00  0.00    +0.000 OA
ATOM     30  H   UNL     1       8.973   6.147  18.822  0.00  0.00    +0.000 HD
ENDBRANCH  28  29
ENDBRANCH  21  28
ENDBRANCH  18  25
ENDBRANCH   1  18
TORSDOF 7
ENDMDL
MODEL 5
REMARK VINA RESULT:      -8.0      2.416      3.152
REMARK  Name = 
REMARK  7 active torsions:
REMARK  status: ('A' for Active; 'I' for Inactive)
REMARK    1  A    between atoms: C_2  and  O_3
REMARK    2  A    between atoms: C_2  and  C_4
REMARK    3  A    between atoms: C_8  and  S_9
REMARK    4  A    between atoms: S_9  and  N_12
REMARK    5  A    between atoms: N_12  and  C_13
REMARK    6  A    between atoms: C_16  and  S_17
REMARK    7  A    between atoms: S_17  and  N_20
REMARK                            x       y       z     vdW  Elec       q    Type
REMARK                         _______ _______ _______ _____ _____    ______ ____
ROOT
ATOM      1  N   UNL     1       2.533   4.106  18.259  0.00  0.00    +0.000 N 
ATOM      2  H   UNL     1       2.451   4.185  17.247  0.00  0.00    +0.000 HD
ENDROOT
BRANCH   1   3
ATOM      3  C   UNL     1       2.240   5.272  19.033  0.00  0.00    +0.000 A 
ATOM      4  C   UNL     1       1.549   5.143  20.242  0.00  0.00    +0.000 A 
ATOM      5  C   UNL     1       1.182   6.287  20.965  0.00  0.00    +0.000 A 
ATOM      6  C   UNL     1       1.505   7.558  20.472  0.00  0.00    +0.000 A 
ATOM      7  C   UNL     1       2.172   7.686  19.251  0.00  0.00    +0.000 A 
ATOM      8  C   UNL     1       2.546   6.538  18.541  0.00  0.00    +0.000 A 
BRANCH   6   9
ATOM      9  S   UNL     1       0.988   9.023  21.358  0.00  0.00    +0.000 S 
ATOM     10  O   UNL     1      -0.405   8.822  21.712  0.00  0.00    +0.000 OA
ATOM     11  O   UNL     1       1.981   9.305  22.373  0.00  0.00    +0.000 OA
BRANCH   9  12
ATOM     12  N   UNL     1       1.053  10.277  20.209  0.00  0.00    +0.000 NA
ATOM     13  C   UNL     1       1.182  11.681  20.691  0.00  0.00    +0.000 C 
ATOM     14  C   UNL     1      -0.163  12.293  21.100  0.00  0.00    +0.000 C 
ATOM     15  O   UNL     1      -1.157  12.182  20.074  0.00  0.00    +0.000 OA
ATOM     16  C   UNL     1      -1.324  10.841  19.596  0.00  0.00    +0.000 C 
ATOM     17  C   UNL     1       0.003  10.225  19.137  0.00  0.00    +0.000 C 
ENDBRANCH   9  12
ENDBRANCH   6   9
ENDBRANCH   1   3
BRANCH   1  18
ATOM     18  S   UNL     1       3.944   3.248  18.652  0.00  0.00    +0.000 S 
ATOM     19  O   UNL     1       3.949   1.987  17.945  0.00  0.00    +0.000 OA
ATOM     20  O   UNL     1       4.054   3.297  20.097  0.00  0.00    +0.000 OA
BRANCH  18  25
ATOM     21  C   UNL     1       6.648   4.961  16.166  0.00  0.00    +0.000 A 
ATOM     22  C   UNL     1       7.308   5.861  17.013  0.00  0.00    +0.000 A 
ATOM     23  C   UNL     1       6.959   5.939  18.365  0.00  0.00    +0.000 A 
ATOM     24  C   UNL     1       5.934   5.136  18.870  0.00  0.00    +0.000 A 
ATOM     25  C   UNL     1       5.247   4.272  18.010  0.00  0.00    +0.000 A 
ATOM     26  C   UNL     1       5.602   4.172  16.662  0.00  0.00    +0.000 A 
BRANCH  21  28
ATOM     27  O   UNL     1       7.860   5.515  14.202  0.00  0.00    +0.000 OA
ATOM     28  C   UNL     1       6.994   4.841  14.729  0.00  0.00    +0.000 C 
BRANCH  28  29
ATOM     29  O   UNL     1       6.238   3.945  14.060  0.00  0.00    +0.000 OA
ATOM     30  H   UNL     1       6.416   3.010  14.269  0.00  0.00    +0.000 HD
ENDBRANCH  28  29
ENDBRANCH  21  28
ENDBRANCH  18  25
ENDBRANCH   1  18
TORSDOF 7
ENDMDL
MODEL 6
REMARK VINA RESULT:      -7.9      2.700      9.636
REMARK  Name = 
REMARK  7 active torsions:
REMARK  status: ('A' for Active; 'I' for Inactive)
REMARK    1  A    between atoms: C_2  and  O_3
REMARK    2  A    between atoms: C_2  and  C_4
REMARK    3  A    between atoms: C_8  and  S_9
REMARK    4  A    between atoms: S_9  and  N_12
REMARK    5  A    between atoms: N_12  and  C_13
REMARK    6  A    between atoms: C_16  and  S_17
REMARK    7  A    between atoms: S_17  and  N_20
REMARK                            x       y       z     vdW  Elec       q    Type
REMARK                         _______ _______ _______ _____ _____    ______ ____
ROOT
ATOM      1  N   UNL     1       0.795  11.150  19.338  0.00  0.00    +0.000 N 
ATOM      2  H   UNL     1       1.344  11.925  18.970  0.00  0.00    +0.000 HD
ENDROOT
BRANCH   1   3
ATOM      3  C   UNL     1       1.301   9.829  19.126  0.00  0.00    +0.000 A 
ATOM      4  C   UNL     1       1.310   8.916  20.185  0.00  0.00    +0.000 A 
ATOM      5  C   UNL     1       1.883   7.647  20.010  0.00  0.00    +0.000 A 
ATOM      6  C   UNL     1       2.450   7.301  18.777  0.00  0.00    +0.000 A 
ATOM      7  C   UNL     1       2.464   8.225  17.730  0.00  0.00    +0.000 A 
ATOM      8  C   UNL     1       1.879   9.485  17.907  0.00  0.00    +0.000 A 
BRANCH   6   9
ATOM      9  S   UNL     1       3.236   5.708  18.566  0.00  0.00    +0.000 S 
ATOM     10  O   UNL     1       3.937   5.759  17.296  0.00  0.00    +0.000 OA
ATOM     11  O   UNL     1       3.937   5.390  19.791  0.00  0.00    +0.000 OA
BRANCH   9  12
ATOM     12  N   UNL     1       1.952   4.603  18.402  0.00  0.00    +0.000 NA
ATOM     13  C   UNL     1       1.355   4.015  19.635  0.00  0.00    +0.000 C 
ATOM     14  C   UNL     1       2.153   2.819  20.167  0.00  0.00    +0.000 C 
ATOM     15  O   UNL     1       2.382   1.818  19.167  0.00  0.00    +0.000 OA
ATOM     16  C   UNL     1       2.974   2.342  17.972  0.00  0.00    +0.000 C 
ATOM     17  C   UNL     1       2.165   3.510  17.395  0.00  0.00    +0.000 C 
ENDBRANCH   9  12
ENDBRANCH   6   9
ENDBRANCH   1   3
BRANCH   1  18
ATOM     18  S   UNL     1      -0.851  11.411  19.012  0.00  0.00    +0.000 S 
ATOM     19  O   UNL     1      -1.434  10.195  18.493  0.00  0.00    +0.000 OA
ATOM     20  O   UNL     1      -0.920  12.653  18.266  0.00  0.00    +0.000 OA
BRANCH  18  25
ATOM     21  C   UNL     1      -3.334  12.633  21.972  0.00  0.00    +0.000 A 
ATOM     22  C   UNL     1      -2.620  12.285  23.127  0.00  0.00    +0.000 A 
ATOM     23  C   UNL     1      -1.355  11.698  23.021  0.00  0.00    +0.000 A 
ATOM     24  C   UNL     1      -0.809  11.436  21.763  0.00  0.00    +0.000 A 
ATOM     25  C   UNL     1      -1.545  11.743  20.614  0.00  0.00    +0.000 A 
ATOM     26  C   UNL     1      -2.802  12.348  20.709  0.00  0.00    +0.000 A 
BRANCH  21  28
ATOM     27  O   UNL     1      -4.855  14.448  21.815  0.00  0.00    +0.000 OA
ATOM     28  C   UNL     1      -4.674  13.265  22.041  0.00  0.00    +0.000 C 
BRANCH  28  29
ATOM     29  O   UNL     1      -5.657  12.418  22.409  0.00  0.00    +0.000 OA
ATOM     30  H   UNL     1      -6.474  12.472  21.881  0.00  0.00    +0.000 HD
ENDBRANCH  28  29
ENDBRANCH  21  28
ENDBRANCH  18  25
ENDBRANCH   1  18
TORSDOF 7
ENDMDL
MODEL 7
REMARK VINA RESULT:      -7.9      1.925      2.479
REMARK  Name = 
REMARK  7 active torsions:
REMARK  status: ('A' for Active; 'I' for Inactive)
REMARK    1  A    between atoms: C_2  and  O_3
REMARK    2  A    between atoms: C_2  and  C_4
REMARK    3  A    between atoms: C_8  and  S_9
REMARK    4  A    between atoms: S_9  and  N_12
REMARK    5  A    between atoms: N_12  and  C_13
REMARK    6  A    between atoms: C_16  and  S_17
REMARK    7  A    between atoms: S_17  and  N_20
REMARK                            x       y       z     vdW  Elec       q    Type
REMARK                         _______ _______ _______ _____ _____    ______ ____
ROOT
ATOM      1  N   UNL     1       2.510   4.191  18.352  0.00  0.00    +0.000 N 
ATOM      2  H   UNL     1       2.353   4.230  17.346  0.00  0.00    +0.000 HD
ENDROOT
BRANCH   1   3
ATOM      3  C   UNL     1       2.217   5.369  19.108  0.00  0.00    +0.000 A 
ATOM      4  C   UNL     1       1.572   5.254  20.343  0.00  0.00    +0.000 A 
ATOM      5  C   UNL     1       1.205   6.409  21.050  0.00  0.00    +0.000 A 
ATOM      6  C   UNL     1       1.480   7.673  20.516  0.00  0.00    +0.000 A 
ATOM      7  C   UNL     1       2.101   7.785  19.269  0.00  0.00    +0.000 A 
ATOM      8  C   UNL     1       2.476   6.629  18.574  0.00  0.00    +0.000 A 
BRANCH   6   9
ATOM      9  S   UNL     1       0.961   9.149  21.384  0.00  0.00    +0.000 S 
ATOM     10  O   UNL     1      -0.435   8.955  21.729  0.00  0.00    +0.000 OA
ATOM     11  O   UNL     1       1.946   9.437  22.403  0.00  0.00    +0.000 OA
BRANCH   9  12
ATOM     12  N   UNL     1       1.039  10.391  20.224  0.00  0.00    +0.000 NA
ATOM     13  C   UNL     1       1.301  11.783  20.685  0.00  0.00    +0.000 C 
ATOM     14  C   UNL     1       0.034  12.493  21.179  0.00  0.00    +0.000 C 
ATOM     15  O   UNL     1      -1.031  12.451  20.222  0.00  0.00    +0.000 OA
ATOM     16  C   UNL     1      -1.327  11.125  19.767  0.00  0.00    +0.000 C 
ATOM     17  C   UNL     1      -0.081  10.412  19.225  0.00  0.00    +0.000 C 
ENDBRANCH   9  12
ENDBRANCH   6   9
ENDBRANCH   1   3
BRANCH   1  18
ATOM     18  S   UNL     1       3.984   3.412  18.669  0.00  0.00    +0.000 S 
ATOM     19  O   UNL     1       3.883   2.023  18.283  0.00  0.00    +0.000 OA
ATOM     20  O   UNL     1       4.355   3.789  20.019  0.00  0.00    +0.000 OA
BRANCH  18  25
ATOM     21  C   UNL     1       6.813   5.921  17.211  0.00  0.00    +0.000 A 
ATOM     22  C   UNL     1       6.906   5.523  15.871  0.00  0.00    +0.000 A 
ATOM     23  C   UNL     1       6.086   4.501  15.382  0.00  0.00    +0.000 A 
ATOM     24  C   UNL     1       5.187   3.858  16.235  0.00  0.00    +0.000 A 
ATOM     25  C   UNL     1       5.129   4.228  17.583  0.00  0.00    +0.000 A 
ATOM     26  C   UNL     1       5.931   5.262  18.076  0.00  0.00    +0.000 A 
BRANCH  21  28
ATOM     27  O   UNL     1       7.863   8.049  17.172  0.00  0.00    +0.000 OA
ATOM     28  C   UNL     1       7.657   7.006  17.767  0.00  0.00    +0.000 C 
BRANCH  28  29
ATOM     29  O   UNL     1       8.199   6.714  18.967  0.00  0.00    +0.000 OA
ATOM     30  H   UNL     1       7.703   7.041  19.740  0.00  0.00    +0.000 HD
ENDBRANCH  28  29
ENDBRANCH  21  28
ENDBRANCH  18  25
ENDBRANCH   1  18
TORSDOF 7
ENDMDL
MODEL 8
REMARK VINA RESULT:      -7.8      1.608      2.136
REMARK  Name = 
REMARK  7 active torsions:
REMARK  status: ('A' for Active; 'I' for Inactive)
REMARK    1  A    between atoms: C_2  and  O_3
REMARK    2  A    between atoms: C_2  and  C_4
REMARK    3  A    between atoms: C_8  and  S_9
REMARK    4  A    between atoms: S_9  and  N_12
REMARK    5  A    between atoms: N_12  and  C_13
REMARK    6  A    between atoms: C_16  and  S_17
REMARK    7  A    between atoms: S_17  and  N_20
REMARK                            x       y       z     vdW  Elec       q    Type
REMARK                         _______ _______ _______ _____ _____    ______ ____
ROOT
ATOM      1  N   UNL     1       3.028   5.119  20.161  0.00  0.00    +0.000 N 
ATOM      2  H   UNL     1       2.566   4.620  20.919  0.00  0.00    +0.000 HD
ENDROOT
BRANCH   1   3
ATOM      3  C   UNL     1       2.547   6.430  19.850  0.00  0.00    +0.000 A 
ATOM      4  C   UNL     1       1.771   7.121  20.786  0.00  0.00    +0.000 A 
ATOM      5  C   UNL     1       1.225   8.370  20.457  0.00  0.00    +0.000 A 
ATOM      6  C   UNL     1       1.453   8.920  19.190  0.00  0.00    +0.000 A 
ATOM      7  C   UNL     1       2.207   8.216  18.247  0.00  0.00    +0.000 A 
ATOM      8  C   UNL     1       2.760   6.975  18.587  0.00  0.00    +0.000 A 
BRANCH   6   9
ATOM      9  S   UNL     1       0.710  10.484  18.742  0.00  0.00    +0.000 S 
ATOM     10  O   UNL     1       1.783  11.324  18.243  0.00  0.00    +0.000 OA
ATOM     11  O   UNL     1      -0.457  10.209  17.932  0.00  0.00    +0.000 OA
BRANCH   9  12
ATOM     12  N   UNL     1       0.173  11.153  20.212  0.00  0.00    +0.000 NA
ATOM     13  C   UNL     1      -1.226  11.656  20.299  0.00  0.00    +0.000 C 
ATOM     14  C   UNL     1      -1.380  13.076  19.740  0.00  0.00    +0.000 C 
ATOM     15  O   UNL     1      -0.454  14.003  20.321  0.00  0.00    +0.000 OA
ATOM     16  C   UNL     1       0.907  13.562  20.240  0.00  0.00    +0.000 C 
ATOM     17  C   UNL     1       1.094  12.161  20.836  0.00  0.00    +0.000 C 
ENDBRANCH   9  12
ENDBRANCH   6   9
ENDBRANCH   1   3
BRANCH   1  18
ATOM     18  S   UNL     1       3.292   4.061  18.860  0.00  0.00    +0.000 S 
ATOM     19  O   UNL     1       2.306   4.310  17.833  0.00  0.00    +0.000 OA
ATOM     20  O   UNL     1       3.451   2.742  19.441  0.00  0.00    +0.000 OA
BRANCH  18  25
ATOM     21  C   UNL     1       6.462   4.725  16.424  0.00  0.00    +0.000 A 
ATOM     22  C   UNL     1       7.408   5.271  17.303  0.00  0.00    +0.000 A 
ATOM     23  C   UNL     1       7.104   5.418  18.660  0.00  0.00    +0.000 A 
ATOM     24  C   UNL     1       5.847   5.043  19.140  0.00  0.00    +0.000 A 
ATOM     25  C   UNL     1       4.891   4.541  18.250  0.00  0.00    +0.000 A 
ATOM     26  C   UNL     1       5.193   4.371  16.896  0.00  0.00    +0.000 A 
BRANCH  21  28
ATOM     27  O   UNL     1       6.179   3.712  14.297  0.00  0.00    +0.000 OA
ATOM     28  C   UNL     1       6.748   4.543  14.980  0.00  0.00    +0.000 C 
BRANCH  28  29
ATOM     29  O   UNL     1       7.718   5.355  14.511  0.00  0.00    +0.000 OA
ATOM     30  H   UNL     1       8.532   4.908  14.219  0.00  0.00    +0.000 HD
ENDBRANCH  28  29
ENDBRANCH  21  28
ENDBRANCH  18  25
ENDBRANCH   1  18
TORSDOF 7
ENDMDL
MODEL 9
REMARK VINA RESULT:      -7.8      2.381      9.478
REMARK  Name = 
REMARK  7 active torsions:
REMARK  status: ('A' for Active; 'I' for Inactive)
REMARK    1  A    between atoms: C_2  and  O_3
REMARK    2  A    between atoms: C_2  and  C_4
REMARK    3  A    between atoms: C_8  and  S_9
REMARK    4  A    between atoms: S_9  and  N_12
REMARK    5  A    between atoms: N_12  and  C_13
REMARK    6  A    between atoms: C_16  and  S_17
REMARK    7  A    between atoms: S_17  and  N_20
REMARK                            x       y       z     vdW  Elec       q    Type
REMARK                         _______ _______ _______ _____ _____    ______ ____
ROOT
ATOM      1  N   UNL     1       0.845  11.169  18.639  0.00  0.00    +0.000 N 
ATOM      2  H   UNL     1       1.274  11.647  17.849  0.00  0.00    +0.000 HD
ENDROOT
BRANCH   1   3
ATOM      3  C   UNL     1       1.231   9.812  18.872  0.00  0.00    +0.000 A 
ATOM      4  C   UNL     1       1.131   9.276  20.160  0.00  0.00    +0.000 A 
ATOM      5  C   UNL     1       1.587   7.974  20.414  0.00  0.00    +0.000 A 
ATOM      6  C   UNL     1       2.146   7.215  19.378  0.00  0.00    +0.000 A 
ATOM      7  C   UNL     1       2.269   7.762  18.098  0.00  0.00    +0.000 A 
ATOM      8  C   UNL     1       1.800   9.058  17.849  0.00  0.00    +0.000 A 
BRANCH   6   9
ATOM      9  S   UNL     1       2.785   5.577  19.708  0.00  0.00    +0.000 S 
ATOM     10  O   UNL     1       4.227   5.659  19.566  0.00  0.00    +0.000 OA
ATOM     11  O   UNL     1       2.184   5.103  20.936  0.00  0.00    +0.000 OA
BRANCH   9  12
ATOM     12  N   UNL     1       2.195   4.612  18.437  0.00  0.00    +0.000 NA
ATOM     13  C   UNL     1       1.239   3.515  18.758  0.00  0.00    +0.000 C 
ATOM     14  C   UNL     1       1.940   2.239  19.236  0.00  0.00    +0.000 C 
ATOM     15  O   UNL     1       2.960   1.795  18.333  0.00  0.00    +0.000 OA
ATOM     16  C   UNL     1       3.912   2.818  18.014  0.00  0.00    +0.000 C 
ATOM     17  C   UNL     1       3.235   4.090  17.488  0.00  0.00    +0.000 C 
ENDBRANCH   9  12
ENDBRANCH   6   9
ENDBRANCH   1   3
BRANCH   1  18
ATOM     18  S   UNL     1      -0.814  11.523  18.689  0.00  0.00    +0.000 S 
ATOM     19  O   UNL     1      -1.568  10.294  18.591  0.00  0.00    +0.000 OA
ATOM     20  O   UNL     1      -1.022  12.606  17.747  0.00  0.00    +0.000 OA
BRANCH  18  25
ATOM     21  C   UNL     1      -2.488  12.708  22.185  0.00  0.00    +0.000 A 
ATOM     22  C   UNL     1      -1.410  13.315  22.843  0.00  0.00    +0.000 A 
ATOM     23  C   UNL     1      -0.162  13.400  22.219  0.00  0.00    +0.000 A 
ATOM     24  C   UNL     1       0.021  12.858  20.945  0.00  0.00    +0.000 A 
ATOM     25  C   UNL     1      -1.045  12.212  20.311  0.00  0.00    +0.000 A 
ATOM     26  C   UNL     1      -2.302  12.140  20.918  0.00  0.00    +0.000 A 
BRANCH  21  28
ATOM     27  O   UNL     1      -4.830  13.072  22.294  0.00  0.00    +0.000 OA
ATOM     28  C   UNL     1      -3.830  12.606  22.807  0.00  0.00    +0.000 C 
BRANCH  28  29
ATOM     29  O   UNL     1      -3.828  11.984  24.004  0.00  0.00    +0.000 OA
ATOM     30  H   UNL     1      -3.048  12.154  24.562  0.00  0.00    +0.000 HD
ENDBRANCH  28  29
ENDBRANCH  21  28
ENDBRANCH  18  25
ENDBRANCH   1  18
TORSDOF 7
ENDMDL
