MODEL 1
REMARK VINA RESULT:      -8.6      0.000      0.000
REMARK  Name = 
REMARK  1 active torsions:
REMARK  status: ('A' for Active; 'I' for Inactive)
REMARK    1  A    between atoms: C_2  and  C_9
REMARK                            x       y       z     vdW  Elec       q    Type
REMARK                         _______ _______ _______ _____ _____    ______ ____
ROOT
ATOM      1  C   UNL     1       4.587   3.939  19.213  0.00  0.00    +0.000 A 
ATOM      2  C   UNL     1       4.564   2.721  19.773  0.00  0.00    +0.000 A 
ATOM      3  O   UNL     1       3.612   2.257  20.678  0.00  0.00    +0.000 OA
ATOM      4  C   UNL     1       2.603   3.065  21.106  0.00  0.00    +0.000 A 
ATOM      5  O   UNL     1       1.756   2.664  21.891  0.00  0.00    +0.000 OA
ATOM      6  C   UNL     1       2.570   4.444  20.565  0.00  0.00    +0.000 A 
ATOM      7  C   UNL     1       1.537   5.292  20.992  0.00  0.00    +0.000 A 
ATOM      8  C   UNL     1       1.454   6.593  20.505  0.00  0.00    +0.000 A 
ATOM      9  C   UNL     1       2.396   7.042  19.587  0.00  0.00    +0.000 A 
ATOM     10  C   UNL     1       3.422   6.192  19.155  0.00  0.00    +0.000 A 
ATOM     11  C   UNL     1       3.533   4.879  19.641  0.00  0.00    +0.000 A 
ENDROOT
BRANCH   1  13
ATOM     12  O   UNL     1       6.813   4.552  18.652  0.00  0.00    +0.000 OA
ATOM     13  C   UNL     1       5.693   4.278  18.246  0.00  0.00    +0.000 C 
ATOM     14  N   UNL     1       5.295   4.262  16.921  0.00  0.00    +0.000 N 
ATOM     15  C   UNL     1       6.155   4.617  15.916  0.00  0.00    +0.000 A 
ATOM     16  N   UNL     1       7.402   5.032  15.972  0.00  0.00    +0.000 NA
ATOM     17  N   UNL     1       7.785   5.276  14.677  0.00  0.00    +0.000 NA
ATOM     18  N   UNL     1       6.804   5.005  13.829  0.00  0.00    +0.000 NA
ATOM     19  N   UNL     1       5.791   4.594  14.599  0.00  0.00    +0.000 N 
ATOM     20  H   UNL     1       4.344   4.027  16.670  0.00  0.00    +0.000 HD
ATOM     21  H   UNL     1       4.918   4.324  14.168  0.00  0.00    +0.000 HD
ENDBRANCH   1  13
TORSDOF 1
ENDMDL
MODEL 2
REMARK VINA RESULT:      -8.0      1.311      1.327
REMARK  Name = 
REMARK  1 active torsions:
REMARK  status: ('A' for Active; 'I' for Inactive)
REMARK    1  A    between atoms: C_2  and  C_9
REMARK                            x       y       z     vdW  Elec       q    Type
REMARK                         _______ _______ _______ _____ _____    ______ ____
ROOT
ATOM      1  C   UNL     1       4.231   3.751  17.917  0.00  0.00    +0.000 A 
ATOM      2  C   UNL     1       3.994   2.432  17.853  0.00  0.00    +0.000 A 
ATOM      3  O   UNL     1       2.961   1.756  18.499  0.00  0.00    +0.000 OA
ATOM      4  C   UNL     1       2.094   2.420  19.312  0.00  0.00    +0.000 A 
ATOM      5  O   UNL     1       1.177   1.838  19.875  0.00  0.00    +0.000 OA
ATOM      6  C   UNL     1       2.303   3.877  19.471  0.00  0.00    +0.000 A 
ATOM      7  C   UNL     1       1.419   4.580  20.305  0.00  0.00    +0.000 A 
ATOM      8  C   UNL     1       1.563   5.953  20.479  0.00  0.00    +0.000 A 
ATOM      9  C   UNL     1       2.584   6.624  19.815  0.00  0.00    +0.000 A 
ATOM     10  C   UNL     1       3.460   5.923  18.977  0.00  0.00    +0.000 A 
ATOM     11  C   UNL     1       3.342   4.536  18.795  0.00  0.00    +0.000 A 
ENDROOT
BRANCH   1  13
ATOM     12  O   UNL     1       6.228   5.022  17.709  0.00  0.00    +0.000 OA
ATOM     13  C   UNL     1       5.395   4.323  17.149  0.00  0.00    +0.000 C 
ATOM     14  N   UNL     1       5.389   3.992  15.805  0.00  0.00    +0.000 N 
ATOM     15  C   UNL     1       6.334   4.488  14.948  0.00  0.00    +0.000 A 
ATOM     16  N   UNL     1       7.332   5.316  15.169  0.00  0.00    +0.000 NA
ATOM     17  N   UNL     1       7.952   5.503  13.958  0.00  0.00    +0.000 NA
ATOM     18  N   UNL     1       7.363   4.797  13.005  0.00  0.00    +0.000 NA
ATOM     19  N   UNL     1       6.358   4.165  13.619  0.00  0.00    +0.000 N 
ATOM     20  H   UNL     1       4.658   3.409  15.421  0.00  0.00    +0.000 HD
ATOM     21  H   UNL     1       5.757   3.552  13.086  0.00  0.00    +0.000 HD
ENDBRANCH   1  13
TORSDOF 1
ENDMDL
MODEL 3
REMARK VINA RESULT:      -7.9      1.526      2.061
REMARK  Name = 
REMARK  1 active torsions:
REMARK  status: ('A' for Active; 'I' for Inactive)
REMARK    1  A    between atoms: C_2  and  C_9
REMARK                            x       y       z     vdW  Elec       q    Type
REMARK                         _______ _______ _______ _____ _____    ______ ____
ROOT
ATOM      1  C   UNL     1       5.072   5.157  17.656  0.00  0.00    +0.000 A 
ATOM      2  C   UNL     1       5.177   4.054  18.412  0.00  0.00    +0.000 A 
ATOM      3  O   UNL     1       4.384   3.740  19.513  0.00  0.00    +0.000 OA
ATOM      4  C   UNL     1       3.415   4.597  19.942  0.00  0.00    +0.000 A 
ATOM      5  O   UNL     1       2.706   4.326  20.900  0.00  0.00    +0.000 OA
ATOM      6  C   UNL     1       3.253   5.860  19.186  0.00  0.00    +0.000 A 
ATOM      7  C   UNL     1       2.259   6.756  19.612  0.00  0.00    +0.000 A 
ATOM      8  C   UNL     1       2.057   7.952  18.930  0.00  0.00    +0.000 A 
ATOM      9  C   UNL     1       2.840   8.248  17.820  0.00  0.00    +0.000 A 
ATOM     10  C   UNL     1       3.825   7.350  17.391  0.00  0.00    +0.000 A 
ATOM     11  C   UNL     1       4.056   6.142  18.070  0.00  0.00    +0.000 A 
ENDROOT
BRANCH   1  13
ATOM     12  O   UNL     1       6.868   6.213  16.513  0.00  0.00    +0.000 OA
ATOM     13  C   UNL     1       6.014   5.338  16.493  0.00  0.00    +0.000 C 
ATOM     14  N   UNL     1       5.787   4.454  15.453  0.00  0.00    +0.000 N 
ATOM     15  C   UNL     1       6.504   4.527  14.289  0.00  0.00    +0.000 A 
ATOM     16  N   UNL     1       7.444   5.370  13.922  0.00  0.00    +0.000 NA
ATOM     17  N   UNL     1       7.807   5.012  12.647  0.00  0.00    +0.000 NA
ATOM     18  N   UNL     1       7.118   3.959  12.232  0.00  0.00    +0.000 NA
ATOM     19  N   UNL     1       6.310   3.657  13.253  0.00  0.00    +0.000 N 
ATOM     20  H   UNL     1       5.055   3.760  15.515  0.00  0.00    +0.000 HD
ATOM     21  H   UNL     1       5.678   2.871  13.171  0.00  0.00    +0.000 HD
ENDBRANCH   1  13
TORSDOF 1
ENDMDL
MODEL 4
REMARK VINA RESULT:      -7.8      4.624      6.484
REMARK  Name = 
REMARK  1 active torsions:
REMARK  status: ('A' for Active; 'I' for Inactive)
REMARK    1  A    between atoms: C_2  and  C_9
REMARK                            x       y       z     vdW  Elec       q    Type
REMARK                         _______ _______ _______ _____ _____    ______ ____
ROOT
ATOM      1  C   UNL     1       3.123   6.465  17.919  0.00  0.00    +0.000 A 
ATOM      2  C   UNL     1       4.285   6.795  17.336  0.00  0.00    +0.000 A 
ATOM      3  O   UNL     1       5.171   5.910  16.725  0.00  0.00    +0.000 OA
ATOM      4  C   UNL     1       4.919   4.571  16.707  0.00  0.00    +0.000 A 
ATOM      5  O   UNL     1       5.684   3.787  16.163  0.00  0.00    +0.000 OA
ATOM      6  C   UNL     1       3.672   4.113  17.361  0.00  0.00    +0.000 A 
ATOM      7  C   UNL     1       3.394   2.737  17.353  0.00  0.00    +0.000 A 
ATOM      8  C   UNL     1       2.231   2.255  17.943  0.00  0.00    +0.000 A 
ATOM      9  C   UNL     1       1.342   3.146  18.534  0.00  0.00    +0.000 A 
ATOM     10  C   UNL     1       1.616   4.519  18.534  0.00  0.00    +0.000 A 
ATOM     11  C   UNL     1       2.790   5.028  17.955  0.00  0.00    +0.000 A 
ENDROOT
BRANCH   1  13
ATOM     12  O   UNL     1       1.681   8.351  17.825  0.00  0.00    +0.000 OA
ATOM     13  C   UNL     1       2.279   7.554  18.533  0.00  0.00    +0.000 C 
ATOM     14  N   UNL     1       2.288   7.548  19.917  0.00  0.00    +0.000 N 
ATOM     15  C   UNL     1       1.633   8.513  20.635  0.00  0.00    +0.000 A 
ATOM     16  N   UNL     1       0.949   9.559  20.227  0.00  0.00    +0.000 NA
ATOM     17  N   UNL     1       0.528  10.209  21.360  0.00  0.00    +0.000 NA
ATOM     18  N   UNL     1       0.928   9.575  22.452  0.00  0.00    +0.000 NA
ATOM     19  N   UNL     1       1.614   8.520  22.002  0.00  0.00    +0.000 N 
ATOM     20  H   UNL     1       2.815   6.852  20.427  0.00  0.00    +0.000 HD
ATOM     21  H   UNL     1       2.022   7.874  22.664  0.00  0.00    +0.000 HD
ENDBRANCH   1  13
TORSDOF 1
ENDMDL
MODEL 5
REMARK VINA RESULT:      -7.7      1.250      1.479
REMARK  Name = 
REMARK  1 active torsions:
REMARK  status: ('A' for Active; 'I' for Inactive)
REMARK    1  A    between atoms: C_2  and  C_9
REMARK                            x       y       z     vdW  Elec       q    Type
REMARK                         _______ _______ _______ _____ _____    ______ ____
ROOT
ATOM      1  C   UNL     1       3.652   3.913  18.313  0.00  0.00    +0.000 A 
ATOM      2  C   UNL     1       3.725   2.754  18.985  0.00  0.00    +0.000 A 
ATOM      3  O   UNL     1       3.208   2.514  20.256  0.00  0.00    +0.000 OA
ATOM      4  C   UNL     1       2.589   3.505  20.957  0.00  0.00    +0.000 A 
ATOM      5  O   UNL     1       2.122   3.302  22.068  0.00  0.00    +0.000 OA
ATOM      6  C   UNL     1       2.495   4.832  20.305  0.00  0.00    +0.000 A 
ATOM      7  C   UNL     1       1.861   5.866  21.010  0.00  0.00    +0.000 A 
ATOM      8  C   UNL     1       1.735   7.128  20.438  0.00  0.00    +0.000 A 
ATOM      9  C   UNL     1       2.236   7.354  19.161  0.00  0.00    +0.000 A 
ATOM     10  C   UNL     1       2.862   6.319  18.455  0.00  0.00    +0.000 A 
ATOM     11  C   UNL     1       3.011   5.041  19.016  0.00  0.00    +0.000 A 
ENDROOT
BRANCH   1  13
ATOM     12  O   UNL     1       3.732   3.452  15.984  0.00  0.00    +0.000 OA
ATOM     13  C   UNL     1       4.264   4.000  16.938  0.00  0.00    +0.000 C 
ATOM     14  N   UNL     1       5.447   4.717  16.903  0.00  0.00    +0.000 N 
ATOM     15  C   UNL     1       6.173   4.833  15.747  0.00  0.00    +0.000 A 
ATOM     16  N   UNL     1       5.956   4.327  14.553  0.00  0.00    +0.000 NA
ATOM     17  N   UNL     1       7.007   4.731  13.767  0.00  0.00    +0.000 NA
ATOM     18  N   UNL     1       7.855   5.484  14.452  0.00  0.00    +0.000 NA
ATOM     19  N   UNL     1       7.336   5.548  15.682  0.00  0.00    +0.000 N 
ATOM     20  H   UNL     1       5.822   5.137  17.742  0.00  0.00    +0.000 HD
ATOM     21  H   UNL     1       7.815   6.081  16.396  0.00  0.00    +0.000 HD
ENDBRANCH   1  13
TORSDOF 1
ENDMDL
MODEL 6
REMARK VINA RESULT:      -7.6      4.671      6.313
REMARK  Name = 
REMARK  1 active torsions:
REMARK  status: ('A' for Active; 'I' for Inactive)
REMARK    1  A    between atoms: C_2  and  C_9
REMARK                            x       y       z     vdW  Elec       q    Type
REMARK                         _______ _______ _______ _____ _____    ______ ____
ROOT
ATOM      1  C   UNL     1       3.115   6.466  18.131  0.00  0.00    +0.000 A 
ATOM      2  C   UNL     1       4.205   6.821  17.435  0.00  0.00    +0.000 A 
ATOM      3  O   UNL     1       4.997   5.969  16.668  0.00  0.00    +0.000 OA
ATOM      4  C   UNL     1       4.722   4.636  16.598  0.00  0.00    +0.000 A 
ATOM      5  O   UNL     1       5.403   3.881  15.919  0.00  0.00    +0.000 OA
ATOM      6  C   UNL     1       3.553   4.149  17.367  0.00  0.00    +0.000 A 
ATOM      7  C   UNL     1       3.253   2.779  17.306  0.00  0.00    +0.000 A 
ATOM      8  C   UNL     1       2.159   2.272  18.000  0.00  0.00    +0.000 A 
ATOM      9  C   UNL     1       1.362   3.132  18.746  0.00  0.00    +0.000 A 
ATOM     10  C   UNL     1       1.658   4.500  18.800  0.00  0.00    +0.000 A 
ATOM     11  C   UNL     1       2.764   5.033  18.118  0.00  0.00    +0.000 A 
ENDROOT
BRANCH   1  13
ATOM     12  O   UNL     1       2.231   7.423  20.119  0.00  0.00    +0.000 OA
ATOM     13  C   UNL     1       2.369   7.522  18.908  0.00  0.00    +0.000 C 
ATOM     14  N   UNL     1       1.871   8.543  18.118  0.00  0.00    +0.000 N 
ATOM     15  C   UNL     1       1.106   9.545  18.652  0.00  0.00    +0.000 A 
ATOM     16  N   UNL     1       0.693   9.734  19.886  0.00  0.00    +0.000 NA
ATOM     17  N   UNL     1      -0.065  10.878  19.868  0.00  0.00    +0.000 NA
ATOM     18  N   UNL     1      -0.113  11.401  18.652  0.00  0.00    +0.000 NA
ATOM     19  N   UNL     1       0.615  10.574  17.896  0.00  0.00    +0.000 N 
ATOM     20  H   UNL     1       2.027   8.547  17.120  0.00  0.00    +0.000 HD
ATOM     21  H   UNL     1       0.729  10.771  16.911  0.00  0.00    +0.000 HD
ENDBRANCH   1  13
TORSDOF 1
ENDMDL
MODEL 7
REMARK VINA RESULT:      -7.5      1.740      2.749
REMARK  Name = 
REMARK  1 active torsions:
REMARK  status: ('A' for Active; 'I' for Inactive)
REMARK    1  A    between atoms: C_2  and  C_9
REMARK                            x       y       z     vdW  Elec       q    Type
REMARK                         _______ _______ _______ _____ _____    ______ ____
ROOT
ATOM      1  C   UNL     1       4.256   5.841  18.432  0.00  0.00    +0.000 A 
ATOM      2  C   UNL     1       3.487   6.938  18.501  0.00  0.00    +0.000 A 
ATOM      3  O   UNL     1       2.388   7.113  19.339  0.00  0.00    +0.000 OA
ATOM      4  C   UNL     1       1.975   6.113  20.166  0.00  0.00    +0.000 A 
ATOM      5  O   UNL     1       1.018   6.259  20.913  0.00  0.00    +0.000 OA
ATOM      6  C   UNL     1       2.745   4.848  20.129  0.00  0.00    +0.000 A 
ATOM      7  C   UNL     1       2.336   3.805  20.975  0.00  0.00    +0.000 A 
ATOM      8  C   UNL     1       3.032   2.601  20.988  0.00  0.00    +0.000 A 
ATOM      9  C   UNL     1       4.140   2.442  20.163  0.00  0.00    +0.000 A 
ATOM     10  C   UNL     1       4.553   3.486  19.326  0.00  0.00    +0.000 A 
ATOM     11  C   UNL     1       3.859   4.706  19.287  0.00  0.00    +0.000 A 
ENDROOT
BRANCH   1  13
ATOM     12  O   UNL     1       6.451   6.416  17.726  0.00  0.00    +0.000 OA
ATOM     13  C   UNL     1       5.414   5.821  17.467  0.00  0.00    +0.000 C 
ATOM     14  N   UNL     1       5.161   5.103  16.312  0.00  0.00    +0.000 N 
ATOM     15  C   UNL     1       6.079   5.043  15.297  0.00  0.00    +0.000 A 
ATOM     16  N   UNL     1       7.262   5.607  15.187  0.00  0.00    +0.000 NA
ATOM     17  N   UNL     1       7.750   5.240  13.958  0.00  0.00    +0.000 NA
ATOM     18  N   UNL     1       6.898   4.452  13.320  0.00  0.00    +0.000 NA
ATOM     19  N   UNL     1       5.859   4.328  14.153  0.00  0.00    +0.000 N 
ATOM     20  H   UNL     1       4.272   4.641  16.175  0.00  0.00    +0.000 HD
ATOM     21  H   UNL     1       5.069   3.760  13.880  0.00  0.00    +0.000 HD
ENDBRANCH   1  13
TORSDOF 1
ENDMDL
MODEL 8
REMARK VINA RESULT:      -7.4      4.955      6.607
REMARK  Name = 
REMARK  1 active torsions:
REMARK  status: ('A' for Active; 'I' for Inactive)
REMARK    1  A    between atoms: C_2  and  C_9
REMARK                            x       y       z     vdW  Elec       q    Type
REMARK                         _______ _______ _______ _____ _____    ______ ____
ROOT
ATOM      1  C   UNL     1       2.555   6.287  19.612  0.00  0.00    +0.000 A 
ATOM      2  C   UNL     1       2.211   5.264  20.410  0.00  0.00    +0.000 A 
ATOM      3  O   UNL     1       2.677   3.955  20.305  0.00  0.00    +0.000 OA
ATOM      4  C   UNL     1       3.535   3.598  19.309  0.00  0.00    +0.000 A 
ATOM      5  O   UNL     1       3.959   2.455  19.214  0.00  0.00    +0.000 OA
ATOM      6  C   UNL     1       3.940   4.658  18.357  0.00  0.00    +0.000 A 
ATOM      7  C   UNL     1       4.824   4.310  17.324  0.00  0.00    +0.000 A 
ATOM      8  C   UNL     1       5.245   5.270  16.410  0.00  0.00    +0.000 A 
ATOM      9  C   UNL     1       4.791   6.578  16.534  0.00  0.00    +0.000 A 
ATOM     10  C   UNL     1       3.916   6.927  17.570  0.00  0.00    +0.000 A 
ATOM     11  C   UNL     1       3.467   5.972  18.497  0.00  0.00    +0.000 A 
ENDROOT
BRANCH   1  13
ATOM     12  O   UNL     1       1.911   8.485  18.981  0.00  0.00    +0.000 OA
ATOM     13  C   UNL     1       1.956   7.646  19.870  0.00  0.00    +0.000 C 
ATOM     14  N   UNL     1       1.512   7.820  21.169  0.00  0.00    +0.000 N 
ATOM     15  C   UNL     1       1.008   9.020  21.592  0.00  0.00    +0.000 A 
ATOM     16  N   UNL     1       0.870  10.159  20.949  0.00  0.00    +0.000 NA
ATOM     17  N   UNL     1       0.337  11.048  21.849  0.00  0.00    +0.000 NA
ATOM     18  N   UNL     1       0.133  10.473  23.026  0.00  0.00    +0.000 NA
ATOM     19  N   UNL     1       0.549   9.213  22.866  0.00  0.00    +0.000 N 
ATOM     20  H   UNL     1       1.590   7.073  21.845  0.00  0.00    +0.000 HD
ATOM     21  H   UNL     1       0.488   8.568  23.642  0.00  0.00    +0.000 HD
ENDBRANCH   1  13
TORSDOF 1
ENDMDL
MODEL 9
REMARK VINA RESULT:      -7.4      1.892      2.788
REMARK  Name = 
REMARK  1 active torsions:
REMARK  status: ('A' for Active; 'I' for Inactive)
REMARK    1  A    between atoms: C_2  and  C_9
REMARK                            x       y       z     vdW  Elec       q    Type
REMARK                         _______ _______ _______ _____ _____    ______ ____
ROOT
ATOM      1  C   UNL     1       4.228   5.403  18.191  0.00  0.00    +0.000 A 
ATOM      2  C   UNL     1       3.778   6.500  18.817  0.00  0.00    +0.000 A 
ATOM      3  O   UNL     1       2.697   6.553  19.695  0.00  0.00    +0.000 OA
ATOM      4  C   UNL     1       1.962   5.438  19.965  0.00  0.00    +0.000 A 
ATOM      5  O   UNL     1       1.018   5.471  20.742  0.00  0.00    +0.000 OA
ATOM      6  C   UNL     1       2.366   4.186  19.287  0.00  0.00    +0.000 A 
ATOM      7  C   UNL     1       1.621   3.026  19.552  0.00  0.00    +0.000 A 
ATOM      8  C   UNL     1       1.967   1.820  18.950  0.00  0.00    +0.000 A 
ATOM      9  C   UNL     1       3.059   1.771  18.091  0.00  0.00    +0.000 A 
ATOM     10  C   UNL     1       3.806   2.927  17.833  0.00  0.00    +0.000 A 
ATOM     11  C   UNL     1       3.470   4.158  18.420  0.00  0.00    +0.000 A 
ENDROOT
BRANCH   1  13
ATOM     12  O   UNL     1       6.406   6.157  17.614  0.00  0.00    +0.000 OA
ATOM     13  C   UNL     1       5.418   5.522  17.273  0.00  0.00    +0.000 C 
ATOM     14  N   UNL     1       5.249   4.878  16.060  0.00  0.00    +0.000 N 
ATOM     15  C   UNL     1       6.203   4.948  15.080  0.00  0.00    +0.000 A 
ATOM     16  N   UNL     1       7.352   5.587  15.056  0.00  0.00    +0.000 NA
ATOM     17  N   UNL     1       7.903   5.342  13.823  0.00  0.00    +0.000 NA
ATOM     18  N   UNL     1       7.123   4.554  13.098  0.00  0.00    +0.000 NA
ATOM     19  N   UNL     1       6.067   4.308  13.879  0.00  0.00    +0.000 N 
ATOM     20  H   UNL     1       4.395   4.377  15.856  0.00  0.00    +0.000 HD
ATOM     21  H   UNL     1       5.323   3.716  13.536  0.00  0.00    +0.000 HD
ENDBRANCH   1  13
TORSDOF 1
ENDMDL
