MODEL 1
REMARK VINA RESULT:      -6.4      0.000      0.000
REMARK  Name = 
REMARK  8 active torsions:
REMARK  status: ('A' for Active; 'I' for Inactive)
REMARK    1  A    between atoms: C_1  and  O_2
REMARK    2  A    between atoms: O_2  and  C_3
REMARK    3  A    between atoms: C_3  and  C_4
REMARK    4  A    between atoms: C_7  and  C_9
REMARK    5  A    between atoms: C_12  and  C_13
REMARK    6  A    between atoms: C_13  and  C_14
REMARK    7  A    between atoms: C_13  and  C_15
REMARK    8  A    between atoms: C_13  and  C_16
REMARK                            x       y       z     vdW  Elec       q    Type
REMARK                         _______ _______ _______ _____ _____    ______ ____
ROOT
ATOM      1  C   UNL     1       2.209   3.500  19.189  0.00  0.00    +0.000 C 
ATOM      2  C   UNL     1       1.859   4.617  18.184  0.00  0.00    +0.000 C 
ATOM      3  N   UNL     1       3.099   5.220  17.696  0.00  0.00    +0.000 N 
ATOM      4  C   UNL     1       3.474   6.568  17.768  0.00  0.00    +0.000 C 
ATOM      5  O   UNL     1       4.494   6.954  17.190  0.00  0.00    +0.000 OA
ATOM      6  C   UNL     1       3.976   4.233  17.055  0.00  0.00    +0.000 C 
ATOM      7  C   UNL     1       4.227   3.056  18.010  0.00  0.00    +0.000 C 
ATOM      8  O   UNL     1       2.989   2.498  18.491  0.00  0.00    +0.000 OA
ENDROOT
BRANCH   4   9
ATOM      9  C   UNL     1       2.643   7.475  18.550  0.00  0.00    +0.000 A 
ATOM     10  C   UNL     1       2.254   7.419  19.868  0.00  0.00    +0.000 A 
ATOM     11  N   UNL     1       1.356   8.374  20.282  0.00  0.00    +0.000 NA
ATOM     12  C   UNL     1       1.150   9.257  19.323  0.00  0.00    +0.000 A 
ATOM     13  S   UNL     1       2.034   8.932  17.869  0.00  0.00    +0.000 S 
BRANCH  12  14
ATOM     14  C   UNL     1       0.213  10.446  19.482  0.00  0.00    +0.000 C 
ATOM     15  C   UNL     1      -0.959  10.307  18.482  0.00  0.00    +0.000 C 
ATOM     16  C   UNL     1      -0.372  10.480  20.904  0.00  0.00    +0.000 C 
ATOM     17  C   UNL     1       0.933  11.770  19.177  0.00  0.00    +0.000 C 
ENDBRANCH  12  14
ENDBRANCH   4   9
BRANCH   1  18
ATOM     18  C   UNL     1       0.918   2.882  19.731  0.00  0.00    +0.000 C 
BRANCH  18  20
ATOM     19  C   UNL     1       2.110   3.454  21.676  0.00  0.00    +0.000 C 
ATOM     20  O   UNL     1       1.005   2.734  21.149  0.00  0.00    +0.000 OA
ENDBRANCH  18  20
ENDBRANCH   1  18
TORSDOF 4
ENDMDL
MODEL 2
REMARK VINA RESULT:      -6.4      0.205      1.019
REMARK  Name = 
REMARK  8 active torsions:
REMARK  status: ('A' for Active; 'I' for Inactive)
REMARK    1  A    between atoms: C_1  and  O_2
REMARK    2  A    between atoms: O_2  and  C_3
REMARK    3  A    between atoms: C_3  and  C_4
REMARK    4  A    between atoms: C_7  and  C_9
REMARK    5  A    between atoms: C_12  and  C_13
REMARK    6  A    between atoms: C_13  and  C_14
REMARK    7  A    between atoms: C_13  and  C_15
REMARK    8  A    between atoms: C_13  and  C_16
REMARK                            x       y       z     vdW  Elec       q    Type
REMARK                         _______ _______ _______ _____ _____    ______ ____
ROOT
ATOM      1  C   UNL     1       2.259   3.425  19.034  0.00  0.00    +0.000 C 
ATOM      2  C   UNL     1       1.907   4.575  18.068  0.00  0.00    +0.000 C 
ATOM      3  N   UNL     1       3.146   5.195  17.599  0.00  0.00    +0.000 N 
ATOM      4  C   UNL     1       3.521   6.539  17.717  0.00  0.00    +0.000 C 
ATOM      5  O   UNL     1       4.540   6.946  17.151  0.00  0.00    +0.000 OA
ATOM      6  C   UNL     1       4.022   4.230  16.923  0.00  0.00    +0.000 C 
ATOM      7  C   UNL     1       4.274   3.021  17.838  0.00  0.00    +0.000 C 
ATOM      8  O   UNL     1       3.037   2.447  18.301  0.00  0.00    +0.000 OA
ENDROOT
BRANCH   4   9
ATOM      9  C   UNL     1       2.692   7.420  18.531  0.00  0.00    +0.000 A 
ATOM     10  C   UNL     1       2.301   7.316  19.846  0.00  0.00    +0.000 A 
ATOM     11  N   UNL     1       1.405   8.258  20.294  0.00  0.00    +0.000 NA
ATOM     12  C   UNL     1       1.202   9.175  19.368  0.00  0.00    +0.000 A 
ATOM     13  S   UNL     1       2.087   8.902  17.904  0.00  0.00    +0.000 S 
BRANCH  12  14
ATOM     14  C   UNL     1       0.268  10.359  19.570  0.00  0.00    +0.000 C 
ATOM     15  C   UNL     1       1.080  11.672  19.465  0.00  0.00    +0.000 C 
ATOM     16  C   UNL     1      -0.816  10.379  18.479  0.00  0.00    +0.000 C 
ATOM     17  C   UNL     1      -0.387  10.325  20.961  0.00  0.00    +0.000 C 
ENDBRANCH  12  14
ENDBRANCH   4   9
BRANCH   1  18
ATOM     18  C   UNL     1       0.968   2.789  19.557  0.00  0.00    +0.000 C 
BRANCH  18  20
ATOM     19  C   UNL     1       2.061   2.999  21.628  0.00  0.00    +0.000 C 
ATOM     20  O   UNL     1       0.816   3.066  20.950  0.00  0.00    +0.000 OA
ENDBRANCH  18  20
ENDBRANCH   1  18
TORSDOF 4
ENDMDL
MODEL 3
REMARK VINA RESULT:      -6.2      2.252      4.084
REMARK  Name = 
REMARK  8 active torsions:
REMARK  status: ('A' for Active; 'I' for Inactive)
REMARK    1  A    between atoms: C_1  and  O_2
REMARK    2  A    between atoms: O_2  and  C_3
REMARK    3  A    between atoms: C_3  and  C_4
REMARK    4  A    between atoms: C_7  and  C_9
REMARK    5  A    between atoms: C_12  and  C_13
REMARK    6  A    between atoms: C_13  and  C_14
REMARK    7  A    between atoms: C_13  and  C_15
REMARK    8  A    between atoms: C_13  and  C_16
REMARK                            x       y       z     vdW  Elec       q    Type
REMARK                         _______ _______ _______ _____ _____    ______ ____
ROOT
ATOM      1  C   UNL     1       6.287   6.100  17.294  0.00  0.00    +0.000 C 
ATOM      2  C   UNL     1       5.349   5.651  18.433  0.00  0.00    +0.000 C 
ATOM      3  N   UNL     1       4.241   4.887  17.860  0.00  0.00    +0.000 N 
ATOM      4  C   UNL     1       2.872   5.156  17.980  0.00  0.00    +0.000 C 
ATOM      5  O   UNL     1       2.046   4.343  17.555  0.00  0.00    +0.000 OA
ATOM      6  C   UNL     1       4.711   3.714  17.112  0.00  0.00    +0.000 C 
ATOM      7  C   UNL     1       5.742   4.144  16.057  0.00  0.00    +0.000 C 
ATOM      8  O   UNL     1       6.807   4.912  16.647  0.00  0.00    +0.000 OA
ENDROOT
BRANCH   4   9
ATOM      9  C   UNL     1       2.466   6.413  18.597  0.00  0.00    +0.000 A 
ATOM     10  C   UNL     1       2.271   6.737  19.920  0.00  0.00    +0.000 A 
ATOM     11  N   UNL     1       1.762   7.989  20.173  0.00  0.00    +0.000 NA
ATOM     12  C   UNL     1       1.690   8.690  19.058  0.00  0.00    +0.000 A 
ATOM     13  S   UNL     1       2.222   7.828  17.652  0.00  0.00    +0.000 S 
BRANCH  12  14
ATOM     14  C   UNL     1       1.177  10.122  19.015  0.00  0.00    +0.000 C 
ATOM     15  C   UNL     1      -0.195  10.150  18.299  0.00  0.00    +0.000 C 
ATOM     16  C   UNL     1       0.985  10.666  20.440  0.00  0.00    +0.000 C 
ATOM     17  C   UNL     1       2.132  11.035  18.228  0.00  0.00    +0.000 C 
ENDBRANCH  12  14
ENDBRANCH   4   9
BRANCH   1  18
ATOM     18  C   UNL     1       7.435   6.928  17.878  0.00  0.00    +0.000 C 
BRANCH  18  20
ATOM     19  C   UNL     1       8.196   9.151  17.959  0.00  0.00    +0.000 C 
ATOM     20  O   UNL     1       7.560   8.160  17.166  0.00  0.00    +0.000 OA
ENDBRANCH  18  20
ENDBRANCH   1  18
TORSDOF 4
ENDMDL
MODEL 4
REMARK VINA RESULT:      -6.1      1.227      1.806
REMARK  Name = 
REMARK  8 active torsions:
REMARK  status: ('A' for Active; 'I' for Inactive)
REMARK    1  A    between atoms: C_1  and  O_2
REMARK    2  A    between atoms: O_2  and  C_3
REMARK    3  A    between atoms: C_3  and  C_4
REMARK    4  A    between atoms: C_7  and  C_9
REMARK    5  A    between atoms: C_12  and  C_13
REMARK    6  A    between atoms: C_13  and  C_14
REMARK    7  A    between atoms: C_13  and  C_15
REMARK    8  A    between atoms: C_13  and  C_16
REMARK                            x       y       z     vdW  Elec       q    Type
REMARK                         _______ _______ _______ _____ _____    ______ ____
ROOT
ATOM      1  C   UNL     1       2.262   3.556  19.041  0.00  0.00    +0.000 C 
ATOM      2  C   UNL     1       1.969   4.645  17.989  0.00  0.00    +0.000 C 
ATOM      3  N   UNL     1       3.227   5.281  17.602  0.00  0.00    +0.000 N 
ATOM      4  C   UNL     1       3.552   6.641  17.683  0.00  0.00    +0.000 C 
ATOM      5  O   UNL     1       4.607   7.052  17.191  0.00  0.00    +0.000 OA
ATOM      6  C   UNL     1       4.188   4.313  17.059  0.00  0.00    +0.000 C 
ATOM      7  C   UNL     1       4.389   3.160  18.055  0.00  0.00    +0.000 C 
ATOM      8  O   UNL     1       3.131   2.569  18.433  0.00  0.00    +0.000 OA
ENDROOT
BRANCH   4   9
ATOM      9  C   UNL     1       2.627   7.533  18.372  0.00  0.00    +0.000 A 
ATOM     10  C   UNL     1       1.925   8.622  17.909  0.00  0.00    +0.000 A 
ATOM     11  N   UNL     1       1.221   9.339  18.849  0.00  0.00    +0.000 NA
ATOM     12  C   UNL     1       1.265   8.730  20.018  0.00  0.00    +0.000 A 
ATOM     13  S   UNL     1       2.191   7.266  20.013  0.00  0.00    +0.000 S 
BRANCH  12  14
ATOM     14  C   UNL     1       0.569   9.274  21.258  0.00  0.00    +0.000 C 
ATOM     15  C   UNL     1       1.554   9.240  22.451  0.00  0.00    +0.000 C 
ATOM     16  C   UNL     1       0.137  10.732  21.034  0.00  0.00    +0.000 C 
ATOM     17  C   UNL     1      -0.650   8.416  21.637  0.00  0.00    +0.000 C 
ENDBRANCH  12  14
ENDBRANCH   4   9
BRANCH   1  18
ATOM     18  C   UNL     1       0.947   2.905  19.478  0.00  0.00    +0.000 C 
BRANCH  18  20
ATOM     19  C   UNL     1       2.006   3.348  21.530  0.00  0.00    +0.000 C 
ATOM     20  O   UNL     1       0.775   3.049  20.888  0.00  0.00    +0.000 OA
ENDBRANCH  18  20
ENDBRANCH   1  18
TORSDOF 4
ENDMDL
MODEL 5
REMARK VINA RESULT:      -6.1      2.508      4.468
REMARK  Name = 
REMARK  8 active torsions:
REMARK  status: ('A' for Active; 'I' for Inactive)
REMARK    1  A    between atoms: C_1  and  O_2
REMARK    2  A    between atoms: O_2  and  C_3
REMARK    3  A    between atoms: C_3  and  C_4
REMARK    4  A    between atoms: C_7  and  C_9
REMARK    5  A    between atoms: C_12  and  C_13
REMARK    6  A    between atoms: C_13  and  C_14
REMARK    7  A    between atoms: C_13  and  C_15
REMARK    8  A    between atoms: C_13  and  C_16
REMARK                            x       y       z     vdW  Elec       q    Type
REMARK                         _______ _______ _______ _____ _____    ______ ____
ROOT
ATOM      1  C   UNL     1       6.741   6.455  17.305  0.00  0.00    +0.000 C 
ATOM      2  C   UNL     1       5.797   5.865  18.373  0.00  0.00    +0.000 C 
ATOM      3  N   UNL     1       4.801   5.024  17.712  0.00  0.00    +0.000 N 
ATOM      4  C   UNL     1       3.407   5.152  17.768  0.00  0.00    +0.000 C 
ATOM      5  O   UNL     1       2.689   4.282  17.267  0.00  0.00    +0.000 OA
ATOM      6  C   UNL     1       5.422   3.937  16.945  0.00  0.00    +0.000 C 
ATOM      7  C   UNL     1       6.456   4.511  15.964  0.00  0.00    +0.000 C 
ATOM      8  O   UNL     1       7.409   5.353  16.641  0.00  0.00    +0.000 OA
ENDROOT
BRANCH   4   9
ATOM      9  C   UNL     1       2.848   6.334  18.411  0.00  0.00    +0.000 A 
ATOM     10  C   UNL     1       2.518   6.564  19.727  0.00  0.00    +0.000 A 
ATOM     11  N   UNL     1       1.887   7.755  20.000  0.00  0.00    +0.000 NA
ATOM     12  C   UNL     1       1.847   8.512  18.920  0.00  0.00    +0.000 A 
ATOM     13  S   UNL     1       2.563   7.779  17.522  0.00  0.00    +0.000 S 
BRANCH  12  14
ATOM     14  C   UNL     1       1.220   9.899  18.905  0.00  0.00    +0.000 C 
ATOM     15  C   UNL     1       0.953  10.351  20.361  0.00  0.00    +0.000 C 
ATOM     16  C   UNL     1       2.177  10.912  18.256  0.00  0.00    +0.000 C 
ATOM     17  C   UNL     1      -0.127   9.896  18.164  0.00  0.00    +0.000 C 
ENDBRANCH  12  14
ENDBRANCH   4   9
BRANCH   1  18
ATOM     18  C   UNL     1       7.770   7.364  17.983  0.00  0.00    +0.000 C 
BRANCH  18  20
ATOM     19  C   UNL     1       8.448   9.608  18.168  0.00  0.00    +0.000 C 
ATOM     20  O   UNL     1       7.757   8.655  17.373  0.00  0.00    +0.000 OA
ENDBRANCH  18  20
ENDBRANCH   1  18
TORSDOF 4
ENDMDL
MODEL 6
REMARK VINA RESULT:      -5.9      1.273      1.648
REMARK  Name = 
REMARK  8 active torsions:
REMARK  status: ('A' for Active; 'I' for Inactive)
REMARK    1  A    between atoms: C_1  and  O_2
REMARK    2  A    between atoms: O_2  and  C_3
REMARK    3  A    between atoms: C_3  and  C_4
REMARK    4  A    between atoms: C_7  and  C_9
REMARK    5  A    between atoms: C_12  and  C_13
REMARK    6  A    between atoms: C_13  and  C_14
REMARK    7  A    between atoms: C_13  and  C_15
REMARK    8  A    between atoms: C_13  and  C_16
REMARK                            x       y       z     vdW  Elec       q    Type
REMARK                         _______ _______ _______ _____ _____    ______ ____
ROOT
ATOM      1  C   UNL     1       2.365   3.666  18.893  0.00  0.00    +0.000 C 
ATOM      2  C   UNL     1       2.059   4.782  17.873  0.00  0.00    +0.000 C 
ATOM      3  N   UNL     1       3.308   5.454  17.517  0.00  0.00    +0.000 N 
ATOM      4  C   UNL     1       3.605   6.817  17.644  0.00  0.00    +0.000 C 
ATOM      5  O   UNL     1       4.656   7.264  17.174  0.00  0.00    +0.000 OA
ATOM      6  C   UNL     1       4.292   4.523  16.953  0.00  0.00    +0.000 C 
ATOM      7  C   UNL     1       4.508   3.343  17.913  0.00  0.00    +0.000 C 
ATOM      8  O   UNL     1       3.258   2.716  18.262  0.00  0.00    +0.000 OA
ENDROOT
BRANCH   4   9
ATOM      9  C   UNL     1       2.657   7.669  18.351  0.00  0.00    +0.000 A 
ATOM     10  C   UNL     1       1.940   8.760  17.917  0.00  0.00    +0.000 A 
ATOM     11  N   UNL     1       1.214   9.432  18.872  0.00  0.00    +0.000 NA
ATOM     12  C   UNL     1       1.257   8.786  20.022  0.00  0.00    +0.000 A 
ATOM     13  S   UNL     1       2.210   7.340  19.979  0.00  0.00    +0.000 S 
BRANCH  12  14
ATOM     14  C   UNL     1       0.539   9.275  21.271  0.00  0.00    +0.000 C 
ATOM     15  C   UNL     1       0.013  10.710  21.028  0.00  0.00    +0.000 C 
ATOM     16  C   UNL     1      -0.664   8.372  21.586  0.00  0.00    +0.000 C 
ATOM     17  C   UNL     1       1.489   9.326  22.479  0.00  0.00    +0.000 C 
ENDBRANCH  12  14
ENDBRANCH   4   9
BRANCH   1  18
ATOM     18  C   UNL     1       1.060   2.976  19.297  0.00  0.00    +0.000 C 
BRANCH  18  20
ATOM     19  C   UNL     1       1.478   2.825  21.606  0.00  0.00    +0.000 C 
ATOM     20  O   UNL     1       1.292   2.099  20.400  0.00  0.00    +0.000 OA
ENDBRANCH  18  20
ENDBRANCH   1  18
TORSDOF 4
ENDMDL
MODEL 7
REMARK VINA RESULT:      -5.9      2.436      4.397
REMARK  Name = 
REMARK  8 active torsions:
REMARK  status: ('A' for Active; 'I' for Inactive)
REMARK    1  A    between atoms: C_1  and  O_2
REMARK    2  A    between atoms: O_2  and  C_3
REMARK    3  A    between atoms: C_3  and  C_4
REMARK    4  A    between atoms: C_7  and  C_9
REMARK    5  A    between atoms: C_12  and  C_13
REMARK    6  A    between atoms: C_13  and  C_14
REMARK    7  A    between atoms: C_13  and  C_15
REMARK    8  A    between atoms: C_13  and  C_16
REMARK                            x       y       z     vdW  Elec       q    Type
REMARK                         _______ _______ _______ _____ _____    ______ ____
ROOT
ATOM      1  C   UNL     1       6.082   6.237  17.241  0.00  0.00    +0.000 C 
ATOM      2  C   UNL     1       5.366   5.258  18.194  0.00  0.00    +0.000 C 
ATOM      3  N   UNL     1       4.278   4.603  17.470  0.00  0.00    +0.000 N 
ATOM      4  C   UNL     1       2.918   4.595  17.803  0.00  0.00    +0.000 C 
ATOM      5  O   UNL     1       2.133   3.882  17.170  0.00  0.00    +0.000 OA
ATOM      6  C   UNL     1       4.763   3.879  16.288  0.00  0.00    +0.000 C 
ATOM      7  C   UNL     1       5.584   4.822  15.395  0.00  0.00    +0.000 C 
ATOM      8  O   UNL     1       6.632   5.469  16.142  0.00  0.00    +0.000 OA
ENDROOT
BRANCH   4   9
ATOM      9  C   UNL     1       2.469   5.455  18.891  0.00  0.00    +0.000 A 
ATOM     10  C   UNL     1       2.254   5.174  20.221  0.00  0.00    +0.000 A 
ATOM     11  N   UNL     1       1.705   6.183  20.978  0.00  0.00    +0.000 NA
ATOM     12  C   UNL     1       1.618   7.292  20.269  0.00  0.00    +0.000 A 
ATOM     13  S   UNL     1       2.186   7.132  18.641  0.00  0.00    +0.000 S 
BRANCH  12  14
ATOM     14  C   UNL     1       1.060   8.591  20.834  0.00  0.00    +0.000 C 
ATOM     15  C   UNL     1      -0.396   8.358  21.305  0.00  0.00    +0.000 C 
ATOM     16  C   UNL     1       1.888   9.046  22.047  0.00  0.00    +0.000 C 
ATOM     17  C   UNL     1       1.034   9.700  19.769  0.00  0.00    +0.000 C 
ENDBRANCH  12  14
ENDBRANCH   4   9
BRANCH   1  18
ATOM     18  C   UNL     1       7.204   6.954  17.997  0.00  0.00    +0.000 C 
BRANCH  18  20
ATOM     19  C   UNL     1       8.115   9.117  17.868  0.00  0.00    +0.000 C 
ATOM     20  O   UNL     1       7.819   7.927  17.153  0.00  0.00    +0.000 OA
ENDBRANCH  18  20
ENDBRANCH   1  18
TORSDOF 4
ENDMDL
MODEL 8
REMARK VINA RESULT:      -5.8      3.670      7.244
REMARK  Name = 
REMARK  8 active torsions:
REMARK  status: ('A' for Active; 'I' for Inactive)
REMARK    1  A    between atoms: C_1  and  O_2
REMARK    2  A    between atoms: O_2  and  C_3
REMARK    3  A    between atoms: C_3  and  C_4
REMARK    4  A    between atoms: C_7  and  C_9
REMARK    5  A    between atoms: C_12  and  C_13
REMARK    6  A    between atoms: C_13  and  C_14
REMARK    7  A    between atoms: C_13  and  C_15
REMARK    8  A    between atoms: C_13  and  C_16
REMARK                            x       y       z     vdW  Elec       q    Type
REMARK                         _______ _______ _______ _____ _____    ______ ____
ROOT
ATOM      1  C   UNL     1      -1.486  10.671  17.629  0.00  0.00    +0.000 C 
ATOM      2  C   UNL     1      -1.366  10.092  19.053  0.00  0.00    +0.000 C 
ATOM      3  N   UNL     1      -0.446  10.925  19.827  0.00  0.00    +0.000 N 
ATOM      4  C   UNL     1       0.727  10.519  20.476  0.00  0.00    +0.000 C 
ATOM      5  O   UNL     1       1.331  11.310  21.207  0.00  0.00    +0.000 OA
ATOM      6  C   UNL     1      -0.894  12.321  19.896  0.00  0.00    +0.000 C 
ATOM      7  C   UNL     1      -1.135  12.864  18.478  0.00  0.00    +0.000 C 
ATOM      8  O   UNL     1      -2.026  12.011  17.735  0.00  0.00    +0.000 OA
ENDROOT
BRANCH   4   9
ATOM      9  C   UNL     1       1.209   9.162  20.248  0.00  0.00    +0.000 A 
ATOM     10  C   UNL     1       1.113   8.036  21.033  0.00  0.00    +0.000 A 
ATOM     11  N   UNL     1       1.786   6.923  20.588  0.00  0.00    +0.000 NA
ATOM     12  C   UNL     1       2.293   7.141  19.390  0.00  0.00    +0.000 A 
ATOM     13  S   UNL     1       1.982   8.730  18.774  0.00  0.00    +0.000 S 
BRANCH  12  14
ATOM     14  C   UNL     1       3.086   6.090  18.625  0.00  0.00    +0.000 C 
ATOM     15  C   UNL     1       2.107   5.067  18.002  0.00  0.00    +0.000 C 
ATOM     16  C   UNL     1       3.884   6.746  17.486  0.00  0.00    +0.000 C 
ATOM     17  C   UNL     1       4.036   5.319  19.556  0.00  0.00    +0.000 C 
ENDBRANCH  12  14
ENDBRANCH   4   9
BRANCH   1  18
ATOM     18  C   UNL     1      -2.422   9.788  16.799  0.00  0.00    +0.000 C 
BRANCH  18  20
ATOM     19  C   UNL     1      -3.099  10.174  14.581  0.00  0.00    +0.000 C 
ATOM     20  O   UNL     1      -3.215  10.599  15.930  0.00  0.00    +0.000 OA
ENDBRANCH  18  20
ENDBRANCH   1  18
TORSDOF 4
ENDMDL
MODEL 9
REMARK VINA RESULT:      -5.8      3.683      7.393
REMARK  Name = 
REMARK  8 active torsions:
REMARK  status: ('A' for Active; 'I' for Inactive)
REMARK    1  A    between atoms: C_1  and  O_2
REMARK    2  A    between atoms: O_2  and  C_3
REMARK    3  A    between atoms: C_3  and  C_4
REMARK    4  A    between atoms: C_7  and  C_9
REMARK    5  A    between atoms: C_12  and  C_13
REMARK    6  A    between atoms: C_13  and  C_14
REMARK    7  A    between atoms: C_13  and  C_15
REMARK    8  A    between atoms: C_13  and  C_16
REMARK                            x       y       z     vdW  Elec       q    Type
REMARK                         _______ _______ _______ _____ _____    ______ ____
ROOT
ATOM      1  C   UNL     1      -1.653  10.783  17.621  0.00  0.00    +0.000 C 
ATOM      2  C   UNL     1      -1.396   9.943  18.890  0.00  0.00    +0.000 C 
ATOM      3  N   UNL     1      -0.579  10.724  19.817  0.00  0.00    +0.000 N 
ATOM      4  C   UNL     1       0.664  10.372  20.357  0.00  0.00    +0.000 C 
ATOM      5  O   UNL     1       1.174  11.073  21.236  0.00  0.00    +0.000 OA
ATOM      6  C   UNL     1      -1.222  11.991  20.184  0.00  0.00    +0.000 C 
ATOM      7  C   UNL     1      -1.593  12.777  18.916  0.00  0.00    +0.000 C 
ATOM      8  O   UNL     1      -2.378  11.975  18.014  0.00  0.00    +0.000 OA
ENDROOT
BRANCH   4   9
ATOM      9  C   UNL     1       1.330   9.181  19.843  0.00  0.00    +0.000 A 
ATOM     10  C   UNL     1       1.915   8.943  18.620  0.00  0.00    +0.000 A 
ATOM     11  N   UNL     1       2.355   7.660  18.393  0.00  0.00    +0.000 NA
ATOM     12  C   UNL     1       2.236   6.933  19.488  0.00  0.00    +0.000 A 
ATOM     13  S   UNL     1       1.558   7.793  20.831  0.00  0.00    +0.000 S 
BRANCH  12  14
ATOM     14  C   UNL     1       2.651   5.471  19.557  0.00  0.00    +0.000 C 
ATOM     15  C   UNL     1       2.045   4.712  18.352  0.00  0.00    +0.000 C 
ATOM     16  C   UNL     1       4.181   5.344  19.482  0.00  0.00    +0.000 C 
ATOM     17  C   UNL     1       2.130   4.801  20.840  0.00  0.00    +0.000 C 
ENDBRANCH  12  14
ENDBRANCH   4   9
BRANCH   1  18
ATOM     18  C   UNL     1      -2.482   9.964  16.629  0.00  0.00    +0.000 C 
BRANCH  18  20
ATOM     19  C   UNL     1      -3.223  10.267  14.418  0.00  0.00    +0.000 C 
ATOM     20  O   UNL     1      -3.154  10.835  15.717  0.00  0.00    +0.000 OA
ENDBRANCH  18  20
ENDBRANCH   1  18
TORSDOF 4
ENDMDL
