MODEL 1
REMARK VINA RESULT:      -8.4      0.000      0.000
REMARK  Name = 
REMARK  17 active torsions:
REMARK  status: ('A' for Active; 'I' for Inactive)
REMARK    1  A    between atoms: C_1  and  C_2
REMARK    2  A    between atoms: C_2  and  O_3
REMARK    3  A    between atoms: O_3  and  C_4
REMARK    4  A    between atoms: C_4  and  O_6
REMARK    5  A    between atoms: O_6  and  C_7
REMARK    6  A    between atoms: C_7  and  C_8
REMARK    7  A    between atoms: C_10  and  C_11
REMARK    8  A    between atoms: C_12  and  C_13
REMARK    9  A    between atoms: C_16  and  C_17
REMARK   10  A    between atoms: C_17  and  C_18
REMARK   11  A    between atoms: C_17  and  C_19
REMARK   12  A    between atoms: C_17  and  C_20
REMARK   13  A    between atoms: C_25  and  O_26
REMARK   14  A    between atoms: O_26  and  C_27
REMARK   15  A    between atoms: C_27  and  O_29
REMARK   16  A    between atoms: O_29  and  C_30
REMARK   17  A    between atoms: C_30  and  C_31
REMARK                            x       y       z     vdW  Elec       q    Type
REMARK                         _______ _______ _______ _____ _____    ______ ____
ROOT
ATOM      1  C   UNL     1       5.206   6.331  17.261  0.00  0.00    +0.000 C 
ATOM      2  O   UNL     1       6.290   7.246  17.064  0.00  0.00    +0.000 OA
ATOM      3  C   UNL     1       7.603   6.954  17.583  0.00  0.00    +0.000 C 
ATOM      4  C   UNL     1       7.589   6.048  18.774  0.00  0.00    +0.000 C 
ATOM      5  C   UNL     1       6.484   5.461  19.261  0.00  0.00    +0.000 C 
ATOM      6  C   UNL     1       5.126   5.739  18.687  0.00  0.00    +0.000 C 
ENDROOT
BRANCH   3   7
ATOM      7  C   UNL     1       8.104   8.347  17.932  0.00  0.00    +0.000 C 
ATOM      8  C   UNL     1       8.533   9.541  18.231  0.00  0.00    +0.000 C 
BRANCH   8   9
ATOM      9  C   UNL     1       9.038  10.850  18.494  0.00  0.00    +0.000 A 
ATOM     10  C   UNL     1       8.626  11.911  17.695  0.00  0.00    +0.000 A 
ATOM     11  C   UNL     1       9.199  13.176  17.856  0.00  0.00    +0.000 A 
ATOM     12  C   UNL     1      10.202  13.411  18.811  0.00  0.00    +0.000 A 
ATOM     13  C   UNL     1      10.549  12.339  19.657  0.00  0.00    +0.000 A 
ATOM     14  C   UNL     1       9.976  11.070  19.499  0.00  0.00    +0.000 A 
BRANCH  12  15
ATOM     15  C   UNL     1      10.945  14.756  18.902  0.00  0.00    +0.000 C 
ATOM     16  C   UNL     1      11.161  15.236  20.356  0.00  0.00    +0.000 C 
ATOM     17  C   UNL     1      12.332  14.657  18.235  0.00  0.00    +0.000 C 
ATOM     18  C   UNL     1      10.122  15.851  18.186  0.00  0.00    +0.000 C 
ENDBRANCH  12  15
ENDBRANCH   8   9
ENDBRANCH   3   7
BRANCH   1  19
ATOM     19  C   UNL     1       5.146   5.325  16.099  0.00  0.00    +0.000 C 
BRANCH  19  20
ATOM     20  O   UNL     1       5.806   5.856  14.921  0.00  0.00    +0.000 OA
BRANCH  20  21
ATOM     21  C   UNL     1       6.842   5.112  14.453  0.00  0.00    +0.000 C 
ATOM     22  O   UNL     1       7.979   5.524  14.262  0.00  0.00    +0.000 OA
BRANCH  21  23
ATOM     23  O   UNL     1       6.409   3.846  14.225  0.00  0.00    +0.000 OA
BRANCH  23  25
ATOM     24  C   UNL     1       6.700   3.118  11.924  0.00  0.00    +0.000 C 
ATOM     25  C   UNL     1       5.734   3.638  12.974  0.00  0.00    +0.000 C 
ENDBRANCH  23  25
ENDBRANCH  21  23
ENDBRANCH  20  21
ENDBRANCH  19  20
ENDBRANCH   1  19
BRANCH   6  26
ATOM     26  O   UNL     1       4.354   4.528  18.698  0.00  0.00    +0.000 OA
BRANCH  26  27
ATOM     27  C   UNL     1       3.112   4.622  19.233  0.00  0.00    +0.000 C 
ATOM     28  O   UNL     1       2.845   4.812  20.408  0.00  0.00    +0.000 OA
BRANCH  27  29
ATOM     29  O   UNL     1       2.198   4.468  18.236  0.00  0.00    +0.000 OA
BRANCH  29  30
ATOM     30  C   UNL     1       1.431   3.251  18.269  0.00  0.00    +0.000 C 
ATOM     31  C   UNL     1       2.278   2.045  17.898  0.00  0.00    +0.000 C 
ENDBRANCH  29  30
ENDBRANCH  27  29
ENDBRANCH  26  27
ENDBRANCH   6  26
TORSDOF 12
ENDMDL
MODEL 2
REMARK VINA RESULT:      -8.3      1.114      1.644
REMARK  Name = 
REMARK  17 active torsions:
REMARK  status: ('A' for Active; 'I' for Inactive)
REMARK    1  A    between atoms: C_1  and  C_2
REMARK    2  A    between atoms: C_2  and  O_3
REMARK    3  A    between atoms: O_3  and  C_4
REMARK    4  A    between atoms: C_4  and  O_6
REMARK    5  A    between atoms: O_6  and  C_7
REMARK    6  A    between atoms: C_7  and  C_8
REMARK    7  A    between atoms: C_10  and  C_11
REMARK    8  A    between atoms: C_12  and  C_13
REMARK    9  A    between atoms: C_16  and  C_17
REMARK   10  A    between atoms: C_17  and  C_18
REMARK   11  A    between atoms: C_17  and  C_19
REMARK   12  A    between atoms: C_17  and  C_20
REMARK   13  A    between atoms: C_25  and  O_26
REMARK   14  A    between atoms: O_26  and  C_27
REMARK   15  A    between atoms: C_27  and  O_29
REMARK   16  A    between atoms: O_29  and  C_30
REMARK   17  A    between atoms: C_30  and  C_31
REMARK                            x       y       z     vdW  Elec       q    Type
REMARK                         _______ _______ _______ _____ _____    ______ ____
ROOT
ATOM      1  C   UNL     1       5.098   6.561  17.491  0.00  0.00    +0.000 C 
ATOM      2  O   UNL     1       6.224   7.423  17.287  0.00  0.00    +0.000 OA
ATOM      3  C   UNL     1       7.550   7.003  17.663  0.00  0.00    +0.000 C 
ATOM      4  C   UNL     1       7.568   5.989  18.764  0.00  0.00    +0.000 C 
ATOM      5  C   UNL     1       6.467   5.426  19.288  0.00  0.00    +0.000 C 
ATOM      6  C   UNL     1       5.090   5.840  18.859  0.00  0.00    +0.000 C 
ENDROOT
BRANCH   3   7
ATOM      7  C   UNL     1       8.172   8.323  18.093  0.00  0.00    +0.000 C 
ATOM      8  C   UNL     1       8.705   9.454  18.462  0.00  0.00    +0.000 C 
BRANCH   8   9
ATOM      9  C   UNL     1       9.222  10.714  18.887  0.00  0.00    +0.000 A 
ATOM     10  C   UNL     1       9.417  10.946  20.245  0.00  0.00    +0.000 A 
ATOM     11  C   UNL     1       9.806  12.212  20.692  0.00  0.00    +0.000 A 
ATOM     12  C   UNL     1      10.000  13.279  19.799  0.00  0.00    +0.000 A 
ATOM     13  C   UNL     1       9.868  12.999  18.424  0.00  0.00    +0.000 A 
ATOM     14  C   UNL     1       9.479  11.732  17.972  0.00  0.00    +0.000 A 
BRANCH  12  15
ATOM     15  C   UNL     1      10.284  14.712  20.286  0.00  0.00    +0.000 C 
ATOM     16  C   UNL     1       9.355  15.768  19.645  0.00  0.00    +0.000 C 
ATOM     17  C   UNL     1      10.114  14.809  21.815  0.00  0.00    +0.000 C 
ATOM     18  C   UNL     1      11.732  15.106  19.916  0.00  0.00    +0.000 C 
ENDBRANCH  12  15
ENDBRANCH   8   9
ENDBRANCH   3   7
BRANCH   1  19
ATOM     19  C   UNL     1       4.877   5.677  16.252  0.00  0.00    +0.000 C 
BRANCH  19  20
ATOM     20  O   UNL     1       5.987   5.798  15.326  0.00  0.00    +0.000 OA
BRANCH  20  21
ATOM     21  C   UNL     1       6.714   4.665  15.142  0.00  0.00    +0.000 C 
ATOM     22  O   UNL     1       7.787   4.419  15.676  0.00  0.00    +0.000 OA
BRANCH  21  23
ATOM     23  O   UNL     1       6.062   3.861  14.264  0.00  0.00    +0.000 OA
BRANCH  23  25
ATOM     24  C   UNL     1       5.693   3.011  12.018  0.00  0.00    +0.000 C 
ATOM     25  C   UNL     1       6.504   3.943  12.901  0.00  0.00    +0.000 C 
ENDBRANCH  23  25
ENDBRANCH  21  23
ENDBRANCH  20  21
ENDBRANCH  19  20
ENDBRANCH   1  19
BRANCH   6  26
ATOM     26  O   UNL     1       4.241   4.684  18.826  0.00  0.00    +0.000 OA
BRANCH  26  27
ATOM     27  C   UNL     1       3.085   4.777  19.529  0.00  0.00    +0.000 C 
ATOM     28  O   UNL     1       2.637   5.785  20.051  0.00  0.00    +0.000 OA
BRANCH  27  29
ATOM     29  O   UNL     1       2.496   3.549  19.560  0.00  0.00    +0.000 OA
BRANCH  29  30
ATOM     30  C   UNL     1       1.258   3.464  20.287  0.00  0.00    +0.000 C 
ATOM     31  C   UNL     1       1.419   2.684  21.580  0.00  0.00    +0.000 C 
ENDBRANCH  29  30
ENDBRANCH  27  29
ENDBRANCH  26  27
ENDBRANCH   6  26
TORSDOF 12
ENDMDL
MODEL 3
REMARK VINA RESULT:      -8.3      1.076      1.764
REMARK  Name = 
REMARK  17 active torsions:
REMARK  status: ('A' for Active; 'I' for Inactive)
REMARK    1  A    between atoms: C_1  and  C_2
REMARK    2  A    between atoms: C_2  and  O_3
REMARK    3  A    between atoms: O_3  and  C_4
REMARK    4  A    between atoms: C_4  and  O_6
REMARK    5  A    between atoms: O_6  and  C_7
REMARK    6  A    between atoms: C_7  and  C_8
REMARK    7  A    between atoms: C_10  and  C_11
REMARK    8  A    between atoms: C_12  and  C_13
REMARK    9  A    between atoms: C_16  and  C_17
REMARK   10  A    between atoms: C_17  and  C_18
REMARK   11  A    between atoms: C_17  and  C_19
REMARK   12  A    between atoms: C_17  and  C_20
REMARK   13  A    between atoms: C_25  and  O_26
REMARK   14  A    between atoms: O_26  and  C_27
REMARK   15  A    between atoms: C_27  and  O_29
REMARK   16  A    between atoms: O_29  and  C_30
REMARK   17  A    between atoms: C_30  and  C_31
REMARK                            x       y       z     vdW  Elec       q    Type
REMARK                         _______ _______ _______ _____ _____    ______ ____
ROOT
ATOM      1  C   UNL     1       5.188   6.324  17.533  0.00  0.00    +0.000 C 
ATOM      2  O   UNL     1       6.269   7.239  17.327  0.00  0.00    +0.000 OA
ATOM      3  C   UNL     1       7.614   6.890  17.712  0.00  0.00    +0.000 C 
ATOM      4  C   UNL     1       7.678   5.886  18.820  0.00  0.00    +0.000 C 
ATOM      5  C   UNL     1       6.605   5.272  19.344  0.00  0.00    +0.000 C 
ATOM      6  C   UNL     1       5.210   5.613  18.907  0.00  0.00    +0.000 C 
ENDROOT
BRANCH   3   7
ATOM      7  C   UNL     1       8.166   8.242  18.135  0.00  0.00    +0.000 C 
ATOM      8  C   UNL     1       8.640   9.402  18.497  0.00  0.00    +0.000 C 
BRANCH   8   9
ATOM      9  C   UNL     1       9.225  10.643  18.888  0.00  0.00    +0.000 A 
ATOM     10  C   UNL     1       9.390  10.920  20.241  0.00  0.00    +0.000 A 
ATOM     11  C   UNL     1       9.848  12.176  20.650  0.00  0.00    +0.000 A 
ATOM     12  C   UNL     1      10.143  13.188  19.721  0.00  0.00    +0.000 A 
ATOM     13  C   UNL     1      10.039  12.858  18.355  0.00  0.00    +0.000 A 
ATOM     14  C   UNL     1       9.581  11.600  17.941  0.00  0.00    +0.000 A 
BRANCH  12  15
ATOM     15  C   UNL     1      10.505  14.619  20.159  0.00  0.00    +0.000 C 
ATOM     16  C   UNL     1      10.368  14.843  21.682  0.00  0.00    +0.000 C 
ATOM     17  C   UNL     1      11.959  14.954  19.769  0.00  0.00    +0.000 C 
ATOM     18  C   UNL     1       9.556  15.626  19.471  0.00  0.00    +0.000 C 
ENDBRANCH  12  15
ENDBRANCH   8   9
ENDBRANCH   3   7
BRANCH   1  19
ATOM     19  C   UNL     1       5.017   5.421  16.300  0.00  0.00    +0.000 C 
BRANCH  19  20
ATOM     20  O   UNL     1       5.718   5.972  15.156  0.00  0.00    +0.000 OA
BRANCH  20  21
ATOM     21  C   UNL     1       6.544   5.107  14.511  0.00  0.00    +0.000 C 
ATOM     22  O   UNL     1       7.739   5.282  14.318  0.00  0.00    +0.000 OA
BRANCH  21  23
ATOM     23  O   UNL     1       5.826   4.027  14.110  0.00  0.00    +0.000 OA
BRANCH  23  25
ATOM     24  C   UNL     1       5.022   3.338  11.923  0.00  0.00    +0.000 C 
ATOM     25  C   UNL     1       6.216   3.454  12.853  0.00  0.00    +0.000 C 
ENDBRANCH  23  25
ENDBRANCH  21  23
ENDBRANCH  20  21
ENDBRANCH  19  20
ENDBRANCH   1  19
BRANCH   6  26
ATOM     26  O   UNL     1       4.420   4.415  18.879  0.00  0.00    +0.000 OA
BRANCH  26  27
ATOM     27  C   UNL     1       3.143   4.536  19.319  0.00  0.00    +0.000 C 
ATOM     28  O   UNL     1       2.242   3.732  19.148  0.00  0.00    +0.000 OA
BRANCH  27  29
ATOM     29  O   UNL     1       3.026   5.715  19.989  0.00  0.00    +0.000 OA
BRANCH  29  30
ATOM     30  C   UNL     1       1.741   5.978  20.580  0.00  0.00    +0.000 C 
ATOM     31  C   UNL     1       1.506   7.466  20.772  0.00  0.00    +0.000 C 
ENDBRANCH  29  30
ENDBRANCH  27  29
ENDBRANCH  26  27
ENDBRANCH   6  26
TORSDOF 12
ENDMDL
MODEL 4
REMARK VINA RESULT:      -8.2      0.785      1.305
REMARK  Name = 
REMARK  17 active torsions:
REMARK  status: ('A' for Active; 'I' for Inactive)
REMARK    1  A    between atoms: C_1  and  C_2
REMARK    2  A    between atoms: C_2  and  O_3
REMARK    3  A    between atoms: O_3  and  C_4
REMARK    4  A    between atoms: C_4  and  O_6
REMARK    5  A    between atoms: O_6  and  C_7
REMARK    6  A    between atoms: C_7  and  C_8
REMARK    7  A    between atoms: C_10  and  C_11
REMARK    8  A    between atoms: C_12  and  C_13
REMARK    9  A    between atoms: C_16  and  C_17
REMARK   10  A    between atoms: C_17  and  C_18
REMARK   11  A    between atoms: C_17  and  C_19
REMARK   12  A    between atoms: C_17  and  C_20
REMARK   13  A    between atoms: C_25  and  O_26
REMARK   14  A    between atoms: O_26  and  C_27
REMARK   15  A    between atoms: C_27  and  O_29
REMARK   16  A    between atoms: O_29  and  C_30
REMARK   17  A    between atoms: C_30  and  C_31
REMARK                            x       y       z     vdW  Elec       q    Type
REMARK                         _______ _______ _______ _____ _____    ______ ____
ROOT
ATOM      1  C   UNL     1       5.169   6.100  17.626  0.00  0.00    +0.000 C 
ATOM      2  O   UNL     1       6.192   7.047  17.298  0.00  0.00    +0.000 OA
ATOM      3  C   UNL     1       7.569   6.793  17.641  0.00  0.00    +0.000 C 
ATOM      4  C   UNL     1       7.735   5.883  18.818  0.00  0.00    +0.000 C 
ATOM      5  C   UNL     1       6.720   5.262  19.440  0.00  0.00    +0.000 C 
ATOM      6  C   UNL     1       5.291   5.501  19.047  0.00  0.00    +0.000 C 
ENDROOT
BRANCH   3   7
ATOM      7  C   UNL     1       8.069   8.199  17.931  0.00  0.00    +0.000 C 
ATOM      8  C   UNL     1       8.498   9.405  18.180  0.00  0.00    +0.000 C 
BRANCH   8   9
ATOM      9  C   UNL     1       8.972  10.736  18.381  0.00  0.00    +0.000 A 
ATOM     10  C   UNL     1       9.913  10.980  19.375  0.00  0.00    +0.000 A 
ATOM     11  C   UNL     1      10.300  12.291  19.671  0.00  0.00    +0.000 A 
ATOM     12  C   UNL     1       9.750  13.389  18.989  0.00  0.00    +0.000 A 
ATOM     13  C   UNL     1       8.855  13.111  17.936  0.00  0.00    +0.000 A 
ATOM     14  C   UNL     1       8.466  11.799  17.637  0.00  0.00    +0.000 A 
BRANCH  12  15
ATOM     15  C   UNL     1      10.054  14.842  19.400  0.00  0.00    +0.000 C 
ATOM     16  C   UNL     1       8.848  15.554  20.056  0.00  0.00    +0.000 C 
ATOM     17  C   UNL     1      11.223  14.889  20.402  0.00  0.00    +0.000 C 
ATOM     18  C   UNL     1      10.432  15.665  18.147  0.00  0.00    +0.000 C 
ENDBRANCH  12  15
ENDBRANCH   8   9
ENDBRANCH   3   7
BRANCH   1  19
ATOM     19  C   UNL     1       4.989   5.095  16.476  0.00  0.00    +0.000 C 
BRANCH  19  20
ATOM     20  O   UNL     1       5.339   5.698  15.204  0.00  0.00    +0.000 OA
BRANCH  20  21
ATOM     21  C   UNL     1       6.241   5.003  14.462  0.00  0.00    +0.000 C 
ATOM     22  O   UNL     1       7.456   5.127  14.527  0.00  0.00    +0.000 OA
BRANCH  21  23
ATOM     23  O   UNL     1       5.573   4.160  13.634  0.00  0.00    +0.000 OA
BRANCH  23  25
ATOM     24  C   UNL     1       5.528   2.574  11.793  0.00  0.00    +0.000 C 
ATOM     25  C   UNL     1       6.358   3.566  12.588  0.00  0.00    +0.000 C 
ENDBRANCH  23  25
ENDBRANCH  21  23
ENDBRANCH  20  21
ENDBRANCH  19  20
ENDBRANCH   1  19
BRANCH   6  26
ATOM     26  O   UNL     1       4.563   4.268  19.150  0.00  0.00    +0.000 OA
BRANCH  26  27
ATOM     27  C   UNL     1       3.345   4.346  19.740  0.00  0.00    +0.000 C 
ATOM     28  O   UNL     1       2.934   5.266  20.429  0.00  0.00    +0.000 OA
BRANCH  27  29
ATOM     29  O   UNL     1       2.643   3.220  19.437  0.00  0.00    +0.000 OA
BRANCH  29  30
ATOM     30  C   UNL     1       2.190   3.109  18.076  0.00  0.00    +0.000 C 
ATOM     31  C   UNL     1       1.531   4.392  17.598  0.00  0.00    +0.000 C 
ENDBRANCH  29  30
ENDBRANCH  27  29
ENDBRANCH  26  27
ENDBRANCH   6  26
TORSDOF 12
ENDMDL
MODEL 5
REMARK VINA RESULT:      -8.1      0.778      1.393
REMARK  Name = 
REMARK  17 active torsions:
REMARK  status: ('A' for Active; 'I' for Inactive)
REMARK    1  A    between atoms: C_1  and  C_2
REMARK    2  A    between atoms: C_2  and  O_3
REMARK    3  A    between atoms: O_3  and  C_4
REMARK    4  A    between atoms: C_4  and  O_6
REMARK    5  A    between atoms: O_6  and  C_7
REMARK    6  A    between atoms: C_7  and  C_8
REMARK    7  A    between atoms: C_10  and  C_11
REMARK    8  A    between atoms: C_12  and  C_13
REMARK    9  A    between atoms: C_16  and  C_17
REMARK   10  A    between atoms: C_17  and  C_18
REMARK   11  A    between atoms: C_17  and  C_19
REMARK   12  A    between atoms: C_17  and  C_20
REMARK   13  A    between atoms: C_25  and  O_26
REMARK   14  A    between atoms: O_26  and  C_27
REMARK   15  A    between atoms: C_27  and  O_29
REMARK   16  A    between atoms: O_29  and  C_30
REMARK   17  A    between atoms: C_30  and  C_31
REMARK                            x       y       z     vdW  Elec       q    Type
REMARK                         _______ _______ _______ _____ _____    ______ ____
ROOT
ATOM      1  C   UNL     1       5.181   6.268  17.453  0.00  0.00    +0.000 C 
ATOM      2  O   UNL     1       6.254   7.183  17.204  0.00  0.00    +0.000 OA
ATOM      3  C   UNL     1       7.596   6.881  17.634  0.00  0.00    +0.000 C 
ATOM      4  C   UNL     1       7.654   5.955  18.809  0.00  0.00    +0.000 C 
ATOM      5  C   UNL     1       6.580   5.362  19.355  0.00  0.00    +0.000 C 
ATOM      6  C   UNL     1       5.189   5.652  18.872  0.00  0.00    +0.000 C 
ENDROOT
BRANCH   3   7
ATOM      7  C   UNL     1       8.122   8.267  17.974  0.00  0.00    +0.000 C 
ATOM      8  C   UNL     1       8.572   9.455  18.264  0.00  0.00    +0.000 C 
BRANCH   8   9
ATOM      9  C   UNL     1       9.123  10.724  18.615  0.00  0.00    +0.000 A 
ATOM     10  C   UNL     1       9.945  10.824  19.733  0.00  0.00    +0.000 A 
ATOM     11  C   UNL     1      10.395  12.074  20.165  0.00  0.00    +0.000 A 
ATOM     12  C   UNL     1      10.030  13.256  19.499  0.00  0.00    +0.000 A 
ATOM     13  C   UNL     1       9.259  13.123  18.327  0.00  0.00    +0.000 A 
ATOM     14  C   UNL     1       8.806  11.871  17.891  0.00  0.00    +0.000 A 
BRANCH  12  15
ATOM     15  C   UNL     1      10.395  14.648  20.046  0.00  0.00    +0.000 C 
ATOM     16  C   UNL     1      11.878  15.021  19.821  0.00  0.00    +0.000 C 
ATOM     17  C   UNL     1       9.535  15.738  19.375  0.00  0.00    +0.000 C 
ATOM     18  C   UNL     1      10.151  14.685  21.572  0.00  0.00    +0.000 C 
ENDBRANCH  12  15
ENDBRANCH   8   9
ENDBRANCH   3   7
BRANCH   1  19
ATOM     19  C   UNL     1       5.045   5.281  16.281  0.00  0.00    +0.000 C 
BRANCH  19  20
ATOM     20  O   UNL     1       6.269   4.525  16.098  0.00  0.00    +0.000 OA
BRANCH  20  21
ATOM     21  C   UNL     1       6.761   4.516  14.831  0.00  0.00    +0.000 C 
ATOM     22  O   UNL     1       7.550   5.331  14.373  0.00  0.00    +0.000 OA
BRANCH  21  23
ATOM     23  O   UNL     1       6.227   3.465  14.159  0.00  0.00    +0.000 OA
BRANCH  23  25
ATOM     24  C   UNL     1       6.696   2.940  11.833  0.00  0.00    +0.000 C 
ATOM     25  C   UNL     1       5.835   3.730  12.803  0.00  0.00    +0.000 C 
ENDBRANCH  23  25
ENDBRANCH  21  23
ENDBRANCH  20  21
ENDBRANCH  19  20
ENDBRANCH   1  19
BRANCH   6  26
ATOM     26  O   UNL     1       4.416   4.443  18.912  0.00  0.00    +0.000 OA
BRANCH  26  27
ATOM     27  C   UNL     1       3.167   4.554  19.428  0.00  0.00    +0.000 C 
ATOM     28  O   UNL     1       2.822   5.304  20.326  0.00  0.00    +0.000 OA
BRANCH  27  29
ATOM     29  O   UNL     1       2.349   3.685  18.773  0.00  0.00    +0.000 OA
BRANCH  29  30
ATOM     30  C   UNL     1       2.420   2.313  19.200  0.00  0.00    +0.000 C 
ATOM     31  C   UNL     1       3.389   1.510  18.350  0.00  0.00    +0.000 C 
ENDBRANCH  29  30
ENDBRANCH  27  29
ENDBRANCH  26  27
ENDBRANCH   6  26
TORSDOF 12
ENDMDL
MODEL 6
REMARK VINA RESULT:      -8.0      1.061      1.878
REMARK  Name = 
REMARK  17 active torsions:
REMARK  status: ('A' for Active; 'I' for Inactive)
REMARK    1  A    between atoms: C_1  and  C_2
REMARK    2  A    between atoms: C_2  and  O_3
REMARK    3  A    between atoms: O_3  and  C_4
REMARK    4  A    between atoms: C_4  and  O_6
REMARK    5  A    between atoms: O_6  and  C_7
REMARK    6  A    between atoms: C_7  and  C_8
REMARK    7  A    between atoms: C_10  and  C_11
REMARK    8  A    between atoms: C_12  and  C_13
REMARK    9  A    between atoms: C_16  and  C_17
REMARK   10  A    between atoms: C_17  and  C_18
REMARK   11  A    between atoms: C_17  and  C_19
REMARK   12  A    between atoms: C_17  and  C_20
REMARK   13  A    between atoms: C_25  and  O_26
REMARK   14  A    between atoms: O_26  and  C_27
REMARK   15  A    between atoms: C_27  and  O_29
REMARK   16  A    between atoms: O_29  and  C_30
REMARK   17  A    between atoms: C_30  and  C_31
REMARK                            x       y       z     vdW  Elec       q    Type
REMARK                         _______ _______ _______ _____ _____    ______ ____
ROOT
ATOM      1  C   UNL     1       5.265   6.431  17.123  0.00  0.00    +0.000 C 
ATOM      2  O   UNL     1       6.366   7.339  17.008  0.00  0.00    +0.000 OA
ATOM      3  C   UNL     1       7.666   6.990  17.524  0.00  0.00    +0.000 C 
ATOM      4  C   UNL     1       7.620   6.001  18.647  0.00  0.00    +0.000 C 
ATOM      5  C   UNL     1       6.498   5.399  19.075  0.00  0.00    +0.000 C 
ATOM      6  C   UNL     1       5.154   5.739  18.502  0.00  0.00    +0.000 C 
ENDROOT
BRANCH   3   7
ATOM      7  C   UNL     1       8.183   8.346  17.979  0.00  0.00    +0.000 C 
ATOM      8  C   UNL     1       8.625   9.509  18.369  0.00  0.00    +0.000 C 
BRANCH   8   9
ATOM      9  C   UNL     1       9.178  10.755  18.791  0.00  0.00    +0.000 A 
ATOM     10  C   UNL     1       9.548  10.918  20.122  0.00  0.00    +0.000 A 
ATOM     11  C   UNL     1       9.976  12.166  20.584  0.00  0.00    +0.000 A 
ATOM     12  C   UNL     1      10.037  13.283  19.733  0.00  0.00    +0.000 A 
ATOM     13  C   UNL     1       9.729  13.073  18.374  0.00  0.00    +0.000 A 
ATOM     14  C   UNL     1       9.299  11.824  17.907  0.00  0.00    +0.000 A 
BRANCH  12  15
ATOM     15  C   UNL     1      10.364  14.693  20.257  0.00  0.00    +0.000 C 
ATOM     16  C   UNL     1      11.812  15.137  19.947  0.00  0.00    +0.000 C 
ATOM     17  C   UNL     1       9.414  15.736  19.637  0.00  0.00    +0.000 C 
ATOM     18  C   UNL     1      10.207  14.722  21.795  0.00  0.00    +0.000 C 
ENDBRANCH  12  15
ENDBRANCH   8   9
ENDBRANCH   3   7
BRANCH   1  19
ATOM     19  C   UNL     1       5.208   5.511  15.891  0.00  0.00    +0.000 C 
BRANCH  19  20
ATOM     20  O   UNL     1       6.479   4.844  15.685  0.00  0.00    +0.000 OA
BRANCH  20  21
ATOM     21  C   UNL     1       6.903   4.789  14.395  0.00  0.00    +0.000 C 
ATOM     22  O   UNL     1       7.865   5.393  13.941  0.00  0.00    +0.000 OA
BRANCH  21  23
ATOM     23  O   UNL     1       6.081   3.966  13.696  0.00  0.00    +0.000 OA
BRANCH  23  25
ATOM     24  C   UNL     1       5.830   2.468  11.800  0.00  0.00    +0.000 C 
ATOM     25  C   UNL     1       6.434   3.760  12.320  0.00  0.00    +0.000 C 
ENDBRANCH  23  25
ENDBRANCH  21  23
ENDBRANCH  20  21
ENDBRANCH  19  20
ENDBRANCH   1  19
BRANCH   6  26
ATOM     26  O   UNL     1       4.364   4.544  18.415  0.00  0.00    +0.000 OA
BRANCH  26  27
ATOM     27  C   UNL     1       3.317   4.461  19.273  0.00  0.00    +0.000 C 
ATOM     28  O   UNL     1       3.212   3.688  20.211  0.00  0.00    +0.000 OA
BRANCH  27  29
ATOM     29  O   UNL     1       2.389   5.391  18.916  0.00  0.00    +0.000 OA
BRANCH  29  30
ATOM     30  C   UNL     1       2.241   6.507  19.811  0.00  0.00    +0.000 C 
ATOM     31  C   UNL     1       2.116   7.820  19.055  0.00  0.00    +0.000 C 
ENDBRANCH  29  30
ENDBRANCH  27  29
ENDBRANCH  26  27
ENDBRANCH   6  26
TORSDOF 12
ENDMDL
MODEL 7
REMARK VINA RESULT:      -7.8      1.281      1.555
REMARK  Name = 
REMARK  17 active torsions:
REMARK  status: ('A' for Active; 'I' for Inactive)
REMARK    1  A    between atoms: C_1  and  C_2
REMARK    2  A    between atoms: C_2  and  O_3
REMARK    3  A    between atoms: O_3  and  C_4
REMARK    4  A    between atoms: C_4  and  O_6
REMARK    5  A    between atoms: O_6  and  C_7
REMARK    6  A    between atoms: C_7  and  C_8
REMARK    7  A    between atoms: C_10  and  C_11
REMARK    8  A    between atoms: C_12  and  C_13
REMARK    9  A    between atoms: C_16  and  C_17
REMARK   10  A    between atoms: C_17  and  C_18
REMARK   11  A    between atoms: C_17  and  C_19
REMARK   12  A    between atoms: C_17  and  C_20
REMARK   13  A    between atoms: C_25  and  O_26
REMARK   14  A    between atoms: O_26  and  C_27
REMARK   15  A    between atoms: C_27  and  O_29
REMARK   16  A    between atoms: O_29  and  C_30
REMARK   17  A    between atoms: C_30  and  C_31
REMARK                            x       y       z     vdW  Elec       q    Type
REMARK                         _______ _______ _______ _____ _____    ______ ____
ROOT
ATOM      1  C   UNL     1       5.640   5.289  16.368  0.00  0.00    +0.000 C 
ATOM      2  O   UNL     1       6.765   6.150  16.578  0.00  0.00    +0.000 OA
ATOM      3  C   UNL     1       7.554   6.052  17.781  0.00  0.00    +0.000 C 
ATOM      4  C   UNL     1       6.797   5.502  18.950  0.00  0.00    +0.000 C 
ATOM      5  C   UNL     1       5.540   5.034  18.881  0.00  0.00    +0.000 C 
ATOM      6  C   UNL     1       4.742   5.103  17.612  0.00  0.00    +0.000 C 
ENDROOT
BRANCH   3   7
ATOM      7  C   UNL     1       7.958   7.502  17.995  0.00  0.00    +0.000 C 
ATOM      8  C   UNL     1       8.305   8.745  18.178  0.00  0.00    +0.000 C 
BRANCH   8   9
ATOM      9  C   UNL     1       8.694  10.091  18.449  0.00  0.00    +0.000 A 
ATOM     10  C   UNL     1       8.260  11.108  17.605  0.00  0.00    +0.000 A 
ATOM     11  C   UNL     1       8.727  12.414  17.780  0.00  0.00    +0.000 A 
ATOM     12  C   UNL     1       9.644  12.736  18.795  0.00  0.00    +0.000 A 
ATOM     13  C   UNL     1      10.009  11.704  19.682  0.00  0.00    +0.000 A 
ATOM     14  C   UNL     1       9.544  10.394  19.510  0.00  0.00    +0.000 A 
BRANCH  12  15
ATOM     15  C   UNL     1      10.278  14.134  18.909  0.00  0.00    +0.000 C 
ATOM     16  C   UNL     1      11.560  14.152  19.773  0.00  0.00    +0.000 C 
ATOM     17  C   UNL     1      10.650  14.677  17.515  0.00  0.00    +0.000 C 
ATOM     18  C   UNL     1       9.276  15.103  19.575  0.00  0.00    +0.000 C 
ENDBRANCH  12  15
ENDBRANCH   8   9
ENDBRANCH   3   7
BRANCH   1  19
ATOM     19  C   UNL     1       6.085   4.005  15.648  0.00  0.00    +0.000 C 
BRANCH  19  20
ATOM     20  O   UNL     1       5.623   3.996  14.273  0.00  0.00    +0.000 OA
BRANCH  20  21
ATOM     21  C   UNL     1       6.582   4.218  13.337  0.00  0.00    +0.000 C 
ATOM     22  O   UNL     1       7.365   5.158  13.337  0.00  0.00    +0.000 OA
BRANCH  21  23
ATOM     23  O   UNL     1       6.522   3.235  12.403  0.00  0.00    +0.000 OA
BRANCH  23  25
ATOM     24  C   UNL     1       4.395   3.711  11.328  0.00  0.00    +0.000 C 
ATOM     25  C   UNL     1       5.211   2.715  12.134  0.00  0.00    +0.000 C 
ENDBRANCH  23  25
ENDBRANCH  21  23
ENDBRANCH  20  21
ENDBRANCH  19  20
ENDBRANCH   1  19
BRANCH   6  26
ATOM     26  O   UNL     1       3.941   3.917  17.496  0.00  0.00    +0.000 OA
BRANCH  26  27
ATOM     27  C   UNL     1       2.699   3.985  18.035  0.00  0.00    +0.000 C 
ATOM     28  O   UNL     1       1.758   4.630  17.601  0.00  0.00    +0.000 OA
BRANCH  27  29
ATOM     29  O   UNL     1       2.669   3.208  19.153  0.00  0.00    +0.000 OA
BRANCH  29  30
ATOM     30  C   UNL     1       1.361   2.870  19.648  0.00  0.00    +0.000 C 
ATOM     31  C   UNL     1       1.345   2.766  21.163  0.00  0.00    +0.000 C 
ENDBRANCH  29  30
ENDBRANCH  27  29
ENDBRANCH  26  27
ENDBRANCH   6  26
TORSDOF 12
ENDMDL
MODEL 8
REMARK VINA RESULT:      -7.8      1.099      1.778
REMARK  Name = 
REMARK  17 active torsions:
REMARK  status: ('A' for Active; 'I' for Inactive)
REMARK    1  A    between atoms: C_1  and  C_2
REMARK    2  A    between atoms: C_2  and  O_3
REMARK    3  A    between atoms: O_3  and  C_4
REMARK    4  A    between atoms: C_4  and  O_6
REMARK    5  A    between atoms: O_6  and  C_7
REMARK    6  A    between atoms: C_7  and  C_8
REMARK    7  A    between atoms: C_10  and  C_11
REMARK    8  A    between atoms: C_12  and  C_13
REMARK    9  A    between atoms: C_16  and  C_17
REMARK   10  A    between atoms: C_17  and  C_18
REMARK   11  A    between atoms: C_17  and  C_19
REMARK   12  A    between atoms: C_17  and  C_20
REMARK   13  A    between atoms: C_25  and  O_26
REMARK   14  A    between atoms: O_26  and  C_27
REMARK   15  A    between atoms: C_27  and  O_29
REMARK   16  A    between atoms: O_29  and  C_30
REMARK   17  A    between atoms: C_30  and  C_31
REMARK                            x       y       z     vdW  Elec       q    Type
REMARK                         _______ _______ _______ _____ _____    ______ ____
ROOT
ATOM      1  C   UNL     1       5.740   6.349  16.852  0.00  0.00    +0.000 C 
ATOM      2  O   UNL     1       6.889   7.195  16.983  0.00  0.00    +0.000 OA
ATOM      3  C   UNL     1       7.958   6.851  17.886  0.00  0.00    +0.000 C 
ATOM      4  C   UNL     1       7.521   5.991  19.031  0.00  0.00    +0.000 C 
ATOM      5  C   UNL     1       6.285   5.484  19.164  0.00  0.00    +0.000 C 
ATOM      6  C   UNL     1       5.189   5.815  18.194  0.00  0.00    +0.000 C 
ENDROOT
BRANCH   3   7
ATOM      7  C   UNL     1       8.415   8.226  18.347  0.00  0.00    +0.000 C 
ATOM      8  C   UNL     1       8.807   9.405  18.742  0.00  0.00    +0.000 C 
BRANCH   8   9
ATOM      9  C   UNL     1       9.258  10.709  19.107  0.00  0.00    +0.000 A 
ATOM     10  C   UNL     1       9.766  10.921  20.384  0.00  0.00    +0.000 A 
ATOM     11  C   UNL     1      10.099  12.212  20.803  0.00  0.00    +0.000 A 
ATOM     12  C   UNL     1       9.926  13.324  19.962  0.00  0.00    +0.000 A 
ATOM     13  C   UNL     1       9.482  13.074  18.649  0.00  0.00    +0.000 A 
ATOM     14  C   UNL     1       9.146  11.781  18.225  0.00  0.00    +0.000 A 
BRANCH  12  15
ATOM     15  C   UNL     1      10.149  14.765  20.456  0.00  0.00    +0.000 C 
ATOM     16  C   UNL     1      11.569  15.298  20.158  0.00  0.00    +0.000 C 
ATOM     17  C   UNL     1       9.143  15.727  19.795  0.00  0.00    +0.000 C 
ATOM     18  C   UNL     1       9.963  14.820  21.990  0.00  0.00    +0.000 C 
ENDBRANCH  12  15
ENDBRANCH   8   9
ENDBRANCH   3   7
BRANCH   1  19
ATOM     19  C   UNL     1       5.976   5.306  15.746  0.00  0.00    +0.000 C 
BRANCH  19  20
ATOM     20  O   UNL     1       7.181   5.608  14.998  0.00  0.00    +0.000 OA
BRANCH  20  21
ATOM     21  C   UNL     1       7.218   5.111  13.734  0.00  0.00    +0.000 C 
ATOM     22  O   UNL     1       7.950   5.511  12.839  0.00  0.00    +0.000 OA
BRANCH  21  23
ATOM     23  O   UNL     1       6.307   4.111  13.627  0.00  0.00    +0.000 OA
BRANCH  23  25
ATOM     24  C   UNL     1       5.028   3.281  11.734  0.00  0.00    +0.000 C 
ATOM     25  C   UNL     1       6.381   3.331  12.423  0.00  0.00    +0.000 C 
ENDBRANCH  23  25
ENDBRANCH  21  23
ENDBRANCH  20  21
ENDBRANCH  19  20
ENDBRANCH   1  19
BRANCH   6  26
ATOM     26  O   UNL     1       4.376   4.650  17.989  0.00  0.00    +0.000 OA
BRANCH  26  27
ATOM     27  C   UNL     1       4.168   3.872  19.081  0.00  0.00    +0.000 C 
ATOM     28  O   UNL     1       4.890   2.969  19.471  0.00  0.00    +0.000 OA
BRANCH  27  29
ATOM     29  O   UNL     1       3.010   4.265  19.678  0.00  0.00    +0.000 OA
BRANCH  29  30
ATOM     30  C   UNL     1       1.857   3.446  19.414  0.00  0.00    +0.000 C 
ATOM     31  C   UNL     1       0.679   3.837  20.291  0.00  0.00    +0.000 C 
ENDBRANCH  29  30
ENDBRANCH  27  29
ENDBRANCH  26  27
ENDBRANCH   6  26
TORSDOF 12
ENDMDL
MODEL 9
REMARK VINA RESULT:      -7.8      1.123      1.801
REMARK  Name = 
REMARK  17 active torsions:
REMARK  status: ('A' for Active; 'I' for Inactive)
REMARK    1  A    between atoms: C_1  and  C_2
REMARK    2  A    between atoms: C_2  and  O_3
REMARK    3  A    between atoms: O_3  and  C_4
REMARK    4  A    between atoms: C_4  and  O_6
REMARK    5  A    between atoms: O_6  and  C_7
REMARK    6  A    between atoms: C_7  and  C_8
REMARK    7  A    between atoms: C_10  and  C_11
REMARK    8  A    between atoms: C_12  and  C_13
REMARK    9  A    between atoms: C_16  and  C_17
REMARK   10  A    between atoms: C_17  and  C_18
REMARK   11  A    between atoms: C_17  and  C_19
REMARK   12  A    between atoms: C_17  and  C_20
REMARK   13  A    between atoms: C_25  and  O_26
REMARK   14  A    between atoms: O_26  and  C_27
REMARK   15  A    between atoms: C_27  and  O_29
REMARK   16  A    between atoms: O_29  and  C_30
REMARK   17  A    between atoms: C_30  and  C_31
REMARK                            x       y       z     vdW  Elec       q    Type
REMARK                         _______ _______ _______ _____ _____    ______ ____
ROOT
ATOM      1  C   UNL     1       5.410   6.165  16.379  0.00  0.00    +0.000 C 
ATOM      2  O   UNL     1       6.554   7.021  16.476  0.00  0.00    +0.000 OA
ATOM      3  C   UNL     1       7.622   6.722  17.396  0.00  0.00    +0.000 C 
ATOM      4  C   UNL     1       7.187   5.909  18.576  0.00  0.00    +0.000 C 
ATOM      5  C   UNL     1       5.953   5.402  18.728  0.00  0.00    +0.000 C 
ATOM      6  C   UNL     1       4.858   5.686  17.742  0.00  0.00    +0.000 C 
ENDROOT
BRANCH   3   7
ATOM      7  C   UNL     1       8.072   8.117  17.799  0.00  0.00    +0.000 C 
ATOM      8  C   UNL     1       8.457   9.314  18.144  0.00  0.00    +0.000 C 
BRANCH   8   9
ATOM      9  C   UNL     1       8.930  10.620  18.471  0.00  0.00    +0.000 A 
ATOM     10  C   UNL     1       9.737  10.791  19.590  0.00  0.00    +0.000 A 
ATOM     11  C   UNL     1      10.111  12.074  19.998  0.00  0.00    +0.000 A 
ATOM     12  C   UNL     1       9.682  13.219  19.306  0.00  0.00    +0.000 A 
ATOM     13  C   UNL     1       8.928  13.016  18.133  0.00  0.00    +0.000 A 
ATOM     14  C   UNL     1       8.551  11.731  17.721  0.00  0.00    +0.000 A 
BRANCH  12  15
ATOM     15  C   UNL     1       9.962  14.641  19.824  0.00  0.00    +0.000 C 
ATOM     16  C   UNL     1       9.668  15.740  18.777  0.00  0.00    +0.000 C 
ATOM     17  C   UNL     1       9.104  14.943  21.069  0.00  0.00    +0.000 C 
ATOM     18  C   UNL     1      11.456  14.769  20.200  0.00  0.00    +0.000 C 
ENDBRANCH  12  15
ENDBRANCH   8   9
ENDBRANCH   3   7
BRANCH   1  19
ATOM     19  C   UNL     1       5.653   5.077  15.320  0.00  0.00    +0.000 C 
BRANCH  19  20
ATOM     20  O   UNL     1       6.490   5.577  14.246  0.00  0.00    +0.000 OA
BRANCH  20  21
ATOM     21  C   UNL     1       6.796   4.673  13.279  0.00  0.00    +0.000 C 
ATOM     22  O   UNL     1       7.723   4.771  12.488  0.00  0.00    +0.000 OA
BRANCH  21  23
ATOM     23  O   UNL     1       5.900   3.654  13.330  0.00  0.00    +0.000 OA
BRANCH  23  25
ATOM     24  C   UNL     1       5.681   2.063  11.507  0.00  0.00    +0.000 C 
ATOM     25  C   UNL     1       5.207   3.376  12.104  0.00  0.00    +0.000 C 
ENDBRANCH  23  25
ENDBRANCH  21  23
ENDBRANCH  20  21
ENDBRANCH  19  20
ENDBRANCH   1  19
BRANCH   6  26
ATOM     26  O   UNL     1       4.051   4.509  17.585  0.00  0.00    +0.000 OA
BRANCH  26  27
ATOM     27  C   UNL     1       2.844   4.530  18.204  0.00  0.00    +0.000 C 
ATOM     28  O   UNL     1       1.955   5.346  18.023  0.00  0.00    +0.000 OA
BRANCH  27  29
ATOM     29  O   UNL     1       2.785   3.483  19.072  0.00  0.00    +0.000 OA
BRANCH  29  30
ATOM     30  C   UNL     1       2.471   3.814  20.436  0.00  0.00    +0.000 C 
ATOM     31  C   UNL     1       1.181   3.152  20.891  0.00  0.00    +0.000 C 
ENDBRANCH  29  30
ENDBRANCH  27  29
ENDBRANCH  26  27
ENDBRANCH   6  26
TORSDOF 12
ENDMDL
