MODEL 1
REMARK VINA RESULT:      -8.7      0.000      0.000
REMARK  Name = 
REMARK  5 active torsions:
REMARK  status: ('A' for Active; 'I' for Inactive)
REMARK    1  A    between atoms: C_1  and  S_2
REMARK    2  A    between atoms: S_2  and  C_3
REMARK    3  A    between atoms: N_5  and  C_6
REMARK    4  A    between atoms: C_15  and  N_16
REMARK    5  A    between atoms: N_19  and  C_20
REMARK                            x       y       z     vdW  Elec       q    Type
REMARK                         _______ _______ _______ _____ _____    ______ ____
ROOT
ATOM      1  C   UNL     1      -1.479  11.644  21.213  0.00  0.00    +0.000 A 
ATOM      2  N   UNL     1      -2.198  11.871  20.121  0.00  0.00    +0.000 NA
ATOM      3  N   UNL     1      -1.751  10.952  19.223  0.00  0.00    +0.000 N 
ATOM      4  C   UNL     1      -0.629  10.259  19.685  0.00  0.00    +0.000 A 
ATOM      5  C   UNL     1       0.277   9.338  19.094  0.00  0.00    +0.000 A 
ATOM      6  C   UNL     1       1.326   8.839  19.881  0.00  0.00    +0.000 A 
ATOM      7  C   UNL     1       1.471   9.301  21.200  0.00  0.00    +0.000 A 
ATOM      8  C   UNL     1       0.587  10.198  21.782  0.00  0.00    +0.000 A 
ATOM      9  C   UNL     1      -0.462  10.698  21.001  0.00  0.00    +0.000 A 
ENDROOT
BRANCH   3  10
ATOM     10  C   UNL     1      -2.459  10.824  17.996  0.00  0.00    +0.000 A 
ATOM     11  C   UNL     1      -1.899  10.024  16.983  0.00  0.00    +0.000 A 
ATOM     12  C   UNL     1      -2.541   9.892  15.752  0.00  0.00    +0.000 A 
ATOM     13  C   UNL     1      -3.721  10.587  15.526  0.00  0.00    +0.000 A 
ATOM     14  F   UNL     1      -4.329  10.476  14.338  0.00  0.00    +0.000 F 
ATOM     15  C   UNL     1      -4.273  11.405  16.509  0.00  0.00    +0.000 A 
ATOM     16  C   UNL     1      -3.655  11.520  17.754  0.00  0.00    +0.000 A 
ENDBRANCH   3  10
BRANCH   6  17
ATOM     17  N   UNL     1       2.219   7.835  19.486  0.00  0.00    +0.000 N 
ATOM     18  C   UNL     1       2.730   7.728  18.110  0.00  0.00    +0.000 C 
ATOM     19  C   UNL     1       3.792   6.583  18.019  0.00  0.00    +0.000 C 
ATOM     20  N   UNL     1       3.472   5.290  18.673  0.00  0.00    +0.000 NA
ATOM     21  C   UNL     1       2.937   5.542  20.012  0.00  0.00    +0.000 C 
ATOM     22  C   UNL     1       1.776   6.535  20.031  0.00  0.00    +0.000 C 
BRANCH  20  23
ATOM     23  C   UNL     1       2.832   4.261  17.835  0.00  0.00    +0.000 C 
ATOM     24  C   UNL     1       1.411   3.760  18.169  0.00  0.00    +0.000 C 
ATOM     25  C   UNL     1       1.327   2.499  19.027  0.00  0.00    +0.000 C 
ATOM     26  N   UNL     1       2.178   1.425  18.532  0.00  0.00    +0.000 NA
ATOM     27  C   UNL     1       3.571   1.859  18.469  0.00  0.00    +0.000 C 
ATOM     28  C   UNL     1       3.754   3.054  17.535  0.00  0.00    +0.000 C 
ATOM     29  H   UNL     1       1.866   1.144  17.603  0.00  0.00    +0.000 HD
ENDBRANCH  20  23
ENDBRANCH   6  17
BRANCH   1  31
ATOM     30  C   UNL     1      -3.542  12.617  22.750  0.00  0.00    +0.000 C 
ATOM     31  S   UNL     1      -1.748  12.480  22.725  0.00  0.00    +0.000 S 
ENDBRANCH   1  31
TORSDOF 4
ENDMDL
MODEL 2
REMARK VINA RESULT:      -8.4      0.574      1.055
REMARK  Name = 
REMARK  5 active torsions:
REMARK  status: ('A' for Active; 'I' for Inactive)
REMARK    1  A    between atoms: C_1  and  S_2
REMARK    2  A    between atoms: S_2  and  C_3
REMARK    3  A    between atoms: N_5  and  C_6
REMARK    4  A    between atoms: C_15  and  N_16
REMARK    5  A    between atoms: N_19  and  C_20
REMARK                            x       y       z     vdW  Elec       q    Type
REMARK                         _______ _______ _______ _____ _____    ______ ____
ROOT
ATOM      1  C   UNL     1      -1.635  12.134  20.985  0.00  0.00    +0.000 A 
ATOM      2  N   UNL     1      -2.277  12.280  19.834  0.00  0.00    +0.000 NA
ATOM      3  N   UNL     1      -1.847  11.239  19.071  0.00  0.00    +0.000 N 
ATOM      4  C   UNL     1      -0.803  10.534  19.672  0.00  0.00    +0.000 A 
ATOM      5  C   UNL     1       0.068   9.497  19.242  0.00  0.00    +0.000 A 
ATOM      6  C   UNL     1       1.037   9.026  20.141  0.00  0.00    +0.000 A 
ATOM      7  C   UNL     1       1.143   9.624  21.408  0.00  0.00    +0.000 A 
ATOM      8  C   UNL     1       0.293  10.635  21.833  0.00  0.00    +0.000 A 
ATOM      9  C   UNL     1      -0.675  11.108  20.941  0.00  0.00    +0.000 A 
ENDROOT
BRANCH   3  10
ATOM     10  C   UNL     1      -2.497  11.018  17.825  0.00  0.00    +0.000 A 
ATOM     11  C   UNL     1      -3.782  11.558  17.637  0.00  0.00    +0.000 A 
ATOM     12  C   UNL     1      -4.472  11.343  16.444  0.00  0.00    +0.000 A 
ATOM     13  C   UNL     1      -3.890  10.559  15.458  0.00  0.00    +0.000 A 
ATOM     14  F   UNL     1      -4.559  10.335  14.320  0.00  0.00    +0.000 F 
ATOM     15  C   UNL     1      -2.630   9.993  15.640  0.00  0.00    +0.000 A 
ATOM     16  C   UNL     1      -1.919  10.227  16.817  0.00  0.00    +0.000 A 
ENDBRANCH   3  10
BRANCH   6  17
ATOM     17  N   UNL     1       1.878   7.929  19.913  0.00  0.00    +0.000 N 
ATOM     18  C   UNL     1       2.585   7.727  18.639  0.00  0.00    +0.000 C 
ATOM     19  C   UNL     1       3.531   6.485  18.740  0.00  0.00    +0.000 C 
ATOM     20  N   UNL     1       2.989   5.252  19.362  0.00  0.00    +0.000 NA
ATOM     21  C   UNL     1       2.278   5.600  20.593  0.00  0.00    +0.000 C 
ATOM     22  C   UNL     1       1.231   6.696  20.407  0.00  0.00    +0.000 C 
BRANCH  20  23
ATOM     23  C   UNL     1       2.389   4.258  18.453  0.00  0.00    +0.000 C 
ATOM     24  C   UNL     1       1.274   3.318  18.956  0.00  0.00    +0.000 C 
ATOM     25  C   UNL     1       1.725   1.949  19.461  0.00  0.00    +0.000 C 
ATOM     26  N   UNL     1       2.623   1.275  18.532  0.00  0.00    +0.000 NA
ATOM     27  C   UNL     1       3.804   2.093  18.273  0.00  0.00    +0.000 C 
ATOM     28  C   UNL     1       3.439   3.444  17.658  0.00  0.00    +0.000 C 
ATOM     29  H   UNL     1       2.134   1.096  17.656  0.00  0.00    +0.000 HD
ENDBRANCH  20  23
ENDBRANCH   6  17
BRANCH   1  31
ATOM     30  C   UNL     1      -2.868  12.048  23.443  0.00  0.00    +0.000 C 
ATOM     31  S   UNL     1      -1.925  13.151  22.377  0.00  0.00    +0.000 S 
ENDBRANCH   1  31
TORSDOF 4
ENDMDL
MODEL 3
REMARK VINA RESULT:      -8.0      4.213      9.146
REMARK  Name = 
REMARK  5 active torsions:
REMARK  status: ('A' for Active; 'I' for Inactive)
REMARK    1  A    between atoms: C_1  and  S_2
REMARK    2  A    between atoms: S_2  and  C_3
REMARK    3  A    between atoms: N_5  and  C_6
REMARK    4  A    between atoms: C_15  and  N_16
REMARK    5  A    between atoms: N_19  and  C_20
REMARK                            x       y       z     vdW  Elec       q    Type
REMARK                         _______ _______ _______ _____ _____    ______ ____
ROOT
ATOM      1  C   UNL     1       3.383   3.761  19.946  0.00  0.00    +0.000 A 
ATOM      2  N   UNL     1       4.156   3.548  18.888  0.00  0.00    +0.000 NA
ATOM      3  N   UNL     1       4.196   4.748  18.249  0.00  0.00    +0.000 N 
ATOM      4  C   UNL     1       3.310   5.675  18.803  0.00  0.00    +0.000 A 
ATOM      5  C   UNL     1       2.873   6.974  18.426  0.00  0.00    +0.000 A 
ATOM      6  C   UNL     1       1.936   7.624  19.243  0.00  0.00    +0.000 A 
ATOM      7  C   UNL     1       1.429   6.954  20.369  0.00  0.00    +0.000 A 
ATOM      8  C   UNL     1       1.854   5.687  20.742  0.00  0.00    +0.000 A 
ATOM      9  C   UNL     1       2.790   5.035  19.931  0.00  0.00    +0.000 A 
ENDROOT
BRANCH   3  10
ATOM     10  C   UNL     1       5.099   4.890  17.160  0.00  0.00    +0.000 A 
ATOM     11  C   UNL     1       4.777   4.266  15.940  0.00  0.00    +0.000 A 
ATOM     12  C   UNL     1       5.645   4.351  14.852  0.00  0.00    +0.000 A 
ATOM     13  C   UNL     1       6.847   5.028  14.998  0.00  0.00    +0.000 A 
ATOM     14  F   UNL     1       7.691   5.094  13.960  0.00  0.00    +0.000 F 
ATOM     15  C   UNL     1       7.195   5.626  16.207  0.00  0.00    +0.000 A 
ATOM     16  C   UNL     1       6.320   5.574  17.292  0.00  0.00    +0.000 A 
ENDBRANCH   3  10
BRANCH   6  17
ATOM     17  N   UNL     1       1.508   8.947  19.077  0.00  0.00    +0.000 N 
ATOM     18  C   UNL     1       2.260   9.928  18.280  0.00  0.00    +0.000 C 
ATOM     19  C   UNL     1       1.466  11.273  18.191  0.00  0.00    +0.000 C 
ATOM     20  N   UNL     1       0.867  11.804  19.440  0.00  0.00    +0.000 NA
ATOM     21  C   UNL     1       0.187  10.722  20.153  0.00  0.00    +0.000 C 
ATOM     22  C   UNL     1       1.064   9.491  20.377  0.00  0.00    +0.000 C 
BRANCH  20  23
ATOM     23  C   UNL     1       1.678  12.762  20.211  0.00  0.00    +0.000 C 
ATOM     24  C   UNL     1       1.007  13.706  21.231  0.00  0.00    +0.000 C 
ATOM     25  C   UNL     1       0.634  15.096  20.717  0.00  0.00    +0.000 C 
ATOM     26  N   UNL     1       1.731  15.749  20.016  0.00  0.00    +0.000 NA
ATOM     27  C   UNL     1       2.179  14.935  18.889  0.00  0.00    +0.000 C 
ATOM     28  C   UNL     1       2.676  13.562  19.338  0.00  0.00    +0.000 C 
ATOM     29  H   UNL     1       2.508  15.895  20.660  0.00  0.00    +0.000 HD
ENDBRANCH  20  23
ENDBRANCH   6  17
BRANCH   1  31
ATOM     30  C   UNL     1       1.310   2.588  21.322  0.00  0.00    +0.000 C 
ATOM     31  S   UNL     1       3.104   2.558  21.183  0.00  0.00    +0.000 S 
ENDBRANCH   1  31
TORSDOF 4
ENDMDL
MODEL 4
REMARK VINA RESULT:      -7.8      4.001      9.096
REMARK  Name = 
REMARK  5 active torsions:
REMARK  status: ('A' for Active; 'I' for Inactive)
REMARK    1  A    between atoms: C_1  and  S_2
REMARK    2  A    between atoms: S_2  and  C_3
REMARK    3  A    between atoms: N_5  and  C_6
REMARK    4  A    between atoms: C_15  and  N_16
REMARK    5  A    between atoms: N_19  and  C_20
REMARK                            x       y       z     vdW  Elec       q    Type
REMARK                         _______ _______ _______ _____ _____    ______ ____
ROOT
ATOM      1  C   UNL     1       2.506   3.525  19.315  0.00  0.00    +0.000 A 
ATOM      2  N   UNL     1       3.341   3.412  18.290  0.00  0.00    +0.000 NA
ATOM      3  N   UNL     1       3.697   4.692  17.998  0.00  0.00    +0.000 N 
ATOM      4  C   UNL     1       2.956   5.628  18.723  0.00  0.00    +0.000 A 
ATOM      5  C   UNL     1       2.837   7.044  18.680  0.00  0.00    +0.000 A 
ATOM      6  C   UNL     1       1.959   7.665  19.580  0.00  0.00    +0.000 A 
ATOM      7  C   UNL     1       1.197   6.869  20.453  0.00  0.00    +0.000 A 
ATOM      8  C   UNL     1       1.312   5.488  20.500  0.00  0.00    +0.000 A 
ATOM      9  C   UNL     1       2.187   4.862  19.604  0.00  0.00    +0.000 A 
ENDROOT
BRANCH   3  10
ATOM     10  C   UNL     1       4.734   4.892  17.045  0.00  0.00    +0.000 A 
ATOM     11  C   UNL     1       4.700   4.140  15.856  0.00  0.00    +0.000 A 
ATOM     12  C   UNL     1       5.710   4.278  14.904  0.00  0.00    +0.000 A 
ATOM     13  C   UNL     1       6.767   5.140  15.160  0.00  0.00    +0.000 A 
ATOM     14  F   UNL     1       7.748   5.260  14.256  0.00  0.00    +0.000 F 
ATOM     15  C   UNL     1       6.830   5.869  16.345  0.00  0.00    +0.000 A 
ATOM     16  C   UNL     1       5.809   5.762  17.290  0.00  0.00    +0.000 A 
ENDBRANCH   3  10
BRANCH   6  17
ATOM     17  N   UNL     1       1.828   9.050  19.748  0.00  0.00    +0.000 N 
ATOM     18  C   UNL     1       0.993   9.642  20.804  0.00  0.00    +0.000 C 
ATOM     19  C   UNL     1       1.149  11.199  20.804  0.00  0.00    +0.000 C 
ATOM     20  N   UNL     1       1.100  11.898  19.496  0.00  0.00    +0.000 NA
ATOM     21  C   UNL     1       1.938  11.184  18.531  0.00  0.00    +0.000 C 
ATOM     22  C   UNL     1       1.625   9.692  18.434  0.00  0.00    +0.000 C 
BRANCH  20  23
ATOM     23  C   UNL     1      -0.215  12.399  19.059  0.00  0.00    +0.000 C 
ATOM     24  C   UNL     1      -0.312  13.654  18.167  0.00  0.00    +0.000 C 
ATOM     25  C   UNL     1      -0.529  14.980  18.893  0.00  0.00    +0.000 C 
ATOM     26  N   UNL     1      -1.615  14.920  19.862  0.00  0.00    +0.000 NA
ATOM     27  C   UNL     1      -1.364  13.877  20.853  0.00  0.00    +0.000 C 
ATOM     28  C   UNL     1      -1.247  12.496  20.209  0.00  0.00    +0.000 C 
ATOM     29  H   UNL     1      -2.492  14.727  19.379  0.00  0.00    +0.000 HD
ENDBRANCH  20  23
ENDBRANCH   6  17
BRANCH   1  31
ATOM     30  C   UNL     1       2.169   2.590  21.880  0.00  0.00    +0.000 C 
ATOM     31  S   UNL     1       1.846   2.148  20.166  0.00  0.00    +0.000 S 
ENDBRANCH   1  31
TORSDOF 4
ENDMDL
MODEL 5
REMARK VINA RESULT:      -7.8      4.183      9.063
REMARK  Name = 
REMARK  5 active torsions:
REMARK  status: ('A' for Active; 'I' for Inactive)
REMARK    1  A    between atoms: C_1  and  S_2
REMARK    2  A    between atoms: S_2  and  C_3
REMARK    3  A    between atoms: N_5  and  C_6
REMARK    4  A    between atoms: C_15  and  N_16
REMARK    5  A    between atoms: N_19  and  C_20
REMARK                            x       y       z     vdW  Elec       q    Type
REMARK                         _______ _______ _______ _____ _____    ______ ____
ROOT
ATOM      1  C   UNL     1       2.575   4.942  20.181  0.00  0.00    +0.000 A 
ATOM      2  N   UNL     1       3.224   4.486  19.118  0.00  0.00    +0.000 NA
ATOM      3  N   UNL     1       3.399   5.582  18.331  0.00  0.00    +0.000 N 
ATOM      4  C   UNL     1       2.708   6.697  18.811  0.00  0.00    +0.000 A 
ATOM      5  C   UNL     1       2.448   7.996  18.297  0.00  0.00    +0.000 A 
ATOM      6  C   UNL     1       1.685   8.879  19.075  0.00  0.00    +0.000 A 
ATOM      7  C   UNL     1       1.167   8.434  20.304  0.00  0.00    +0.000 A 
ATOM      8  C   UNL     1       1.421   7.168  20.811  0.00  0.00    +0.000 A 
ATOM      9  C   UNL     1       2.183   6.284  20.039  0.00  0.00    +0.000 A 
ENDROOT
BRANCH   3  10
ATOM     10  C   UNL     1       4.229   5.449  17.184  0.00  0.00    +0.000 A 
ATOM     11  C   UNL     1       4.496   4.154  16.700  0.00  0.00    +0.000 A 
ATOM     12  C   UNL     1       5.329   3.970  15.597  0.00  0.00    +0.000 A 
ATOM     13  C   UNL     1       5.920   5.077  15.003  0.00  0.00    +0.000 A 
ATOM     14  F   UNL     1       6.735   4.901  13.955  0.00  0.00    +0.000 F 
ATOM     15  C   UNL     1       5.688   6.363  15.488  0.00  0.00    +0.000 A 
ATOM     16  C   UNL     1       4.833   6.560  16.572  0.00  0.00    +0.000 A 
ENDBRANCH   3  10
BRANCH   6  17
ATOM     17  N   UNL     1       1.452  10.225  18.768  0.00  0.00    +0.000 N 
ATOM     18  C   UNL     1       2.491  11.097  18.199  0.00  0.00    +0.000 C 
ATOM     19  C   UNL     1       1.890  12.501  17.859  0.00  0.00    +0.000 C 
ATOM     20  N   UNL     1       1.016  13.141  18.873  0.00  0.00    +0.000 NA
ATOM     21  C   UNL     1       0.060  12.157  19.383  0.00  0.00    +0.000 C 
ATOM     22  C   UNL     1       0.713  10.867  19.874  0.00  0.00    +0.000 C 
BRANCH  20  23
ATOM     23  C   UNL     1       1.665  14.060  19.825  0.00  0.00    +0.000 C 
ATOM     24  C   UNL     1       0.823  15.081  20.617  0.00  0.00    +0.000 C 
ATOM     25  C   UNL     1       0.713  16.478  20.009  0.00  0.00    +0.000 C 
ATOM     26  N   UNL     1       2.007  17.027  19.621  0.00  0.00    +0.000 NA
ATOM     27  C   UNL     1       2.673  16.148  18.664  0.00  0.00    +0.000 C 
ATOM     28  C   UNL     1       2.921  14.756  19.245  0.00  0.00    +0.000 C 
ATOM     29  H   UNL     1       2.592  17.135  20.450  0.00  0.00    +0.000 HD
ENDBRANCH  20  23
ENDBRANCH   6  17
BRANCH   1  31
ATOM     30  C   UNL     1       1.460   2.507  20.808  0.00  0.00    +0.000 C 
ATOM     31  S   UNL     1       2.209   3.952  21.575  0.00  0.00    +0.000 S 
ENDBRANCH   1  31
TORSDOF 4
ENDMDL
MODEL 6
REMARK VINA RESULT:      -7.7      3.564      8.623
REMARK  Name = 
REMARK  5 active torsions:
REMARK  status: ('A' for Active; 'I' for Inactive)
REMARK    1  A    between atoms: C_1  and  S_2
REMARK    2  A    between atoms: S_2  and  C_3
REMARK    3  A    between atoms: N_5  and  C_6
REMARK    4  A    between atoms: C_15  and  N_16
REMARK    5  A    between atoms: N_19  and  C_20
REMARK                            x       y       z     vdW  Elec       q    Type
REMARK                         _______ _______ _______ _____ _____    ______ ____
ROOT
ATOM      1  C   UNL     1       2.584   5.056  20.291  0.00  0.00    +0.000 A 
ATOM      2  N   UNL     1       3.239   4.619  19.224  0.00  0.00    +0.000 NA
ATOM      3  N   UNL     1       3.317   5.703  18.406  0.00  0.00    +0.000 N 
ATOM      4  C   UNL     1       2.561   6.779  18.875  0.00  0.00    +0.000 A 
ATOM      5  C   UNL     1       2.198   8.043  18.336  0.00  0.00    +0.000 A 
ATOM      6  C   UNL     1       1.392   8.890  19.113  0.00  0.00    +0.000 A 
ATOM      7  C   UNL     1       0.936   8.443  20.365  0.00  0.00    +0.000 A 
ATOM      8  C   UNL     1       1.291   7.211  20.895  0.00  0.00    +0.000 A 
ATOM      9  C   UNL     1       2.095   6.363  20.126  0.00  0.00    +0.000 A 
ENDROOT
BRANCH   3  10
ATOM     10  C   UNL     1       4.128   5.598  17.242  0.00  0.00    +0.000 A 
ATOM     11  C   UNL     1       4.464   4.314  16.776  0.00  0.00    +0.000 A 
ATOM     12  C   UNL     1       5.281   4.160  15.657  0.00  0.00    +0.000 A 
ATOM     13  C   UNL     1       5.787   5.288  15.028  0.00  0.00    +0.000 A 
ATOM     14  F   UNL     1       6.588   5.142  13.964  0.00  0.00    +0.000 F 
ATOM     15  C   UNL     1       5.487   6.567  15.494  0.00  0.00    +0.000 A 
ATOM     16  C   UNL     1       4.646   6.733  16.594  0.00  0.00    +0.000 A 
ENDBRANCH   3  10
BRANCH   6  17
ATOM     17  N   UNL     1       1.058  10.209  18.778  0.00  0.00    +0.000 N 
ATOM     18  C   UNL     1       1.825  11.366  19.264  0.00  0.00    +0.000 C 
ATOM     19  C   UNL     1       1.276  12.683  18.622  0.00  0.00    +0.000 C 
ATOM     20  N   UNL     1      -0.195  12.872  18.586  0.00  0.00    +0.000 NA
ATOM     21  C   UNL     1      -0.834  11.638  18.126  0.00  0.00    +0.000 C 
ATOM     22  C   UNL     1      -0.402  10.398  18.906  0.00  0.00    +0.000 C 
BRANCH  20  23
ATOM     23  C   UNL     1      -0.799  13.606  19.713  0.00  0.00    +0.000 C 
ATOM     24  C   UNL     1      -0.034  14.765  20.385  0.00  0.00    +0.000 C 
ATOM     25  C   UNL     1       0.786  14.402  21.622  0.00  0.00    +0.000 C 
ATOM     26  N   UNL     1       0.027  13.621  22.590  0.00  0.00    +0.000 NA
ATOM     27  C   UNL     1      -0.474  12.392  21.980  0.00  0.00    +0.000 C 
ATOM     28  C   UNL     1      -1.399  12.678  20.798  0.00  0.00    +0.000 C 
ATOM     29  H   UNL     1      -0.757  14.175  22.935  0.00  0.00    +0.000 HD
ENDBRANCH  20  23
ENDBRANCH   6  17
BRANCH   1  31
ATOM     30  C   UNL     1       1.396   2.691  21.043  0.00  0.00    +0.000 C 
ATOM     31  S   UNL     1       2.322   4.079  21.718  0.00  0.00    +0.000 S 
ENDBRANCH   1  31
TORSDOF 4
ENDMDL
MODEL 7
REMARK VINA RESULT:      -7.7      3.210      3.676
REMARK  Name = 
REMARK  5 active torsions:
REMARK  status: ('A' for Active; 'I' for Inactive)
REMARK    1  A    between atoms: C_1  and  S_2
REMARK    2  A    between atoms: S_2  and  C_3
REMARK    3  A    between atoms: N_5  and  C_6
REMARK    4  A    between atoms: C_15  and  N_16
REMARK    5  A    between atoms: N_19  and  C_20
REMARK                            x       y       z     vdW  Elec       q    Type
REMARK                         _______ _______ _______ _____ _____    ______ ____
ROOT
ATOM      1  C   UNL     1      -1.196  12.188  22.156  0.00  0.00    +0.000 A 
ATOM      2  N   UNL     1      -0.642  13.275  21.633  0.00  0.00    +0.000 NA
ATOM      3  N   UNL     1       0.283  12.797  20.757  0.00  0.00    +0.000 N 
ATOM      4  C   UNL     1       0.439  11.412  20.851  0.00  0.00    +0.000 A 
ATOM      5  C   UNL     1       1.350  10.479  20.287  0.00  0.00    +0.000 A 
ATOM      6  C   UNL     1       1.207   9.124  20.624  0.00  0.00    +0.000 A 
ATOM      7  C   UNL     1       0.208   8.747  21.538  0.00  0.00    +0.000 A 
ATOM      8  C   UNL     1      -0.685   9.655  22.088  0.00  0.00    +0.000 A 
ATOM      9  C   UNL     1      -0.548  11.008  21.755  0.00  0.00    +0.000 A 
ENDROOT
BRANCH   3  10
ATOM     10  C   UNL     1       0.929  13.730  19.900  0.00  0.00    +0.000 A 
ATOM     11  C   UNL     1       1.992  13.274  19.098  0.00  0.00    +0.000 A 
ATOM     12  C   UNL     1       2.676  14.157  18.263  0.00  0.00    +0.000 A 
ATOM     13  C   UNL     1       2.320  15.499  18.260  0.00  0.00    +0.000 A 
ATOM     14  F   UNL     1       2.988  16.352  17.474  0.00  0.00    +0.000 F 
ATOM     15  C   UNL     1       1.290  15.971  19.070  0.00  0.00    +0.000 A 
ATOM     16  C   UNL     1       0.578  15.091  19.886  0.00  0.00    +0.000 A 
ENDBRANCH   3  10
BRANCH   6  17
ATOM     17  N   UNL     1       1.939   8.074  20.055  0.00  0.00    +0.000 N 
ATOM     18  C   UNL     1       2.124   7.936  18.602  0.00  0.00    +0.000 C 
ATOM     19  C   UNL     1       3.082   6.738  18.293  0.00  0.00    +0.000 C 
ATOM     20  N   UNL     1       2.854   5.466  19.022  0.00  0.00    +0.000 NA
ATOM     21  C   UNL     1       2.644   5.750  20.442  0.00  0.00    +0.000 C 
ATOM     22  C   UNL     1       1.567   6.801  20.705  0.00  0.00    +0.000 C 
BRANCH  20  23
ATOM     23  C   UNL     1       1.992   4.467  18.364  0.00  0.00    +0.000 C 
ATOM     24  C   UNL     1       1.087   3.545  19.207  0.00  0.00    +0.000 C 
ATOM     25  C   UNL     1       1.667   2.177  19.562  0.00  0.00    +0.000 C 
ATOM     26  N   UNL     1       2.222   1.483  18.408  0.00  0.00    +0.000 NA
ATOM     27  C   UNL     1       3.266   2.287  17.777  0.00  0.00    +0.000 C 
ATOM     28  C   UNL     1       2.733   3.633  17.290  0.00  0.00    +0.000 C 
ATOM     29  H   UNL     1       1.480   1.298  17.733  0.00  0.00    +0.000 HD
ENDBRANCH  20  23
ENDBRANCH   6  17
BRANCH   1  31
ATOM     30  C   UNL     1      -3.875  12.809  22.185  0.00  0.00    +0.000 C 
ATOM     31  S   UNL     1      -2.549  12.243  23.261  0.00  0.00    +0.000 S 
ENDBRANCH   1  31
TORSDOF 4
ENDMDL
MODEL 8
REMARK VINA RESULT:      -7.7      3.904      9.047
REMARK  Name = 
REMARK  5 active torsions:
REMARK  status: ('A' for Active; 'I' for Inactive)
REMARK    1  A    between atoms: C_1  and  S_2
REMARK    2  A    between atoms: S_2  and  C_3
REMARK    3  A    between atoms: N_5  and  C_6
REMARK    4  A    between atoms: C_15  and  N_16
REMARK    5  A    between atoms: N_19  and  C_20
REMARK                            x       y       z     vdW  Elec       q    Type
REMARK                         _______ _______ _______ _____ _____    ______ ____
ROOT
ATOM      1  C   UNL     1       2.788   3.212  19.288  0.00  0.00    +0.000 A 
ATOM      2  N   UNL     1       3.604   3.094  18.249  0.00  0.00    +0.000 NA
ATOM      3  N   UNL     1       3.910   4.376  17.909  0.00  0.00    +0.000 N 
ATOM      4  C   UNL     1       3.152   5.309  18.620  0.00  0.00    +0.000 A 
ATOM      5  C   UNL     1       2.985   6.718  18.535  0.00  0.00    +0.000 A 
ATOM      6  C   UNL     1       2.105   7.338  19.435  0.00  0.00    +0.000 A 
ATOM      7  C   UNL     1       1.390   6.546  20.349  0.00  0.00    +0.000 A 
ATOM      8  C   UNL     1       1.553   5.171  20.437  0.00  0.00    +0.000 A 
ATOM      9  C   UNL     1       2.429   4.547  19.542  0.00  0.00    +0.000 A 
ENDROOT
BRANCH   3  10
ATOM     10  C   UNL     1       4.918   4.579  16.927  0.00  0.00    +0.000 A 
ATOM     11  C   UNL     1       6.092   5.257  17.307  0.00  0.00    +0.000 A 
ATOM     12  C   UNL     1       7.097   5.507  16.373  0.00  0.00    +0.000 A 
ATOM     13  C   UNL     1       6.910   5.110  15.056  0.00  0.00    +0.000 A 
ATOM     14  F   UNL     1       7.865   5.367  14.153  0.00  0.00    +0.000 F 
ATOM     15  C   UNL     1       5.742   4.464  14.658  0.00  0.00    +0.000 A 
ATOM     16  C   UNL     1       4.744   4.181  15.591  0.00  0.00    +0.000 A 
ENDBRANCH   3  10
BRANCH   6  17
ATOM     17  N   UNL     1       1.930   8.722  19.562  0.00  0.00    +0.000 N 
ATOM     18  C   UNL     1       1.034   9.317  20.565  0.00  0.00    +0.000 C 
ATOM     19  C   UNL     1       1.149  10.877  20.532  0.00  0.00    +0.000 C 
ATOM     20  N   UNL     1       1.139  11.542  19.206  0.00  0.00    +0.000 NA
ATOM     21  C   UNL     1       2.037  10.829  18.297  0.00  0.00    +0.000 C 
ATOM     22  C   UNL     1       1.769   9.327  18.224  0.00  0.00    +0.000 C 
BRANCH  20  23
ATOM     23  C   UNL     1      -0.169  11.996  18.699  0.00  0.00    +0.000 C 
ATOM     24  C   UNL     1      -0.391  13.480  18.341  0.00  0.00    +0.000 C 
ATOM     25  C   UNL     1      -0.997  14.354  19.439  0.00  0.00    +0.000 C 
ATOM     26  N   UNL     1      -2.182  13.758  20.042  0.00  0.00    +0.000 NA
ATOM     27  C   UNL     1      -1.871  12.446  20.602  0.00  0.00    +0.000 C 
ATOM     28  C   UNL     1      -1.364  11.476  19.536  0.00  0.00    +0.000 C 
ATOM     29  H   UNL     1      -2.911  13.663  19.335  0.00  0.00    +0.000 HD
ENDBRANCH  20  23
ENDBRANCH   6  17
BRANCH   1  31
ATOM     30  C   UNL     1       2.154   2.505  21.870  0.00  0.00    +0.000 C 
ATOM     31  S   UNL     1       2.194   1.842  20.197  0.00  0.00    +0.000 S 
ENDBRANCH   1  31
TORSDOF 4
ENDMDL
MODEL 9
REMARK VINA RESULT:      -7.7      3.798      8.830
REMARK  Name = 
REMARK  5 active torsions:
REMARK  status: ('A' for Active; 'I' for Inactive)
REMARK    1  A    between atoms: C_1  and  S_2
REMARK    2  A    between atoms: S_2  and  C_3
REMARK    3  A    between atoms: N_5  and  C_6
REMARK    4  A    between atoms: C_15  and  N_16
REMARK    5  A    between atoms: N_19  and  C_20
REMARK                            x       y       z     vdW  Elec       q    Type
REMARK                         _______ _______ _______ _____ _____    ______ ____
ROOT
ATOM      1  C   UNL     1       2.613   5.088  20.129  0.00  0.00    +0.000 A 
ATOM      2  N   UNL     1       3.265   4.615  19.076  0.00  0.00    +0.000 NA
ATOM      3  N   UNL     1       3.409   5.690  18.254  0.00  0.00    +0.000 N 
ATOM      4  C   UNL     1       2.697   6.803  18.705  0.00  0.00    +0.000 A 
ATOM      5  C   UNL     1       2.403   8.079  18.154  0.00  0.00    +0.000 A 
ATOM      6  C   UNL     1       1.625   8.968  18.911  0.00  0.00    +0.000 A 
ATOM      7  C   UNL     1       1.127   8.550  20.157  0.00  0.00    +0.000 A 
ATOM      8  C   UNL     1       1.413   7.306  20.700  0.00  0.00    +0.000 A 
ATOM      9  C   UNL     1       2.189   6.416  19.949  0.00  0.00    +0.000 A 
ENDROOT
BRANCH   3  10
ATOM     10  C   UNL     1       4.234   5.540  17.105  0.00  0.00    +0.000 A 
ATOM     11  C   UNL     1       4.557   4.238  16.681  0.00  0.00    +0.000 A 
ATOM     12  C   UNL     1       5.387   4.041  15.577  0.00  0.00    +0.000 A 
ATOM     13  C   UNL     1       5.919   5.144  14.925  0.00  0.00    +0.000 A 
ATOM     14  F   UNL     1       6.732   4.956  13.877  0.00  0.00    +0.000 F 
ATOM     15  C   UNL     1       5.632   6.439  15.350  0.00  0.00    +0.000 A 
ATOM     16  C   UNL     1       4.778   6.648  16.433  0.00  0.00    +0.000 A 
ENDBRANCH   3  10
BRANCH   6  17
ATOM     17  N   UNL     1       1.359  10.299  18.565  0.00  0.00    +0.000 N 
ATOM     18  C   UNL     1       2.425  11.299  18.395  0.00  0.00    +0.000 C 
ATOM     19  C   UNL     1       1.818  12.652  17.894  0.00  0.00    +0.000 C 
ATOM     20  N   UNL     1       0.590  13.147  18.563  0.00  0.00    +0.000 NA
ATOM     21  C   UNL     1      -0.365  12.047  18.705  0.00  0.00    +0.000 C 
ATOM     22  C   UNL     1       0.226  10.804  19.367  0.00  0.00    +0.000 C 
BRANCH  20  23
ATOM     23  C   UNL     1       0.776  14.074  19.693  0.00  0.00    +0.000 C 
ATOM     24  C   UNL     1       0.983  13.528  21.121  0.00  0.00    +0.000 C 
ATOM     25  C   UNL     1      -0.271  13.410  21.985  0.00  0.00    +0.000 C 
ATOM     26  N   UNL     1      -1.073  14.626  21.982  0.00  0.00    +0.000 NA
ATOM     27  C   UNL     1      -1.470  14.977  20.621  0.00  0.00    +0.000 C 
ATOM     28  C   UNL     1      -0.261  15.224  19.720  0.00  0.00    +0.000 C 
ATOM     29  H   UNL     1      -0.533  15.390  22.387  0.00  0.00    +0.000 HD
ENDBRANCH  20  23
ENDBRANCH   6  17
BRANCH   1  31
ATOM     30  C   UNL     1       1.362   2.750  20.860  0.00  0.00    +0.000 C 
ATOM     31  S   UNL     1       2.280   4.133  21.555  0.00  0.00    +0.000 S 
ENDBRANCH   1  31
TORSDOF 4
ENDMDL
