MODEL 1
REMARK VINA RESULT:      -7.5      0.000      0.000
REMARK  Name = 
REMARK  8 active torsions:
REMARK  status: ('A' for Active; 'I' for Inactive)
REMARK    1  A    between atoms: C_1  and  O_2
REMARK    2  A    between atoms: O_2  and  C_3
REMARK    3  A    between atoms: C_9  and  O_10
REMARK    4  A    between atoms: C_11  and  C_12
REMARK    5  A    between atoms: N_14  and  C_15
REMARK    6  A    between atoms: C_15  and  C_16
REMARK    7  A    between atoms: C_16  and  N_17
REMARK    8  A    between atoms: N_20  and  C_21
REMARK                            x       y       z     vdW  Elec       q    Type
REMARK                         _______ _______ _______ _____ _____    ______ ____
ROOT
ATOM      1  C   UNL     1       9.508  11.130  18.590  0.00  0.00    +0.000 C 
ATOM      2  O   UNL     1      10.481  10.881  17.883  0.00  0.00    +0.000 OA
ATOM      3  N   UNL     1       8.603  10.149  18.949  0.00  0.00    +0.000 N 
ATOM      4  H   UNL     1       7.957  10.357  19.703  0.00  0.00    +0.000 HD
ENDROOT
BRANCH   1  12
ATOM      5  C   UNL     1       8.980  12.718  20.511  0.00  0.00    +0.000 A 
ATOM      6  C   UNL     1       8.738  14.036  20.968  0.00  0.00    +0.000 A 
ATOM      7 CL   UNL     1       8.491  14.502  22.616  0.00  0.00    +0.000 Cl
ATOM      8  C   UNL     1       8.749  15.116  20.082  0.00  0.00    +0.000 A 
ATOM      9  C   UNL     1       9.037  14.911  18.737  0.00  0.00    +0.000 A 
ATOM     10 CL   UNL     1       9.094  16.276  17.679  0.00  0.00    +0.000 Cl
ATOM     11  C   UNL     1       9.296  13.628  18.258  0.00  0.00    +0.000 A 
ATOM     12  C   UNL     1       9.257  12.517  19.127  0.00  0.00    +0.000 A 
BRANCH   5  14
ATOM     13  C   UNL     1       8.314  11.494  22.492  0.00  0.00    +0.000 C 
ATOM     14  O   UNL     1       9.089  11.609  21.309  0.00  0.00    +0.000 OA
ENDBRANCH   5  14
BRANCH  11  15
ATOM     15  O   UNL     1       9.601  13.476  16.923  0.00  0.00    +0.000 OA
ATOM     16  H   UNL     1      10.557  13.655  16.813  0.00  0.00    +0.000 HD
ENDBRANCH  11  15
ENDBRANCH   1  12
BRANCH   3  17
ATOM     17  C   UNL     1       8.700   8.784  18.474  0.00  0.00    +0.000 C 
BRANCH  17  18
ATOM     18  C   UNL     1       7.444   8.317  17.711  0.00  0.00    +0.000 C 
BRANCH  18  19
ATOM     19  N   UNL     1       7.595   6.974  17.115  0.00  0.00    +0.000 NA
ATOM     20  C   UNL     1       7.621   5.896  18.135  0.00  0.00    +0.000 C 
ATOM     21  C   UNL     1       6.282   5.631  18.861  0.00  0.00    +0.000 C 
ATOM     22  N   UNL     1       5.216   5.370  17.879  0.00  0.00    +0.000 N 
ATOM     23  C   UNL     1       5.106   6.388  16.812  0.00  0.00    +0.000 C 
ATOM     24  C   UNL     1       6.492   6.671  16.173  0.00  0.00    +0.000 C 
BRANCH  22  25
ATOM     25  C   UNL     1       4.132   4.534  18.148  0.00  0.00    +0.000 A 
ATOM     26  C   UNL     1       4.153   3.255  17.542  0.00  0.00    +0.000 A 
ATOM     27  C   UNL     1       3.171   2.289  17.762  0.00  0.00    +0.000 A 
ATOM     28  C   UNL     1       2.129   2.560  18.632  0.00  0.00    +0.000 A 
ATOM     29  C   UNL     1       2.061   3.802  19.262  0.00  0.00    +0.000 A 
ATOM     30 CL   UNL     1       0.726   4.039  20.347  0.00  0.00    +0.000 Cl
ATOM     31  C   UNL     1       3.038   4.797  19.018  0.00  0.00    +0.000 A 
ATOM     32 CL   UNL     1       2.792   6.360  19.747  0.00  0.00    +0.000 Cl
ENDBRANCH  22  25
ENDBRANCH  18  19
ENDBRANCH  17  18
ENDBRANCH   3  17
TORSDOF 7
ENDMDL
MODEL 2
REMARK VINA RESULT:      -7.4      0.661      2.415
REMARK  Name = 
REMARK  8 active torsions:
REMARK  status: ('A' for Active; 'I' for Inactive)
REMARK    1  A    between atoms: C_1  and  O_2
REMARK    2  A    between atoms: O_2  and  C_3
REMARK    3  A    between atoms: C_9  and  O_10
REMARK    4  A    between atoms: C_11  and  C_12
REMARK    5  A    between atoms: N_14  and  C_15
REMARK    6  A    between atoms: C_15  and  C_16
REMARK    7  A    between atoms: C_16  and  N_17
REMARK    8  A    between atoms: N_20  and  C_21
REMARK                            x       y       z     vdW  Elec       q    Type
REMARK                         _______ _______ _______ _____ _____    ______ ____
ROOT
ATOM      1  C   UNL     1       9.598  10.904  19.194  0.00  0.00    +0.000 C 
ATOM      2  O   UNL     1      10.759  10.553  19.000  0.00  0.00    +0.000 OA
ATOM      3  N   UNL     1       8.531  10.083  18.882  0.00  0.00    +0.000 N 
ATOM      4  H   UNL     1       7.623  10.325  19.264  0.00  0.00    +0.000 HD
ENDROOT
BRANCH   1  12
ATOM      5  C   UNL     1       9.255  13.422  19.008  0.00  0.00    +0.000 A 
ATOM      6  C   UNL     1       8.953  14.658  19.629  0.00  0.00    +0.000 A 
ATOM      7 CL   UNL     1       8.780  16.178  18.820  0.00  0.00    +0.000 Cl
ATOM      8  C   UNL     1       8.697  14.727  21.001  0.00  0.00    +0.000 A 
ATOM      9  C   UNL     1       8.697  13.568  21.769  0.00  0.00    +0.000 A 
ATOM     10 CL   UNL     1       8.323  13.683  23.453  0.00  0.00    +0.000 Cl
ATOM     11  C   UNL     1       8.973  12.333  21.185  0.00  0.00    +0.000 A 
ATOM     12  C   UNL     1       9.270  12.242  19.808  0.00  0.00    +0.000 A 
BRANCH   5  14
ATOM     13  C   UNL     1      10.651  13.572  17.034  0.00  0.00    +0.000 C 
ATOM     14  O   UNL     1       9.424  13.231  17.661  0.00  0.00    +0.000 OA
ENDBRANCH   5  14
BRANCH  11  15
ATOM     15  O   UNL     1       8.938  11.208  21.980  0.00  0.00    +0.000 OA
ATOM     16  H   UNL     1       9.791  11.155  22.458  0.00  0.00    +0.000 HD
ENDBRANCH  11  15
ENDBRANCH   1  12
BRANCH   3  17
ATOM     17  C   UNL     1       8.698   8.789  18.253  0.00  0.00    +0.000 C 
BRANCH  17  18
ATOM     18  C   UNL     1       7.388   8.228  17.664  0.00  0.00    +0.000 C 
BRANCH  18  19
ATOM     19  N   UNL     1       7.545   6.878  17.086  0.00  0.00    +0.000 NA
ATOM     20  C   UNL     1       7.593   5.815  18.121  0.00  0.00    +0.000 C 
ATOM     21  C   UNL     1       6.264   5.548  18.865  0.00  0.00    +0.000 C 
ATOM     22  N   UNL     1       5.190   5.263  17.898  0.00  0.00    +0.000 N 
ATOM     23  C   UNL     1       5.059   6.265  16.818  0.00  0.00    +0.000 C 
ATOM     24  C   UNL     1       6.435   6.551  16.160  0.00  0.00    +0.000 C 
BRANCH  22  25
ATOM     25  C   UNL     1       4.116   4.422  18.191  0.00  0.00    +0.000 A 
ATOM     26  C   UNL     1       4.167   3.117  17.644  0.00  0.00    +0.000 A 
ATOM     27  C   UNL     1       3.199   2.144  17.895  0.00  0.00    +0.000 A 
ATOM     28  C   UNL     1       2.141   2.436  18.738  0.00  0.00    +0.000 A 
ATOM     29  C   UNL     1       2.043   3.704  19.310  0.00  0.00    +0.000 A 
ATOM     30 CL   UNL     1       0.690   3.966  20.366  0.00  0.00    +0.000 Cl
ATOM     31  C   UNL     1       3.007   4.703  19.034  0.00  0.00    +0.000 A 
ATOM     32 CL   UNL     1       2.724   6.294  19.689  0.00  0.00    +0.000 Cl
ENDBRANCH  22  25
ENDBRANCH  18  19
ENDBRANCH  17  18
ENDBRANCH   3  17
TORSDOF 7
ENDMDL
MODEL 3
REMARK VINA RESULT:      -7.3      7.140     10.872
REMARK  Name = 
REMARK  8 active torsions:
REMARK  status: ('A' for Active; 'I' for Inactive)
REMARK    1  A    between atoms: C_1  and  O_2
REMARK    2  A    between atoms: O_2  and  C_3
REMARK    3  A    between atoms: C_9  and  O_10
REMARK    4  A    between atoms: C_11  and  C_12
REMARK    5  A    between atoms: N_14  and  C_15
REMARK    6  A    between atoms: C_15  and  C_16
REMARK    7  A    between atoms: C_16  and  N_17
REMARK    8  A    between atoms: N_20  and  C_21
REMARK                            x       y       z     vdW  Elec       q    Type
REMARK                         _______ _______ _______ _____ _____    ______ ____
ROOT
ATOM      1  C   UNL     1       2.589   7.125  18.744  0.00  0.00    +0.000 C 
ATOM      2  O   UNL     1       2.435   7.401  19.931  0.00  0.00    +0.000 OA
ATOM      3  N   UNL     1       2.465   8.082  17.755  0.00  0.00    +0.000 N 
ATOM      4  H   UNL     1       2.818   7.854  16.831  0.00  0.00    +0.000 HD
ENDROOT
BRANCH   1  12
ATOM      5  C   UNL     1       3.979   5.519  17.337  0.00  0.00    +0.000 A 
ATOM      6  C   UNL     1       4.273   4.192  16.939  0.00  0.00    +0.000 A 
ATOM      7 CL   UNL     1       5.550   3.719  15.872  0.00  0.00    +0.000 Cl
ATOM      8  C   UNL     1       3.556   3.111  17.460  0.00  0.00    +0.000 A 
ATOM      9  C   UNL     1       2.564   3.327  18.410  0.00  0.00    +0.000 A 
ATOM     10 CL   UNL     1       1.734   1.963  19.073  0.00  0.00    +0.000 Cl
ATOM     11  C   UNL     1       2.262   4.619  18.836  0.00  0.00    +0.000 A 
ATOM     12  C   UNL     1       2.948   5.729  18.298  0.00  0.00    +0.000 A 
BRANCH   5  14
ATOM     13  C   UNL     1       6.044   6.785  17.335  0.00  0.00    +0.000 C 
ATOM     14  O   UNL     1       4.683   6.634  16.963  0.00  0.00    +0.000 OA
ENDBRANCH   5  14
BRANCH  11  15
ATOM     15  O   UNL     1       1.288   4.783  19.797  0.00  0.00    +0.000 OA
ATOM     16  H   UNL     1       0.426   4.854  19.339  0.00  0.00    +0.000 HD
ENDBRANCH  11  15
ENDBRANCH   1  12
BRANCH   3  17
ATOM     17  C   UNL     1       2.087   9.452  18.036  0.00  0.00    +0.000 C 
BRANCH  17  18
ATOM     18  C   UNL     1       0.566   9.693  17.944  0.00  0.00    +0.000 C 
BRANCH  18  19
ATOM     19  N   UNL     1      -0.054   9.983  19.253  0.00  0.00    +0.000 NA
ATOM     20  C   UNL     1       0.773  10.890  20.087  0.00  0.00    +0.000 C 
ATOM     21  C   UNL     1       0.866  12.353  19.594  0.00  0.00    +0.000 C 
ATOM     22  N   UNL     1      -0.484  12.916  19.421  0.00  0.00    +0.000 N 
ATOM     23  C   UNL     1      -1.393  12.084  18.604  0.00  0.00    +0.000 C 
ATOM     24  C   UNL     1      -1.386  10.612  19.095  0.00  0.00    +0.000 C 
BRANCH  22  25
ATOM     25  C   UNL     1      -0.763  14.272  19.598  0.00  0.00    +0.000 A 
ATOM     26  C   UNL     1      -0.150  15.168  18.689  0.00  0.00    +0.000 A 
ATOM     27  C   UNL     1      -0.378  16.544  18.702  0.00  0.00    +0.000 A 
ATOM     28  C   UNL     1      -1.264  17.081  19.620  0.00  0.00    +0.000 A 
ATOM     29  C   UNL     1      -1.901  16.244  20.535  0.00  0.00    +0.000 A 
ATOM     30 CL   UNL     1      -3.005  17.011  21.634  0.00  0.00    +0.000 Cl
ATOM     31  C   UNL     1      -1.650  14.851  20.546  0.00  0.00    +0.000 A 
ATOM     32 CL   UNL     1      -2.391  13.912  21.813  0.00  0.00    +0.000 Cl
ENDBRANCH  22  25
ENDBRANCH  18  19
ENDBRANCH  17  18
ENDBRANCH   3  17
TORSDOF 7
ENDMDL
MODEL 4
REMARK VINA RESULT:      -7.2      1.521      2.932
REMARK  Name = 
REMARK  8 active torsions:
REMARK  status: ('A' for Active; 'I' for Inactive)
REMARK    1  A    between atoms: C_1  and  O_2
REMARK    2  A    between atoms: O_2  and  C_3
REMARK    3  A    between atoms: C_9  and  O_10
REMARK    4  A    between atoms: C_11  and  C_12
REMARK    5  A    between atoms: N_14  and  C_15
REMARK    6  A    between atoms: C_15  and  C_16
REMARK    7  A    between atoms: C_16  and  N_17
REMARK    8  A    between atoms: N_20  and  C_21
REMARK                            x       y       z     vdW  Elec       q    Type
REMARK                         _______ _______ _______ _____ _____    ______ ____
ROOT
ATOM      1  C   UNL     1       9.223  10.598  19.079  0.00  0.00    +0.000 C 
ATOM      2  O   UNL     1      10.340  10.118  18.901  0.00  0.00    +0.000 OA
ATOM      3  N   UNL     1       8.101  10.063  18.475  0.00  0.00    +0.000 N 
ATOM      4  H   UNL     1       7.194  10.351  18.827  0.00  0.00    +0.000 HD
ENDROOT
BRANCH   1  12
ATOM      5  C   UNL     1       8.878  13.096  19.442  0.00  0.00    +0.000 A 
ATOM      6  C   UNL     1       8.690  14.181  20.332  0.00  0.00    +0.000 A 
ATOM      7 CL   UNL     1       8.405  15.824  19.872  0.00  0.00    +0.000 Cl
ATOM      8  C   UNL     1       8.653  13.977  21.714  0.00  0.00    +0.000 A 
ATOM      9  C   UNL     1       8.763  12.691  22.232  0.00  0.00    +0.000 A 
ATOM     10 CL   UNL     1       8.660  12.469  23.943  0.00  0.00    +0.000 Cl
ATOM     11  C   UNL     1       8.932  11.599  21.382  0.00  0.00    +0.000 A 
ATOM     12  C   UNL     1       9.008  11.784  19.985  0.00  0.00    +0.000 A 
BRANCH   5  14
ATOM     13  C   UNL     1       7.637  13.562  17.415  0.00  0.00    +0.000 C 
ATOM     14  O   UNL     1       8.832  13.174  18.075  0.00  0.00    +0.000 OA
ENDBRANCH   5  14
BRANCH  11  15
ATOM     15  O   UNL     1       9.013  10.341  21.938  0.00  0.00    +0.000 OA
ATOM     16  H   UNL     1       9.289  10.445  22.872  0.00  0.00    +0.000 HD
ENDBRANCH  11  15
ENDBRANCH   1  12
BRANCH   3  17
ATOM     17  C   UNL     1       8.165   8.949  17.552  0.00  0.00    +0.000 C 
BRANCH  17  18
ATOM     18  C   UNL     1       7.971   7.581  18.237  0.00  0.00    +0.000 C 
BRANCH  18  19
ATOM     19  N   UNL     1       7.389   6.562  17.341  0.00  0.00    +0.000 NA
ATOM     20  C   UNL     1       7.266   5.233  17.990  0.00  0.00    +0.000 C 
ATOM     21  C   UNL     1       6.202   5.132  19.108  0.00  0.00    +0.000 C 
ATOM     22  N   UNL     1       4.890   5.568  18.600  0.00  0.00    +0.000 N 
ATOM     23  C   UNL     1       4.903   6.886  17.928  0.00  0.00    +0.000 C 
ATOM     24  C   UNL     1       6.039   6.957  16.874  0.00  0.00    +0.000 C 
BRANCH  22  25
ATOM     25  C   UNL     1       3.686   5.051  19.080  0.00  0.00    +0.000 A 
ATOM     26  C   UNL     1       3.020   5.812  20.071  0.00  0.00    +0.000 A 
ATOM     27  C   UNL     1       1.782   5.457  20.604  0.00  0.00    +0.000 A 
ATOM     28  C   UNL     1       1.138   4.322  20.139  0.00  0.00    +0.000 A 
ATOM     29  C   UNL     1       1.745   3.538  19.158  0.00  0.00    +0.000 A 
ATOM     30 CL   UNL     1       0.851   2.146  18.630  0.00  0.00    +0.000 Cl
ATOM     31  C   UNL     1       3.016   3.879  18.636  0.00  0.00    +0.000 A 
ATOM     32 CL   UNL     1       3.748   2.763  17.515  0.00  0.00    +0.000 Cl
ENDBRANCH  22  25
ENDBRANCH  18  19
ENDBRANCH  17  18
ENDBRANCH   3  17
TORSDOF 7
ENDMDL
MODEL 5
REMARK VINA RESULT:      -7.1      3.035      9.857
REMARK  Name = 
REMARK  8 active torsions:
REMARK  status: ('A' for Active; 'I' for Inactive)
REMARK    1  A    between atoms: C_1  and  O_2
REMARK    2  A    between atoms: O_2  and  C_3
REMARK    3  A    between atoms: C_9  and  O_10
REMARK    4  A    between atoms: C_11  and  C_12
REMARK    5  A    between atoms: N_14  and  C_15
REMARK    6  A    between atoms: C_15  and  C_16
REMARK    7  A    between atoms: C_16  and  N_17
REMARK    8  A    between atoms: N_20  and  C_21
REMARK                            x       y       z     vdW  Elec       q    Type
REMARK                         _______ _______ _______ _____ _____    ______ ____
ROOT
ATOM      1  C   UNL     1       7.412   6.418  18.124  0.00  0.00    +0.000 C 
ATOM      2  O   UNL     1       8.006   5.978  19.104  0.00  0.00    +0.000 OA
ATOM      3  N   UNL     1       7.600   7.716  17.686  0.00  0.00    +0.000 N 
ATOM      4  H   UNL     1       7.264   7.953  16.758  0.00  0.00    +0.000 HD
ENDROOT
BRANCH   1  12
ATOM      5  C   UNL     1       5.299   5.007  17.937  0.00  0.00    +0.000 A 
ATOM      6  C   UNL     1       4.441   4.199  17.152  0.00  0.00    +0.000 A 
ATOM      7 CL   UNL     1       2.936   3.524  17.673  0.00  0.00    +0.000 Cl
ATOM      8  C   UNL     1       4.735   3.932  15.812  0.00  0.00    +0.000 A 
ATOM      9  C   UNL     1       5.861   4.493  15.221  0.00  0.00    +0.000 A 
ATOM     10 CL   UNL     1       6.165   4.185  13.548  0.00  0.00    +0.000 Cl
ATOM     11  C   UNL     1       6.717   5.307  15.962  0.00  0.00    +0.000 A 
ATOM     12  C   UNL     1       6.461   5.562  17.326  0.00  0.00    +0.000 A 
BRANCH   5  14
ATOM     13  C   UNL     1       3.751   5.810  19.618  0.00  0.00    +0.000 C 
ATOM     14  O   UNL     1       5.053   5.407  19.225  0.00  0.00    +0.000 OA
ENDBRANCH   5  14
BRANCH  11  15
ATOM     15  O   UNL     1       7.808   5.860  15.327  0.00  0.00    +0.000 OA
ATOM     16  H   UNL     1       7.808   5.542  14.402  0.00  0.00    +0.000 HD
ENDBRANCH  11  15
ENDBRANCH   1  12
BRANCH   3  17
ATOM     17  C   UNL     1       8.453   8.659  18.378  0.00  0.00    +0.000 C 
BRANCH  17  18
ATOM     18  C   UNL     1       8.212  10.121  17.952  0.00  0.00    +0.000 C 
BRANCH  18  19
ATOM     19  N   UNL     1       9.447  10.931  17.938  0.00  0.00    +0.000 NA
ATOM     20  C   UNL     1       9.176  12.384  17.809  0.00  0.00    +0.000 C 
ATOM     21  C   UNL     1       8.525  13.055  19.041  0.00  0.00    +0.000 C 
ATOM     22  N   UNL     1       9.334  12.797  20.244  0.00  0.00    +0.000 N 
ATOM     23  C   UNL     1       9.665  11.373  20.465  0.00  0.00    +0.000 C 
ATOM     24  C   UNL     1      10.240  10.733  19.174  0.00  0.00    +0.000 C 
BRANCH  22  25
ATOM     25  C   UNL     1       9.404  13.694  21.311  0.00  0.00    +0.000 A 
ATOM     26  C   UNL     1      10.382  14.714  21.218  0.00  0.00    +0.000 A 
ATOM     27  C   UNL     1      10.534  15.717  22.175  0.00  0.00    +0.000 A 
ATOM     28  C   UNL     1       9.682  15.756  23.265  0.00  0.00    +0.000 A 
ATOM     29  C   UNL     1       8.695  14.780  23.405  0.00  0.00    +0.000 A 
ATOM     30 CL   UNL     1       7.667  14.925  24.796  0.00  0.00    +0.000 Cl
ATOM     31  C   UNL     1       8.557  13.742  22.452  0.00  0.00    +0.000 A 
ATOM     32 CL   UNL     1       7.384  12.497  22.786  0.00  0.00    +0.000 Cl
ENDBRANCH  22  25
ENDBRANCH  18  19
ENDBRANCH  17  18
ENDBRANCH   3  17
TORSDOF 7
ENDMDL
MODEL 6
REMARK VINA RESULT:      -7.1      1.665      2.173
REMARK  Name = 
REMARK  8 active torsions:
REMARK  status: ('A' for Active; 'I' for Inactive)
REMARK    1  A    between atoms: C_1  and  O_2
REMARK    2  A    between atoms: O_2  and  C_3
REMARK    3  A    between atoms: C_9  and  O_10
REMARK    4  A    between atoms: C_11  and  C_12
REMARK    5  A    between atoms: N_14  and  C_15
REMARK    6  A    between atoms: C_15  and  C_16
REMARK    7  A    between atoms: C_16  and  N_17
REMARK    8  A    between atoms: N_20  and  C_21
REMARK                            x       y       z     vdW  Elec       q    Type
REMARK                         _______ _______ _______ _____ _____    ______ ____
ROOT
ATOM      1  C   UNL     1       9.348  10.589  19.382  0.00  0.00    +0.000 C 
ATOM      2  O   UNL     1       9.434  10.148  20.524  0.00  0.00    +0.000 OA
ATOM      3  N   UNL     1       8.838   9.828  18.347  0.00  0.00    +0.000 N 
ATOM      4  H   UNL     1       8.585  10.308  17.489  0.00  0.00    +0.000 HD
ENDROOT
BRANCH   1  12
ATOM      5  C   UNL     1       9.332  13.096  19.839  0.00  0.00    +0.000 A 
ATOM      6  C   UNL     1       9.746  14.401  19.478  0.00  0.00    +0.000 A 
ATOM      7 CL   UNL     1       9.411  15.847  20.366  0.00  0.00    +0.000 Cl
ATOM      8  C   UNL     1      10.553  14.613  18.356  0.00  0.00    +0.000 A 
ATOM      9  C   UNL     1      10.991  13.533  17.599  0.00  0.00    +0.000 A 
ATOM     10 CL   UNL     1      12.031  13.827  16.250  0.00  0.00    +0.000 Cl
ATOM     11  C   UNL     1      10.616  12.234  17.938  0.00  0.00    +0.000 A 
ATOM     12  C   UNL     1       9.773  11.997  19.045  0.00  0.00    +0.000 A 
BRANCH   5  14
ATOM     13  C   UNL     1       7.566  13.599  21.418  0.00  0.00    +0.000 C 
ATOM     14  O   UNL     1       8.627  12.771  20.968  0.00  0.00    +0.000 OA
ENDBRANCH   5  14
BRANCH  11  15
ATOM     15  O   UNL     1      11.094  11.192  17.173  0.00  0.00    +0.000 OA
ATOM     16  H   UNL     1      10.414  10.976  16.504  0.00  0.00    +0.000 HD
ENDBRANCH  11  15
ENDBRANCH   1  12
BRANCH   3  17
ATOM     17  C   UNL     1       8.428   8.450  18.519  0.00  0.00    +0.000 C 
BRANCH  17  18
ATOM     18  C   UNL     1       7.573   7.922  17.349  0.00  0.00    +0.000 C 
BRANCH  18  19
ATOM     19  N   UNL     1       7.535   6.446  17.280  0.00  0.00    +0.000 NA
ATOM     20  C   UNL     1       7.425   5.815  18.618  0.00  0.00    +0.000 C 
ATOM     21  C   UNL     1       6.069   6.004  19.336  0.00  0.00    +0.000 C 
ATOM     22  N   UNL     1       4.969   5.548  18.471  0.00  0.00    +0.000 N 
ATOM     23  C   UNL     1       4.988   6.118  17.106  0.00  0.00    +0.000 C 
ATOM     24  C   UNL     1       6.393   5.970  16.465  0.00  0.00    +0.000 C 
BRANCH  22  25
ATOM     25  C   UNL     1       3.784   5.013  18.977  0.00  0.00    +0.000 A 
ATOM     26  C   UNL     1       3.105   5.786  19.950  0.00  0.00    +0.000 A 
ATOM     27  C   UNL     1       1.881   5.412  20.505  0.00  0.00    +0.000 A 
ATOM     28  C   UNL     1       1.266   4.247  20.081  0.00  0.00    +0.000 A 
ATOM     29  C   UNL     1       1.887   3.449  19.120  0.00  0.00    +0.000 A 
ATOM     30 CL   UNL     1       1.028   2.017  18.643  0.00  0.00    +0.000 Cl
ATOM     31  C   UNL     1       3.143   3.808  18.576  0.00  0.00    +0.000 A 
ATOM     32 CL   UNL     1       3.897   2.679  17.484  0.00  0.00    +0.000 Cl
ENDBRANCH  22  25
ENDBRANCH  18  19
ENDBRANCH  17  18
ENDBRANCH   3  17
TORSDOF 7
ENDMDL
MODEL 7
REMARK VINA RESULT:      -7.0      7.904     10.970
REMARK  Name = 
REMARK  8 active torsions:
REMARK  status: ('A' for Active; 'I' for Inactive)
REMARK    1  A    between atoms: C_1  and  O_2
REMARK    2  A    between atoms: O_2  and  C_3
REMARK    3  A    between atoms: C_9  and  O_10
REMARK    4  A    between atoms: C_11  and  C_12
REMARK    5  A    between atoms: N_14  and  C_15
REMARK    6  A    between atoms: C_15  and  C_16
REMARK    7  A    between atoms: C_16  and  N_17
REMARK    8  A    between atoms: N_20  and  C_21
REMARK                            x       y       z     vdW  Elec       q    Type
REMARK                         _______ _______ _______ _____ _____    ______ ____
ROOT
ATOM      1  C   UNL     1       2.184   7.275  19.314  0.00  0.00    +0.000 C 
ATOM      2  O   UNL     1       2.218   7.523  20.516  0.00  0.00    +0.000 OA
ATOM      3  N   UNL     1       1.829   8.237  18.387  0.00  0.00    +0.000 N 
ATOM      4  H   UNL     1       2.031   8.047  17.410  0.00  0.00    +0.000 HD
ENDROOT
BRANCH   1  12
ATOM      5  C   UNL     1       3.478   5.786  17.702  0.00  0.00    +0.000 A 
ATOM      6  C   UNL     1       3.782   4.489  17.222  0.00  0.00    +0.000 A 
ATOM      7 CL   UNL     1       4.954   4.113  16.006  0.00  0.00    +0.000 Cl
ATOM      8  C   UNL     1       3.172   3.359  17.773  0.00  0.00    +0.000 A 
ATOM      9  C   UNL     1       2.282   3.494  18.832  0.00  0.00    +0.000 A 
ATOM     10 CL   UNL     1       1.587   2.071  19.525  0.00  0.00    +0.000 Cl
ATOM     11  C   UNL     1       1.974   4.755  19.340  0.00  0.00    +0.000 A 
ATOM     12  C   UNL     1       2.550   5.914  18.777  0.00  0.00    +0.000 A 
BRANCH   5  14
ATOM     13  C   UNL     1       5.504   7.044  17.281  0.00  0.00    +0.000 C 
ATOM     14  O   UNL     1       4.089   6.944  17.299  0.00  0.00    +0.000 OA
ENDBRANCH   5  14
BRANCH  11  15
ATOM     15  O   UNL     1       1.105   4.840  20.406  0.00  0.00    +0.000 OA
ATOM     16  H   UNL     1       1.619   4.673  21.223  0.00  0.00    +0.000 HD
ENDBRANCH  11  15
ENDBRANCH   1  12
BRANCH   3  17
ATOM     17  C   UNL     1       1.417   9.573  18.764  0.00  0.00    +0.000 C 
BRANCH  17  18
ATOM     18  C   UNL     1      -0.115   9.746  18.806  0.00  0.00    +0.000 C 
BRANCH  18  19
ATOM     19  N   UNL     1      -0.632  10.595  17.713  0.00  0.00    +0.000 NA
ATOM     20  C   UNL     1      -1.841  10.024  17.071  0.00  0.00    +0.000 C 
ATOM     21  C   UNL     1      -3.123  10.030  17.936  0.00  0.00    +0.000 C 
ATOM     22  N   UNL     1      -3.403  11.393  18.418  0.00  0.00    +0.000 N 
ATOM     23  C   UNL     1      -2.256  12.056  19.075  0.00  0.00    +0.000 C 
ATOM     24  C   UNL     1      -0.981  11.951  18.198  0.00  0.00    +0.000 C 
BRANCH  22  25
ATOM     25  C   UNL     1      -4.697  11.856  18.660  0.00  0.00    +0.000 A 
ATOM     26  C   UNL     1      -5.603  11.800  17.573  0.00  0.00    +0.000 A 
ATOM     27  C   UNL     1      -6.943  12.171  17.675  0.00  0.00    +0.000 A 
ATOM     28  C   UNL     1      -7.444  12.593  18.894  0.00  0.00    +0.000 A 
ATOM     29  C   UNL     1      -6.598  12.662  20.001  0.00  0.00    +0.000 A 
ATOM     30 CL   UNL     1      -7.325  13.188  21.488  0.00  0.00    +0.000 Cl
ATOM     31  C   UNL     1      -5.230  12.316  19.895  0.00  0.00    +0.000 A 
ATOM     32 CL   UNL     1      -4.228  12.564  21.299  0.00  0.00    +0.000 Cl
ENDBRANCH  22  25
ENDBRANCH  18  19
ENDBRANCH  17  18
ENDBRANCH   3  17
TORSDOF 7
ENDMDL
MODEL 8
REMARK VINA RESULT:      -7.0      3.136     10.168
REMARK  Name = 
REMARK  8 active torsions:
REMARK  status: ('A' for Active; 'I' for Inactive)
REMARK    1  A    between atoms: C_1  and  O_2
REMARK    2  A    between atoms: O_2  and  C_3
REMARK    3  A    between atoms: C_9  and  O_10
REMARK    4  A    between atoms: C_11  and  C_12
REMARK    5  A    between atoms: N_14  and  C_15
REMARK    6  A    between atoms: C_15  and  C_16
REMARK    7  A    between atoms: C_16  and  N_17
REMARK    8  A    between atoms: N_20  and  C_21
REMARK                            x       y       z     vdW  Elec       q    Type
REMARK                         _______ _______ _______ _____ _____    ______ ____
ROOT
ATOM      1  C   UNL     1       7.347   6.371  18.182  0.00  0.00    +0.000 C 
ATOM      2  O   UNL     1       7.839   5.953  19.227  0.00  0.00    +0.000 OA
ATOM      3  N   UNL     1       7.635   7.634  17.700  0.00  0.00    +0.000 N 
ATOM      4  H   UNL     1       7.386   7.839  16.738  0.00  0.00    +0.000 HD
ENDROOT
BRANCH   1  12
ATOM      5  C   UNL     1       5.249   4.947  17.930  0.00  0.00    +0.000 A 
ATOM      6  C   UNL     1       4.413   4.146  17.115  0.00  0.00    +0.000 A 
ATOM      7 CL   UNL     1       2.903   3.452  17.594  0.00  0.00    +0.000 Cl
ATOM      8  C   UNL     1       4.736   3.903  15.777  0.00  0.00    +0.000 A 
ATOM      9  C   UNL     1       5.870   4.481  15.218  0.00  0.00    +0.000 A 
ATOM     10 CL   UNL     1       6.210   4.203  13.547  0.00  0.00    +0.000 Cl
ATOM     11  C   UNL     1       6.704   5.289  15.989  0.00  0.00    +0.000 A 
ATOM     12  C   UNL     1       6.419   5.521  17.351  0.00  0.00    +0.000 A 
BRANCH   5  14
ATOM     13  C   UNL     1       3.669   5.745  19.584  0.00  0.00    +0.000 C 
ATOM     14  O   UNL     1       4.974   5.325  19.219  0.00  0.00    +0.000 OA
ENDBRANCH   5  14
BRANCH  11  15
ATOM     15  O   UNL     1       7.804   5.861  15.386  0.00  0.00    +0.000 OA
ATOM     16  H   UNL     1       8.221   5.180  14.819  0.00  0.00    +0.000 HD
ENDBRANCH  11  15
ENDBRANCH   1  12
BRANCH   3  17
ATOM     17  C   UNL     1       8.479   8.570  18.413  0.00  0.00    +0.000 C 
BRANCH  17  18
ATOM     18  C   UNL     1       8.223  10.039  18.020  0.00  0.00    +0.000 C 
BRANCH  18  19
ATOM     19  N   UNL     1       9.458  10.847  17.967  0.00  0.00    +0.000 NA
ATOM     20  C   UNL     1       9.187  12.289  17.746  0.00  0.00    +0.000 C 
ATOM     21  C   UNL     1       8.526  13.033  18.930  0.00  0.00    +0.000 C 
ATOM     22  N   UNL     1       9.325  12.851  20.153  0.00  0.00    +0.000 N 
ATOM     23  C   UNL     1       9.655  11.443  20.464  0.00  0.00    +0.000 C 
ATOM     24  C   UNL     1      10.241  10.726  19.219  0.00  0.00    +0.000 C 
BRANCH  22  25
ATOM     25  C   UNL     1       9.386  13.812  21.164  0.00  0.00    +0.000 A 
ATOM     26  C   UNL     1       8.394  13.734  22.172  0.00  0.00    +0.000 A 
ATOM     27  C   UNL     1       8.359  14.586  23.276  0.00  0.00    +0.000 A 
ATOM     28  C   UNL     1       9.345  15.545  23.431  0.00  0.00    +0.000 A 
ATOM     29  C   UNL     1      10.351  15.662  22.471  0.00  0.00    +0.000 A 
ATOM     30 CL   UNL     1      11.550  16.883  22.765  0.00  0.00    +0.000 Cl
ATOM     31  C   UNL     1      10.373  14.820  21.334  0.00  0.00    +0.000 A 
ATOM     32 CL   UNL     1      11.591  15.134  20.127  0.00  0.00    +0.000 Cl
ENDBRANCH  22  25
ENDBRANCH  18  19
ENDBRANCH  17  18
ENDBRANCH   3  17
TORSDOF 7
ENDMDL
MODEL 9
REMARK VINA RESULT:      -7.0      8.261      9.962
REMARK  Name = 
REMARK  8 active torsions:
REMARK  status: ('A' for Active; 'I' for Inactive)
REMARK    1  A    between atoms: C_1  and  O_2
REMARK    2  A    between atoms: O_2  and  C_3
REMARK    3  A    between atoms: C_9  and  O_10
REMARK    4  A    between atoms: C_11  and  C_12
REMARK    5  A    between atoms: N_14  and  C_15
REMARK    6  A    between atoms: C_15  and  C_16
REMARK    7  A    between atoms: C_16  and  N_17
REMARK    8  A    between atoms: N_20  and  C_21
REMARK                            x       y       z     vdW  Elec       q    Type
REMARK                         _______ _______ _______ _____ _____    ______ ____
ROOT
ATOM      1  C   UNL     1      -1.816  12.902  20.223  0.00  0.00    +0.000 C 
ATOM      2  O   UNL     1      -1.360  13.742  19.452  0.00  0.00    +0.000 OA
ATOM      3  N   UNL     1      -0.995  12.125  21.018  0.00  0.00    +0.000 N 
ATOM      4  H   UNL     1      -1.424  11.617  21.785  0.00  0.00    +0.000 HD
ENDROOT
BRANCH   1  12
ATOM      5  C   UNL     1      -3.957  12.950  21.604  0.00  0.00    +0.000 A 
ATOM      6  C   UNL     1      -5.352  12.720  21.695  0.00  0.00    +0.000 A 
ATOM      7 CL   UNL     1      -6.345  13.077  23.066  0.00  0.00    +0.000 Cl
ATOM      8  C   UNL     1      -6.070  12.226  20.602  0.00  0.00    +0.000 A 
ATOM      9  C   UNL     1      -5.425  11.989  19.394  0.00  0.00    +0.000 A 
ATOM     10 CL   UNL     1      -6.353  11.429  18.049  0.00  0.00    +0.000 Cl
ATOM     11  C   UNL     1      -4.056  12.221  19.267  0.00  0.00    +0.000 A 
ATOM     12  C   UNL     1      -3.302  12.686  20.366  0.00  0.00    +0.000 A 
BRANCH   5  14
ATOM     13  C   UNL     1      -3.273  14.911  22.850  0.00  0.00    +0.000 C 
ATOM     14  O   UNL     1      -3.182  13.521  22.579  0.00  0.00    +0.000 OA
ENDBRANCH   5  14
BRANCH  11  15
ATOM     15  O   UNL     1      -3.463  11.995  18.043  0.00  0.00    +0.000 OA
ATOM     16  H   UNL     1      -2.710  11.386  18.185  0.00  0.00    +0.000 HD
ENDBRANCH  11  15
ENDBRANCH   1  12
BRANCH   3  17
ATOM     17  C   UNL     1       0.450  12.200  20.957  0.00  0.00    +0.000 C 
BRANCH  17  18
ATOM     18  C   UNL     1       1.055  11.334  19.833  0.00  0.00    +0.000 C 
BRANCH  18  19
ATOM     19  N   UNL     1       0.231  10.153  19.506  0.00  0.00    +0.000 NA
ATOM     20  C   UNL     1       0.503   9.627  18.145  0.00  0.00    +0.000 C 
ATOM     21  C   UNL     1       1.882   8.954  17.953  0.00  0.00    +0.000 C 
ATOM     22  N   UNL     1       2.071   7.890  18.953  0.00  0.00    +0.000 N 
ATOM     23  C   UNL     1       1.820   8.311  20.348  0.00  0.00    +0.000 C 
ATOM     24  C   UNL     1       0.460   9.048  20.467  0.00  0.00    +0.000 C 
BRANCH  22  25
ATOM     25  C   UNL     1       2.836   6.749  18.705  0.00  0.00    +0.000 A 
ATOM     26  C   UNL     1       3.842   6.864  17.715  0.00  0.00    +0.000 A 
ATOM     27  C   UNL     1       4.724   5.832  17.398  0.00  0.00    +0.000 A 
ATOM     28  C   UNL     1       4.650   4.634  18.088  0.00  0.00    +0.000 A 
ATOM     29  C   UNL     1       3.682   4.466  19.077  0.00  0.00    +0.000 A 
ATOM     30 CL   UNL     1       3.681   2.935  19.896  0.00  0.00    +0.000 Cl
ATOM     31  C   UNL     1       2.765   5.501  19.382  0.00  0.00    +0.000 A 
ATOM     32 CL   UNL     1       1.510   5.147  20.538  0.00  0.00    +0.000 Cl
ENDBRANCH  22  25
ENDBRANCH  18  19
ENDBRANCH  17  18
ENDBRANCH   3  17
TORSDOF 7
ENDMDL
