MODEL 1
REMARK VINA RESULT:      -6.1      0.000      0.000
REMARK  Name = 
REMARK  1 active torsions:
REMARK  status: ('A' for Active; 'I' for Inactive)
REMARK    1  A    between atoms: C_4  and  C_5
REMARK                            x       y       z     vdW  Elec       q    Type
REMARK                         _______ _______ _______ _____ _____    ______ ____
ROOT
ATOM      1  N   UNL     1       7.969   5.340  19.703  0.00  0.00    +0.000 N 
ATOM      2  C   UNL     1       7.647   5.582  18.429  0.00  0.00    +0.000 A 
ATOM      3  N   UNL     1       7.627   4.751  17.424  0.00  0.00    +0.000 NA
ATOM      4  C   UNL     1       7.228   5.560  16.373  0.00  0.00    +0.000 A 
ATOM      5  N   UNL     1       7.037   6.846  16.723  0.00  0.00    +0.000 NA
ATOM      6  O   UNL     1       7.312   6.856  18.090  0.00  0.00    +0.000 OA
ATOM      7  H   UNL     1       8.512   4.505  19.881  0.00  0.00    +0.000 HD
ATOM      8  H   UNL     1       8.210   6.133  20.286  0.00  0.00    +0.000 HD
ENDROOT
BRANCH   4   9
ATOM      9  C   UNL     1       7.034   5.033  15.019  0.00  0.00    +0.000 A 
ATOM     10  C   UNL     1       6.037   4.090  14.773  0.00  0.00    +0.000 A 
ATOM     11  C   UNL     1       5.866   3.611  13.478  0.00  0.00    +0.000 A 
ATOM     12  C   UNL     1       6.694   4.080  12.466  0.00  0.00    +0.000 A 
ATOM     13  C   UNL     1       7.662   5.014  12.791  0.00  0.00    +0.000 A 
ATOM     14  N   UNL     1       7.850   5.499  14.038  0.00  0.00    +0.000 NA
ENDBRANCH   4   9
TORSDOF 1
ENDMDL
MODEL 2
REMARK VINA RESULT:      -6.1      4.179      5.399
REMARK  Name = 
REMARK  1 active torsions:
REMARK  status: ('A' for Active; 'I' for Inactive)
REMARK    1  A    between atoms: C_4  and  C_5
REMARK                            x       y       z     vdW  Elec       q    Type
REMARK                         _______ _______ _______ _____ _____    ______ ____
ROOT
ATOM      1  N   UNL     1       7.657   4.831  15.975  0.00  0.00    +0.000 N 
ATOM      2  C   UNL     1       6.745   4.529  16.903  0.00  0.00    +0.000 A 
ATOM      3  N   UNL     1       5.483   4.244  16.740  0.00  0.00    +0.000 NA
ATOM      4  C   UNL     1       5.054   4.029  18.040  0.00  0.00    +0.000 A 
ATOM      5  N   UNL     1       6.018   4.203  18.963  0.00  0.00    +0.000 NA
ATOM      6  O   UNL     1       7.141   4.531  18.205  0.00  0.00    +0.000 OA
ATOM      7  H   UNL     1       7.303   5.139  15.078  0.00  0.00    +0.000 HD
ATOM      8  H   UNL     1       8.502   5.299  16.280  0.00  0.00    +0.000 HD
ENDROOT
BRANCH   4   9
ATOM      9  C   UNL     1       3.674   3.642  18.346  0.00  0.00    +0.000 A 
ATOM     10  C   UNL     1       2.611   4.314  17.745  0.00  0.00    +0.000 A 
ATOM     11  C   UNL     1       1.309   3.922  18.044  0.00  0.00    +0.000 A 
ATOM     12  C   UNL     1       1.103   2.877  18.936  0.00  0.00    +0.000 A 
ATOM     13  C   UNL     1       2.211   2.262  19.493  0.00  0.00    +0.000 A 
ATOM     14  N   UNL     1       3.484   2.618  19.220  0.00  0.00    +0.000 NA
ENDBRANCH   4   9
TORSDOF 1
ENDMDL
MODEL 3
REMARK VINA RESULT:      -6.0      1.577      1.756
REMARK  Name = 
REMARK  1 active torsions:
REMARK  status: ('A' for Active; 'I' for Inactive)
REMARK    1  A    between atoms: C_4  and  C_5
REMARK                            x       y       z     vdW  Elec       q    Type
REMARK                         _______ _______ _______ _____ _____    ______ ____
ROOT
ATOM      1  N   UNL     1       4.905   4.390  19.129  0.00  0.00    +0.000 N 
ATOM      2  C   UNL     1       5.744   4.439  18.090  0.00  0.00    +0.000 A 
ATOM      3  N   UNL     1       5.464   4.395  16.817  0.00  0.00    +0.000 NA
ATOM      4  C   UNL     1       6.717   4.479  16.232  0.00  0.00    +0.000 A 
ATOM      5  N   UNL     1       7.726   4.547  17.121  0.00  0.00    +0.000 NA
ATOM      6  O   UNL     1       7.076   4.525  18.354  0.00  0.00    +0.000 OA
ATOM      7  H   UNL     1       3.984   4.012  18.948  0.00  0.00    +0.000 HD
ATOM      8  H   UNL     1       5.290   4.150  20.034  0.00  0.00    +0.000 HD
ENDROOT
BRANCH   4   9
ATOM      9  C   UNL     1       6.893   4.498  14.777  0.00  0.00    +0.000 A 
ATOM     10  C   UNL     1       6.127   3.657  13.970  0.00  0.00    +0.000 A 
ATOM     11  C   UNL     1       6.306   3.698  12.590  0.00  0.00    +0.000 A 
ATOM     12  C   UNL     1       7.243   4.573  12.053  0.00  0.00    +0.000 A 
ATOM     13  C   UNL     1       7.965   5.373  12.921  0.00  0.00    +0.000 A 
ATOM     14  N   UNL     1       7.812   5.356  14.263  0.00  0.00    +0.000 NA
ENDBRANCH   4   9
TORSDOF 1
ENDMDL
MODEL 4
REMARK VINA RESULT:      -6.0      3.561      4.901
REMARK  Name = 
REMARK  1 active torsions:
REMARK  status: ('A' for Active; 'I' for Inactive)
REMARK    1  A    between atoms: C_4  and  C_5
REMARK                            x       y       z     vdW  Elec       q    Type
REMARK                         _______ _______ _______ _____ _____    ______ ____
ROOT
ATOM      1  N   UNL     1       7.689   5.334  14.462  0.00  0.00    +0.000 N 
ATOM      2  C   UNL     1       6.931   4.962  15.498  0.00  0.00    +0.000 A 
ATOM      3  N   UNL     1       5.645   4.743  15.527  0.00  0.00    +0.000 NA
ATOM      4  C   UNL     1       5.430   4.397  16.851  0.00  0.00    +0.000 A 
ATOM      5  N   UNL     1       6.543   4.429  17.606  0.00  0.00    +0.000 NA
ATOM      6  O   UNL     1       7.539   4.801  16.704  0.00  0.00    +0.000 OA
ATOM      7  H   UNL     1       7.207   5.756  13.678  0.00  0.00    +0.000 HD
ATOM      8  H   UNL     1       8.597   5.733  14.664  0.00  0.00    +0.000 HD
ENDROOT
BRANCH   4   9
ATOM      9  C   UNL     1       4.101   4.029  17.349  0.00  0.00    +0.000 A 
ATOM     10  C   UNL     1       3.160   5.019  17.627  0.00  0.00    +0.000 A 
ATOM     11  C   UNL     1       1.902   4.644  18.091  0.00  0.00    +0.000 A 
ATOM     12  C   UNL     1       1.619   3.295  18.267  0.00  0.00    +0.000 A 
ATOM     13  C   UNL     1       2.607   2.373  17.970  0.00  0.00    +0.000 A 
ATOM     14  N   UNL     1       3.835   2.707  17.518  0.00  0.00    +0.000 NA
ENDBRANCH   4   9
TORSDOF 1
ENDMDL
MODEL 5
REMARK VINA RESULT:      -5.9      4.178      5.915
REMARK  Name = 
REMARK  1 active torsions:
REMARK  status: ('A' for Active; 'I' for Inactive)
REMARK    1  A    between atoms: C_4  and  C_5
REMARK                            x       y       z     vdW  Elec       q    Type
REMARK                         _______ _______ _______ _____ _____    ______ ____
ROOT
ATOM      1  N   UNL     1       7.589   4.609  16.482  0.00  0.00    +0.000 N 
ATOM      2  C   UNL     1       6.795   4.638  17.557  0.00  0.00    +0.000 A 
ATOM      3  N   UNL     1       5.526   4.349  17.638  0.00  0.00    +0.000 NA
ATOM      4  C   UNL     1       5.254   4.564  18.979  0.00  0.00    +0.000 A 
ATOM      5  N   UNL     1       6.317   4.993  19.684  0.00  0.00    +0.000 NA
ATOM      6  O   UNL     1       7.340   5.037  18.738  0.00  0.00    +0.000 OA
ATOM      7  H   UNL     1       7.129   4.630  15.581  0.00  0.00    +0.000 HD
ATOM      8  H   UNL     1       8.458   5.127  16.526  0.00  0.00    +0.000 HD
ENDROOT
BRANCH   4   9
ATOM      9  C   UNL     1       3.924   4.329  19.547  0.00  0.00    +0.000 A 
ATOM     10  C   UNL     1       3.099   5.408  19.863  0.00  0.00    +0.000 A 
ATOM     11  C   UNL     1       1.836   5.159  20.393  0.00  0.00    +0.000 A 
ATOM     12  C   UNL     1       1.432   3.846  20.598  0.00  0.00    +0.000 A 
ATOM     13  C   UNL     1       2.310   2.830  20.261  0.00  0.00    +0.000 A 
ATOM     14  N   UNL     1       3.539   3.041  19.743  0.00  0.00    +0.000 NA
ENDBRANCH   4   9
TORSDOF 1
ENDMDL
MODEL 6
REMARK VINA RESULT:      -5.9      4.111      5.770
REMARK  Name = 
REMARK  1 active torsions:
REMARK  status: ('A' for Active; 'I' for Inactive)
REMARK    1  A    between atoms: C_4  and  C_5
REMARK                            x       y       z     vdW  Elec       q    Type
REMARK                         _______ _______ _______ _____ _____    ______ ____
ROOT
ATOM      1  N   UNL     1       7.695   4.497  16.452  0.00  0.00    +0.000 N 
ATOM      2  C   UNL     1       6.887   4.586  17.513  0.00  0.00    +0.000 A 
ATOM      3  N   UNL     1       5.612   4.320  17.588  0.00  0.00    +0.000 NA
ATOM      4  C   UNL     1       5.325   4.600  18.914  0.00  0.00    +0.000 A 
ATOM      5  N   UNL     1       6.384   5.046  19.614  0.00  0.00    +0.000 NA
ATOM      6  O   UNL     1       7.421   5.032  18.682  0.00  0.00    +0.000 OA
ATOM      7  H   UNL     1       7.248   4.482  15.544  0.00  0.00    +0.000 HD
ATOM      8  H   UNL     1       8.571   5.004  16.485  0.00  0.00    +0.000 HD
ENDROOT
BRANCH   4   9
ATOM      9  C   UNL     1       3.983   4.410  19.473  0.00  0.00    +0.000 A 
ATOM     10  C   UNL     1       3.454   3.127  19.598  0.00  0.00    +0.000 A 
ATOM     11  C   UNL     1       2.181   2.971  20.139  0.00  0.00    +0.000 A 
ATOM     12  C   UNL     1       1.470   4.097  20.537  0.00  0.00    +0.000 A 
ATOM     13  C   UNL     1       2.064   5.337  20.377  0.00  0.00    +0.000 A 
ATOM     14  N   UNL     1       3.297   5.518  19.858  0.00  0.00    +0.000 NA
ENDBRANCH   4   9
TORSDOF 1
ENDMDL
MODEL 7
REMARK VINA RESULT:      -5.8      3.810      4.804
REMARK  Name = 
REMARK  1 active torsions:
REMARK  status: ('A' for Active; 'I' for Inactive)
REMARK    1  A    between atoms: C_4  and  C_5
REMARK                            x       y       z     vdW  Elec       q    Type
REMARK                         _______ _______ _______ _____ _____    ______ ____
ROOT
ATOM      1  N   UNL     1       8.214   5.683  19.785  0.00  0.00    +0.000 N 
ATOM      2  C   UNL     1       7.039   5.523  19.170  0.00  0.00    +0.000 A 
ATOM      3  N   UNL     1       6.104   4.648  19.418  0.00  0.00    +0.000 NA
ATOM      4  C   UNL     1       5.144   4.958  18.469  0.00  0.00    +0.000 A 
ATOM      5  N   UNL     1       5.495   5.971  17.655  0.00  0.00    +0.000 NA
ATOM      6  O   UNL     1       6.753   6.346  18.125  0.00  0.00    +0.000 OA
ATOM      7  H   UNL     1       8.554   4.895  20.322  0.00  0.00    +0.000 HD
ATOM      8  H   UNL     1       8.933   6.205  19.299  0.00  0.00    +0.000 HD
ENDROOT
BRANCH   4   9
ATOM      9  C   UNL     1       3.871   4.236  18.391  0.00  0.00    +0.000 A 
ATOM     10  C   UNL     1       2.727   4.884  17.925  0.00  0.00    +0.000 A 
ATOM     11  C   UNL     1       1.532   4.174  17.852  0.00  0.00    +0.000 A 
ATOM     12  C   UNL     1       1.508   2.843  18.246  0.00  0.00    +0.000 A 
ATOM     13  C   UNL     1       2.685   2.272  18.699  0.00  0.00    +0.000 A 
ATOM     14  N   UNL     1       3.859   2.934  18.779  0.00  0.00    +0.000 NA
ENDBRANCH   4   9
TORSDOF 1
ENDMDL
MODEL 8
REMARK VINA RESULT:      -5.8      3.136      4.524
REMARK  Name = 
REMARK  1 active torsions:
REMARK  status: ('A' for Active; 'I' for Inactive)
REMARK    1  A    between atoms: C_4  and  C_5
REMARK                            x       y       z     vdW  Elec       q    Type
REMARK                         _______ _______ _______ _____ _____    ______ ____
ROOT
ATOM      1  N   UNL     1       7.723   7.872  17.266  0.00  0.00    +0.000 N 
ATOM      2  C   UNL     1       7.116   6.685  17.181  0.00  0.00    +0.000 A 
ATOM      3  N   UNL     1       6.234   6.162  17.988  0.00  0.00    +0.000 NA
ATOM      4  C   UNL     1       5.979   4.934  17.399  0.00  0.00    +0.000 A 
ATOM      5  N   UNL     1       6.701   4.708  16.286  0.00  0.00    +0.000 NA
ATOM      6  O   UNL     1       7.452   5.874  16.141  0.00  0.00    +0.000 OA
ATOM      7  H   UNL     1       7.719   8.316  18.175  0.00  0.00    +0.000 HD
ATOM      8  H   UNL     1       8.574   8.004  16.734  0.00  0.00    +0.000 HD
ENDROOT
BRANCH   4   9
ATOM      9  C   UNL     1       5.003   3.995  17.959  0.00  0.00    +0.000 A 
ATOM     10  C   UNL     1       3.944   3.540  17.175  0.00  0.00    +0.000 A 
ATOM     11  C   UNL     1       3.034   2.641  17.725  0.00  0.00    +0.000 A 
ATOM     12  C   UNL     1       3.202   2.225  19.040  0.00  0.00    +0.000 A 
ATOM     13  C   UNL     1       4.278   2.726  19.754  0.00  0.00    +0.000 A 
ATOM     14  N   UNL     1       5.177   3.596  19.246  0.00  0.00    +0.000 NA
ENDBRANCH   4   9
TORSDOF 1
ENDMDL
MODEL 9
REMARK VINA RESULT:      -5.8      4.722      6.201
REMARK  Name = 
REMARK  1 active torsions:
REMARK  status: ('A' for Active; 'I' for Inactive)
REMARK    1  A    between atoms: C_4  and  C_5
REMARK                            x       y       z     vdW  Elec       q    Type
REMARK                         _______ _______ _______ _____ _____    ______ ____
ROOT
ATOM      1  N   UNL     1       7.718   4.634  17.609  0.00  0.00    +0.000 N 
ATOM      2  C   UNL     1       6.407   4.445  17.788  0.00  0.00    +0.000 A 
ATOM      3  N   UNL     1       5.774   4.125  18.882  0.00  0.00    +0.000 NA
ATOM      4  C   UNL     1       4.456   4.067  18.459  0.00  0.00    +0.000 A 
ATOM      5  N   UNL     1       4.297   4.318  17.147  0.00  0.00    +0.000 NA
ATOM      6  O   UNL     1       5.595   4.573  16.704  0.00  0.00    +0.000 OA
ATOM      7  H   UNL     1       8.331   4.234  18.309  0.00  0.00    +0.000 HD
ATOM      8  H   UNL     1       8.074   4.594  16.662  0.00  0.00    +0.000 HD
ENDROOT
BRANCH   4   9
ATOM      9  C   UNL     1       3.359   3.764  19.383  0.00  0.00    +0.000 A 
ATOM     10  C   UNL     1       2.110   4.356  19.203  0.00  0.00    +0.000 A 
ATOM     11  C   UNL     1       1.081   4.046  20.088  0.00  0.00    +0.000 A 
ATOM     12  C   UNL     1       1.326   3.159  21.128  0.00  0.00    +0.000 A 
ATOM     13  C   UNL     1       2.594   2.614  21.242  0.00  0.00    +0.000 A 
ATOM     14  N   UNL     1       3.610   2.895  20.397  0.00  0.00    +0.000 NA
ENDBRANCH   4   9
TORSDOF 1
ENDMDL
