MODEL 1
REMARK VINA RESULT:      -8.9      0.000      0.000
REMARK  Name = 
REMARK  5 active torsions:
REMARK  status: ('A' for Active; 'I' for Inactive)
REMARK    1  A    between atoms: C_2  and  C_15
REMARK    2  A    between atoms: N_3  and  C_4
REMARK    3  A    between atoms: C_7  and  C_8
REMARK    4  A    between atoms: N_18  and  C_19
REMARK    5  A    between atoms: C_19  and  C_20
REMARK                            x       y       z     vdW  Elec       q    Type
REMARK                         _______ _______ _______ _____ _____    ______ ____
ROOT
ATOM      1  O   UNL     1       8.117   6.704  19.064  0.00  0.00    +0.000 OA
ATOM      2  C   UNL     1       7.708   6.960  17.935  0.00  0.00    +0.000 C 
ATOM      3  N   UNL     1       7.676   8.227  17.365  0.00  0.00    +0.000 N 
ATOM      4  H   UNL     1       7.185   8.340  16.489  0.00  0.00    +0.000 HD
ENDROOT
BRANCH   3   5
ATOM      5  C   UNL     1       8.225   9.403  17.925  0.00  0.00    +0.000 A 
ATOM      6  C   UNL     1       9.073   9.394  19.032  0.00  0.00    +0.000 A 
ATOM      7  C   UNL     1       9.630  10.580  19.520  0.00  0.00    +0.000 A 
ATOM      8  C   UNL     1       9.353  11.807  18.909  0.00  0.00    +0.000 A 
ATOM      9  C   UNL     1       8.477  11.824  17.817  0.00  0.00    +0.000 A 
ATOM     10  C   UNL     1       7.931  10.629  17.318  0.00  0.00    +0.000 A 
BRANCH   8  11
ATOM     11  C   UNL     1       9.972  13.042  19.380  0.00  0.00    +0.000 A 
ATOM     12  C   UNL     1      11.325  13.308  19.274  0.00  0.00    +0.000 A 
ATOM     13  S   UNL     1      11.680  14.859  19.913  0.00  0.00    +0.000 S 
ATOM     14  C   UNL     1      10.015  15.063  20.267  0.00  0.00    +0.000 A 
ATOM     15  N   UNL     1       9.221  14.068  19.936  0.00  0.00    +0.000 NA
ENDBRANCH   8  11
ENDBRANCH   3   5
BRANCH   2  16
ATOM     16  C   UNL     1       7.186   5.851  17.012  0.00  0.00    +0.000 C 
ATOM     17  C   UNL     1       6.190   6.366  15.977  0.00  0.00    +0.000 C 
ATOM     18  C   UNL     1       4.878   6.793  16.633  0.00  0.00    +0.000 C 
ATOM     19  N   UNL     1       4.238   5.677  17.343  0.00  0.00    +0.000 NA
ATOM     20  C   UNL     1       5.141   5.081  18.348  0.00  0.00    +0.000 C 
ATOM     21  C   UNL     1       6.528   4.713  17.808  0.00  0.00    +0.000 C 
BRANCH  19  22
ATOM     22  C   UNL     1       3.009   6.132  18.036  0.00  0.00    +0.000 C 
BRANCH  22  23
ATOM     23  C   UNL     1       2.422   5.131  19.012  0.00  0.00    +0.000 A 
ATOM     24  C   UNL     1       2.654   5.249  20.393  0.00  0.00    +0.000 A 
ATOM     25  C   UNL     1       2.085   4.341  21.289  0.00  0.00    +0.000 A 
ATOM     26  C   UNL     1       1.283   3.312  20.810  0.00  0.00    +0.000 A 
ATOM     27  F   UNL     1       0.732   2.447  21.674  0.00  0.00    +0.000 F 
ATOM     28  C   UNL     1       1.051   3.180  19.447  0.00  0.00    +0.000 A 
ATOM     29  F   UNL     1       0.278   2.187  18.985  0.00  0.00    +0.000 F 
ATOM     30  C   UNL     1       1.614   4.080  18.546  0.00  0.00    +0.000 A 
ENDBRANCH  22  23
ENDBRANCH  19  22
ENDBRANCH   2  16
TORSDOF 5
ENDMDL
MODEL 2
REMARK VINA RESULT:      -8.5      0.669      1.317
REMARK  Name = 
REMARK  5 active torsions:
REMARK  status: ('A' for Active; 'I' for Inactive)
REMARK    1  A    between atoms: C_2  and  C_15
REMARK    2  A    between atoms: N_3  and  C_4
REMARK    3  A    between atoms: C_7  and  C_8
REMARK    4  A    between atoms: N_18  and  C_19
REMARK    5  A    between atoms: C_19  and  C_20
REMARK                            x       y       z     vdW  Elec       q    Type
REMARK                         _______ _______ _______ _____ _____    ______ ____
ROOT
ATOM      1  O   UNL     1       7.999   6.705  19.136  0.00  0.00    +0.000 OA
ATOM      2  C   UNL     1       7.679   6.946  17.975  0.00  0.00    +0.000 C 
ATOM      3  N   UNL     1       7.721   8.201  17.380  0.00  0.00    +0.000 N 
ATOM      4  H   UNL     1       7.295   8.308  16.468  0.00  0.00    +0.000 HD
ENDROOT
BRANCH   3   5
ATOM      5  C   UNL     1       8.258   9.376  17.954  0.00  0.00    +0.000 A 
ATOM      6  C   UNL     1       9.045   9.367  19.105  0.00  0.00    +0.000 A 
ATOM      7  C   UNL     1       9.595  10.550  19.608  0.00  0.00    +0.000 A 
ATOM      8  C   UNL     1       9.372  11.773  18.969  0.00  0.00    +0.000 A 
ATOM      9  C   UNL     1       8.556  11.790  17.831  0.00  0.00    +0.000 A 
ATOM     10  C   UNL     1       8.017  10.598  17.317  0.00  0.00    +0.000 A 
BRANCH   8  11
ATOM     11  C   UNL     1       9.985  13.005  19.457  0.00  0.00    +0.000 A 
ATOM     12  C   UNL     1      10.442  14.012  18.627  0.00  0.00    +0.000 A 
ATOM     13  S   UNL     1      11.078  15.306  19.555  0.00  0.00    +0.000 S 
ATOM     14  C   UNL     1      10.688  14.438  20.980  0.00  0.00    +0.000 A 
ATOM     15  N   UNL     1      10.113  13.267  20.813  0.00  0.00    +0.000 NA
ENDBRANCH   8  11
ENDBRANCH   3   5
BRANCH   2  16
ATOM     16  C   UNL     1       7.196   5.831  17.040  0.00  0.00    +0.000 C 
ATOM     17  C   UNL     1       6.213   6.332  15.985  0.00  0.00    +0.000 C 
ATOM     18  C   UNL     1       4.880   6.734  16.614  0.00  0.00    +0.000 C 
ATOM     19  N   UNL     1       4.244   5.605  17.308  0.00  0.00    +0.000 NA
ATOM     20  C   UNL     1       5.136   5.023  18.331  0.00  0.00    +0.000 C 
ATOM     21  C   UNL     1       6.541   4.680  17.819  0.00  0.00    +0.000 C 
BRANCH  19  22
ATOM     22  C   UNL     1       2.994   6.038  17.976  0.00  0.00    +0.000 C 
BRANCH  22  23
ATOM     23  C   UNL     1       2.388   5.012  18.914  0.00  0.00    +0.000 A 
ATOM     24  C   UNL     1       1.561   3.986  18.424  0.00  0.00    +0.000 A 
ATOM     25  C   UNL     1       1.032   3.026  19.290  0.00  0.00    +0.000 A 
ATOM     26  C   UNL     1       1.325   3.087  20.647  0.00  0.00    +0.000 A 
ATOM     27  F   UNL     1       0.820   2.159  21.473  0.00  0.00    +0.000 F 
ATOM     28  C   UNL     1       2.135   4.099  21.146  0.00  0.00    +0.000 A 
ATOM     29  F   UNL     1       2.417   4.158  22.455  0.00  0.00    +0.000 F 
ATOM     30  C   UNL     1       2.667   5.060  20.291  0.00  0.00    +0.000 A 
ENDBRANCH  22  23
ENDBRANCH  19  22
ENDBRANCH   2  16
TORSDOF 5
ENDMDL
MODEL 3
REMARK VINA RESULT:      -8.3      0.995      1.768
REMARK  Name = 
REMARK  5 active torsions:
REMARK  status: ('A' for Active; 'I' for Inactive)
REMARK    1  A    between atoms: C_2  and  C_15
REMARK    2  A    between atoms: N_3  and  C_4
REMARK    3  A    between atoms: C_7  and  C_8
REMARK    4  A    between atoms: N_18  and  C_19
REMARK    5  A    between atoms: C_19  and  C_20
REMARK                            x       y       z     vdW  Elec       q    Type
REMARK                         _______ _______ _______ _____ _____    ______ ____
ROOT
ATOM      1  O   UNL     1       8.611   7.449  19.066  0.00  0.00    +0.000 OA
ATOM      2  C   UNL     1       8.067   7.741  18.004  0.00  0.00    +0.000 C 
ATOM      3  N   UNL     1       7.931   9.031  17.506  0.00  0.00    +0.000 N 
ATOM      4  H   UNL     1       7.338   9.167  16.697  0.00  0.00    +0.000 HD
ENDROOT
BRANCH   3   5
ATOM      5  C   UNL     1       8.504  10.200  18.057  0.00  0.00    +0.000 A 
ATOM      6  C   UNL     1       8.259  11.477  17.553  0.00  0.00    +0.000 A 
ATOM      7  C   UNL     1       8.810  12.608  18.163  0.00  0.00    +0.000 A 
ATOM      8  C   UNL     1       9.619  12.488  19.297  0.00  0.00    +0.000 A 
ATOM      9  C   UNL     1       9.892  11.206  19.788  0.00  0.00    +0.000 A 
ATOM     10  C   UNL     1       9.324  10.071  19.183  0.00  0.00    +0.000 A 
BRANCH   8  11
ATOM     11  C   UNL     1      10.155  13.667  19.971  0.00  0.00    +0.000 A 
ATOM     12  C   UNL     1      11.032  14.556  19.376  0.00  0.00    +0.000 A 
ATOM     13  S   UNL     1      11.425  15.823  20.462  0.00  0.00    +0.000 S 
ATOM     14  C   UNL     1      10.395  15.105  21.628  0.00  0.00    +0.000 A 
ATOM     15  N   UNL     1       9.777  14.003  21.264  0.00  0.00    +0.000 NA
ENDBRANCH   8  11
ENDBRANCH   3   5
BRANCH   2  16
ATOM     16  C   UNL     1       7.477   6.658  17.093  0.00  0.00    +0.000 C 
ATOM     17  C   UNL     1       6.069   6.996  16.612  0.00  0.00    +0.000 C 
ATOM     18  C   UNL     1       5.061   6.943  17.760  0.00  0.00    +0.000 C 
ATOM     19  N   UNL     1       5.008   5.610  18.375  0.00  0.00    +0.000 NA
ATOM     20  C   UNL     1       6.339   5.173  18.843  0.00  0.00    +0.000 C 
ATOM     21  C   UNL     1       7.446   5.287  17.787  0.00  0.00    +0.000 C 
BRANCH  19  22
ATOM     22  C   UNL     1       4.084   5.603  19.534  0.00  0.00    +0.000 C 
BRANCH  22  23
ATOM     23  C   UNL     1       2.926   4.632  19.416  0.00  0.00    +0.000 A 
ATOM     24  C   UNL     1       2.422   4.260  18.158  0.00  0.00    +0.000 A 
ATOM     25  C   UNL     1       1.375   3.340  18.057  0.00  0.00    +0.000 A 
ATOM     26  C   UNL     1       0.828   2.789  19.209  0.00  0.00    +0.000 A 
ATOM     27  F   UNL     1      -0.171   1.901  19.106  0.00  0.00    +0.000 F 
ATOM     28  C   UNL     1       1.313   3.153  20.459  0.00  0.00    +0.000 A 
ATOM     29  F   UNL     1       0.785   2.623  21.571  0.00  0.00    +0.000 F 
ATOM     30  C   UNL     1       2.355   4.069  20.571  0.00  0.00    +0.000 A 
ENDBRANCH  22  23
ENDBRANCH  19  22
ENDBRANCH   2  16
TORSDOF 5
ENDMDL
MODEL 4
REMARK VINA RESULT:      -8.2      1.179      1.417
REMARK  Name = 
REMARK  5 active torsions:
REMARK  status: ('A' for Active; 'I' for Inactive)
REMARK    1  A    between atoms: C_2  and  C_15
REMARK    2  A    between atoms: N_3  and  C_4
REMARK    3  A    between atoms: C_7  and  C_8
REMARK    4  A    between atoms: N_18  and  C_19
REMARK    5  A    between atoms: C_19  and  C_20
REMARK                            x       y       z     vdW  Elec       q    Type
REMARK                         _______ _______ _______ _____ _____    ______ ____
ROOT
ATOM      1  O   UNL     1       8.601   7.443  19.296  0.00  0.00    +0.000 OA
ATOM      2  C   UNL     1       8.147   7.725  18.191  0.00  0.00    +0.000 C 
ATOM      3  N   UNL     1       8.047   9.011  17.673  0.00  0.00    +0.000 N 
ATOM      4  H   UNL     1       7.524   9.138  16.817  0.00  0.00    +0.000 HD
ENDROOT
BRANCH   3   5
ATOM      5  C   UNL     1       8.567  10.187  18.262  0.00  0.00    +0.000 A 
ATOM      6  C   UNL     1       9.331  10.178  19.428  0.00  0.00    +0.000 A 
ATOM      7  C   UNL     1       9.865  11.362  19.946  0.00  0.00    +0.000 A 
ATOM      8  C   UNL     1       9.648  12.586  19.306  0.00  0.00    +0.000 A 
ATOM      9  C   UNL     1       8.855  12.603  18.152  0.00  0.00    +0.000 A 
ATOM     10  C   UNL     1       8.333  11.410  17.624  0.00  0.00    +0.000 A 
BRANCH   8  11
ATOM     11  C   UNL     1      10.245  13.819  19.810  0.00  0.00    +0.000 A 
ATOM     12  C   UNL     1      10.785  14.797  18.994  0.00  0.00    +0.000 A 
ATOM     13  S   UNL     1      11.371  16.103  19.936  0.00  0.00    +0.000 S 
ATOM     14  C   UNL     1      10.854  15.280  21.348  0.00  0.00    +0.000 A 
ATOM     15  N   UNL     1      10.271  14.115  21.165  0.00  0.00    +0.000 NA
ENDBRANCH   8  11
ENDBRANCH   3   5
BRANCH   2  16
ATOM     16  C   UNL     1       7.640   6.632  17.242  0.00  0.00    +0.000 C 
ATOM     17  C   UNL     1       6.305   6.989  16.593  0.00  0.00    +0.000 C 
ATOM     18  C   UNL     1       5.171   6.986  17.617  0.00  0.00    +0.000 C 
ATOM     19  N   UNL     1       5.015   5.670  18.251  0.00  0.00    +0.000 NA
ATOM     20  C   UNL     1       6.271   5.216  18.880  0.00  0.00    +0.000 C 
ATOM     21  C   UNL     1       7.496   5.281  17.958  0.00  0.00    +0.000 C 
BRANCH  19  22
ATOM     22  C   UNL     1       3.963   5.712  19.295  0.00  0.00    +0.000 C 
BRANCH  22  23
ATOM     23  C   UNL     1       2.931   4.605  19.201  0.00  0.00    +0.000 A 
ATOM     24  C   UNL     1       1.847   4.553  20.094  0.00  0.00    +0.000 A 
ATOM     25  C   UNL     1       0.882   3.548  19.982  0.00  0.00    +0.000 A 
ATOM     26  C   UNL     1       0.997   2.593  18.979  0.00  0.00    +0.000 A 
ATOM     27  F   UNL     1       0.065   1.635  18.871  0.00  0.00    +0.000 F 
ATOM     28  C   UNL     1       2.067   2.629  18.094  0.00  0.00    +0.000 A 
ATOM     29  F   UNL     1       2.177   1.707  17.128  0.00  0.00    +0.000 F 
ATOM     30  C   UNL     1       3.033   3.626  18.198  0.00  0.00    +0.000 A 
ENDBRANCH  22  23
ENDBRANCH  19  22
ENDBRANCH   2  16
TORSDOF 5
ENDMDL
MODEL 5
REMARK VINA RESULT:      -8.2      2.338      2.977
REMARK  Name = 
REMARK  5 active torsions:
REMARK  status: ('A' for Active; 'I' for Inactive)
REMARK    1  A    between atoms: C_2  and  C_15
REMARK    2  A    between atoms: N_3  and  C_4
REMARK    3  A    between atoms: C_7  and  C_8
REMARK    4  A    between atoms: N_18  and  C_19
REMARK    5  A    between atoms: C_19  and  C_20
REMARK                            x       y       z     vdW  Elec       q    Type
REMARK                         _______ _______ _______ _____ _____    ______ ____
ROOT
ATOM      1  O   UNL     1       6.905   7.732  17.185  0.00  0.00    +0.000 OA
ATOM      2  C   UNL     1       7.713   7.284  17.995  0.00  0.00    +0.000 C 
ATOM      3  N   UNL     1       8.650   8.041  18.689  0.00  0.00    +0.000 N 
ATOM      4  H   UNL     1       9.359   7.549  19.217  0.00  0.00    +0.000 HD
ENDROOT
BRANCH   3   5
ATOM      5  C   UNL     1       8.746   9.451  18.686  0.00  0.00    +0.000 A 
ATOM      6  C   UNL     1       9.435  10.168  19.663  0.00  0.00    +0.000 A 
ATOM      7  C   UNL     1       9.544  11.560  19.591  0.00  0.00    +0.000 A 
ATOM      8  C   UNL     1       8.966  12.270  18.534  0.00  0.00    +0.000 A 
ATOM      9  C   UNL     1       8.246  11.557  17.568  0.00  0.00    +0.000 A 
ATOM     10  C   UNL     1       8.152  10.156  17.633  0.00  0.00    +0.000 A 
BRANCH   8  11
ATOM     11  C   UNL     1       9.119  13.718  18.423  0.00  0.00    +0.000 A 
ATOM     12  C   UNL     1       8.084  14.573  18.089  0.00  0.00    +0.000 A 
ATOM     13  S   UNL     1       8.634  16.196  18.076  0.00  0.00    +0.000 S 
ATOM     14  C   UNL     1      10.193  15.643  18.524  0.00  0.00    +0.000 A 
ATOM     15  N   UNL     1      10.327  14.345  18.691  0.00  0.00    +0.000 NA
ENDBRANCH   8  11
ENDBRANCH   3   5
BRANCH   2  16
ATOM     16  C   UNL     1       7.749   5.789  18.332  0.00  0.00    +0.000 C 
ATOM     17  C   UNL     1       7.341   4.910  17.153  0.00  0.00    +0.000 C 
ATOM     18  C   UNL     1       5.855   5.064  16.832  0.00  0.00    +0.000 C 
ATOM     19  N   UNL     1       5.011   4.689  17.974  0.00  0.00    +0.000 NA
ATOM     20  C   UNL     1       5.355   5.463  19.184  0.00  0.00    +0.000 C 
ATOM     21  C   UNL     1       6.849   5.455  19.532  0.00  0.00    +0.000 C 
BRANCH  19  22
ATOM     22  C   UNL     1       3.579   4.922  17.667  0.00  0.00    +0.000 C 
BRANCH  22  23
ATOM     23  C   UNL     1       3.009   6.206  18.236  0.00  0.00    +0.000 A 
ATOM     24  C   UNL     1       3.045   7.400  17.496  0.00  0.00    +0.000 A 
ATOM     25  C   UNL     1       2.489   8.573  18.014  0.00  0.00    +0.000 A 
ATOM     26  C   UNL     1       1.895   8.557  19.270  0.00  0.00    +0.000 A 
ATOM     27  F   UNL     1       1.357   9.684  19.759  0.00  0.00    +0.000 F 
ATOM     28  C   UNL     1       1.859   7.385  20.014  0.00  0.00    +0.000 A 
ATOM     29  F   UNL     1       1.287   7.371  21.227  0.00  0.00    +0.000 F 
ATOM     30  C   UNL     1       2.410   6.212  19.507  0.00  0.00    +0.000 A 
ENDBRANCH  22  23
ENDBRANCH  19  22
ENDBRANCH   2  16
TORSDOF 5
ENDMDL
MODEL 6
REMARK VINA RESULT:      -8.2      6.064      7.916
REMARK  Name = 
REMARK  5 active torsions:
REMARK  status: ('A' for Active; 'I' for Inactive)
REMARK    1  A    between atoms: C_2  and  C_15
REMARK    2  A    between atoms: N_3  and  C_4
REMARK    3  A    between atoms: C_7  and  C_8
REMARK    4  A    between atoms: N_18  and  C_19
REMARK    5  A    between atoms: C_19  and  C_20
REMARK                            x       y       z     vdW  Elec       q    Type
REMARK                         _______ _______ _______ _____ _____    ______ ____
ROOT
ATOM      1  O   UNL     1       2.078   4.995  20.414  0.00  0.00    +0.000 OA
ATOM      2  C   UNL     1       3.003   5.283  19.659  0.00  0.00    +0.000 C 
ATOM      3  N   UNL     1       3.119   6.477  18.959  0.00  0.00    +0.000 N 
ATOM      4  H   UNL     1       3.843   6.546  18.256  0.00  0.00    +0.000 HD
ENDROOT
BRANCH   3   5
ATOM      5  C   UNL     1       2.277   7.605  19.093  0.00  0.00    +0.000 A 
ATOM      6  C   UNL     1       1.735   8.006  20.314  0.00  0.00    +0.000 A 
ATOM      7  C   UNL     1       0.947   9.158  20.405  0.00  0.00    +0.000 A 
ATOM      8  C   UNL     1       0.684   9.939  19.276  0.00  0.00    +0.000 A 
ATOM      9  C   UNL     1       1.202   9.522  18.043  0.00  0.00    +0.000 A 
ATOM     10  C   UNL     1       2.007   8.373  17.956  0.00  0.00    +0.000 A 
BRANCH   8  11
ATOM     11  C   UNL     1      -0.093  11.171  19.372  0.00  0.00    +0.000 A 
ATOM     12  C   UNL     1      -1.186  11.321  20.207  0.00  0.00    +0.000 A 
ATOM     13  S   UNL     1      -1.828  12.904  20.067  0.00  0.00    +0.000 S 
ATOM     14  C   UNL     1      -0.605  13.270  18.924  0.00  0.00    +0.000 A 
ATOM     15  N   UNL     1       0.247  12.305  18.650  0.00  0.00    +0.000 NA
ENDBRANCH   8  11
ENDBRANCH   3   5
BRANCH   2  16
ATOM     16  C   UNL     1       4.165   4.310  19.426  0.00  0.00    +0.000 C 
ATOM     17  C   UNL     1       5.498   5.025  19.217  0.00  0.00    +0.000 C 
ATOM     18  C   UNL     1       5.522   5.777  17.887  0.00  0.00    +0.000 C 
ATOM     19  N   UNL     1       5.324   4.871  16.747  0.00  0.00    +0.000 NA
ATOM     20  C   UNL     1       4.070   4.101  16.875  0.00  0.00    +0.000 C 
ATOM     21  C   UNL     1       3.904   3.390  18.224  0.00  0.00    +0.000 C 
BRANCH  19  22
ATOM     22  C   UNL     1       5.272   5.632  15.475  0.00  0.00    +0.000 C 
BRANCH  22  23
ATOM     23  C   UNL     1       5.904   4.930  14.290  0.00  0.00    +0.000 A 
ATOM     24  C   UNL     1       7.233   5.197  13.918  0.00  0.00    +0.000 A 
ATOM     25  C   UNL     1       7.819   4.523  12.843  0.00  0.00    +0.000 A 
ATOM     26  C   UNL     1       7.082   3.581  12.137  0.00  0.00    +0.000 A 
ATOM     27  F   UNL     1       7.651   2.932  11.111  0.00  0.00    +0.000 F 
ATOM     28  C   UNL     1       5.766   3.312  12.490  0.00  0.00    +0.000 A 
ATOM     29  F   UNL     1       5.054   2.404  11.807  0.00  0.00    +0.000 F 
ATOM     30  C   UNL     1       5.173   3.978  13.558  0.00  0.00    +0.000 A 
ENDBRANCH  22  23
ENDBRANCH  19  22
ENDBRANCH   2  16
TORSDOF 5
ENDMDL
MODEL 7
REMARK VINA RESULT:      -8.2      1.416      1.893
REMARK  Name = 
REMARK  5 active torsions:
REMARK  status: ('A' for Active; 'I' for Inactive)
REMARK    1  A    between atoms: C_2  and  C_15
REMARK    2  A    between atoms: N_3  and  C_4
REMARK    3  A    between atoms: C_7  and  C_8
REMARK    4  A    between atoms: N_18  and  C_19
REMARK    5  A    between atoms: C_19  and  C_20
REMARK                            x       y       z     vdW  Elec       q    Type
REMARK                         _______ _______ _______ _____ _____    ______ ____
ROOT
ATOM      1  O   UNL     1       7.152   8.068  17.288  0.00  0.00    +0.000 OA
ATOM      2  C   UNL     1       7.928   7.567  18.097  0.00  0.00    +0.000 C 
ATOM      3  N   UNL     1       8.836   8.274  18.876  0.00  0.00    +0.000 N 
ATOM      4  H   UNL     1       9.524   7.747  19.397  0.00  0.00    +0.000 HD
ENDROOT
BRANCH   3   5
ATOM      5  C   UNL     1       8.931   9.682  18.970  0.00  0.00    +0.000 A 
ATOM      6  C   UNL     1       9.267  10.343  20.150  0.00  0.00    +0.000 A 
ATOM      7  C   UNL     1       9.397  11.735  20.181  0.00  0.00    +0.000 A 
ATOM      8  C   UNL     1       9.195  12.500  19.029  0.00  0.00    +0.000 A 
ATOM      9  C   UNL     1       8.828  11.842  17.849  0.00  0.00    +0.000 A 
ATOM     10  C   UNL     1       8.713  10.441  17.815  0.00  0.00    +0.000 A 
BRANCH   8  11
ATOM     11  C   UNL     1       9.380  13.948  19.040  0.00  0.00    +0.000 A 
ATOM     12  C   UNL     1       9.838  14.651  20.140  0.00  0.00    +0.000 A 
ATOM     13  S   UNL     1       9.947  16.323  19.775  0.00  0.00    +0.000 S 
ATOM     14  C   UNL     1       9.393  15.984  18.189  0.00  0.00    +0.000 A 
ATOM     15  N   UNL     1       9.145  14.722  17.913  0.00  0.00    +0.000 NA
ENDBRANCH   8  11
ENDBRANCH   3   5
BRANCH   2  16
ATOM     16  C   UNL     1       7.952   6.052  18.337  0.00  0.00    +0.000 C 
ATOM     17  C   UNL     1       7.689   5.252  17.064  0.00  0.00    +0.000 C 
ATOM     18  C   UNL     1       6.245   5.414  16.593  0.00  0.00    +0.000 C 
ATOM     19  N   UNL     1       5.287   4.955  17.608  0.00  0.00    +0.000 NA
ATOM     20  C   UNL     1       5.485   5.648  18.897  0.00  0.00    +0.000 C 
ATOM     21  C   UNL     1       6.932   5.630  19.405  0.00  0.00    +0.000 C 
BRANCH  19  22
ATOM     22  C   UNL     1       3.894   5.195  17.162  0.00  0.00    +0.000 C 
BRANCH  22  23
ATOM     23  C   UNL     1       2.841   4.404  17.914  0.00  0.00    +0.000 A 
ATOM     24  C   UNL     1       2.550   3.075  17.562  0.00  0.00    +0.000 A 
ATOM     25  C   UNL     1       1.600   2.343  18.280  0.00  0.00    +0.000 A 
ATOM     26  C   UNL     1       0.940   2.934  19.351  0.00  0.00    +0.000 A 
ATOM     27  F   UNL     1       0.036   2.225  20.041  0.00  0.00    +0.000 F 
ATOM     28  C   UNL     1       1.215   4.249  19.705  0.00  0.00    +0.000 A 
ATOM     29  F   UNL     1       0.577   4.819  20.737  0.00  0.00    +0.000 F 
ATOM     30  C   UNL     1       2.158   4.987  18.996  0.00  0.00    +0.000 A 
ENDBRANCH  22  23
ENDBRANCH  19  22
ENDBRANCH   2  16
TORSDOF 5
ENDMDL
MODEL 8
REMARK VINA RESULT:      -8.2      5.326      7.354
REMARK  Name = 
REMARK  5 active torsions:
REMARK  status: ('A' for Active; 'I' for Inactive)
REMARK    1  A    between atoms: C_2  and  C_15
REMARK    2  A    between atoms: N_3  and  C_4
REMARK    3  A    between atoms: C_7  and  C_8
REMARK    4  A    between atoms: N_18  and  C_19
REMARK    5  A    between atoms: C_19  and  C_20
REMARK                            x       y       z     vdW  Elec       q    Type
REMARK                         _______ _______ _______ _____ _____    ______ ____
ROOT
ATOM      1  O   UNL     1       0.430   4.566  20.428  0.00  0.00    +0.000 OA
ATOM      2  C   UNL     1       1.582   4.373  20.047  0.00  0.00    +0.000 C 
ATOM      3  N   UNL     1       2.405   5.334  19.474  0.00  0.00    +0.000 N 
ATOM      4  H   UNL     1       3.278   5.028  19.065  0.00  0.00    +0.000 HD
ENDROOT
BRANCH   3   5
ATOM      5  C   UNL     1       2.114   6.713  19.354  0.00  0.00    +0.000 A 
ATOM      6  C   UNL     1       2.218   7.409  18.150  0.00  0.00    +0.000 A 
ATOM      7  C   UNL     1       1.872   8.761  18.070  0.00  0.00    +0.000 A 
ATOM      8  C   UNL     1       1.409   9.450  19.195  0.00  0.00    +0.000 A 
ATOM      9  C   UNL     1       1.332   8.763  20.412  0.00  0.00    +0.000 A 
ATOM     10  C   UNL     1       1.666   7.399  20.487  0.00  0.00    +0.000 A 
BRANCH   8  11
ATOM     11  C   UNL     1       0.995  10.848  19.108  0.00  0.00    +0.000 A 
ATOM     12  C   UNL     1       1.823  11.864  18.662  0.00  0.00    +0.000 A 
ATOM     13  S   UNL     1       0.988  13.361  18.679  0.00  0.00    +0.000 S 
ATOM     14  C   UNL     1      -0.404  12.548  19.261  0.00  0.00    +0.000 A 
ATOM     15  N   UNL     1      -0.293  11.248  19.432  0.00  0.00    +0.000 NA
ENDBRANCH   8  11
ENDBRANCH   3   5
BRANCH   2  16
ATOM     16  C   UNL     1       2.242   2.996  20.191  0.00  0.00    +0.000 C 
ATOM     17  C   UNL     1       3.748   3.087  20.423  0.00  0.00    +0.000 C 
ATOM     18  C   UNL     1       4.473   3.589  19.175  0.00  0.00    +0.000 C 
ATOM     19  N   UNL     1       4.256   2.700  18.026  0.00  0.00    +0.000 NA
ATOM     20  C   UNL     1       2.819   2.517  17.742  0.00  0.00    +0.000 C 
ATOM     21  C   UNL     1       1.983   2.111  18.963  0.00  0.00    +0.000 C 
BRANCH  19  22
ATOM     22  C   UNL     1       4.903   3.248  16.810  0.00  0.00    +0.000 C 
BRANCH  22  23
ATOM     23  C   UNL     1       5.537   4.613  16.988  0.00  0.00    +0.000 A 
ATOM     24  C   UNL     1       4.965   5.756  16.404  0.00  0.00    +0.000 A 
ATOM     25  C   UNL     1       5.538   7.016  16.598  0.00  0.00    +0.000 A 
ATOM     26  C   UNL     1       6.683   7.138  17.375  0.00  0.00    +0.000 A 
ATOM     27  F   UNL     1       7.225   8.350  17.565  0.00  0.00    +0.000 F 
ATOM     28  C   UNL     1       7.263   6.016  17.953  0.00  0.00    +0.000 A 
ATOM     29  F   UNL     1       8.368   6.134  18.702  0.00  0.00    +0.000 F 
ATOM     30  C   UNL     1       6.699   4.757  17.765  0.00  0.00    +0.000 A 
ENDBRANCH  22  23
ENDBRANCH  19  22
ENDBRANCH   2  16
TORSDOF 5
ENDMDL
MODEL 9
REMARK VINA RESULT:      -8.2      1.215      1.584
REMARK  Name = 
REMARK  5 active torsions:
REMARK  status: ('A' for Active; 'I' for Inactive)
REMARK    1  A    between atoms: C_2  and  C_15
REMARK    2  A    between atoms: N_3  and  C_4
REMARK    3  A    between atoms: C_7  and  C_8
REMARK    4  A    between atoms: N_18  and  C_19
REMARK    5  A    between atoms: C_19  and  C_20
REMARK                            x       y       z     vdW  Elec       q    Type
REMARK                         _______ _______ _______ _____ _____    ______ ____
ROOT
ATOM      1  O   UNL     1       6.882   8.656  17.334  0.00  0.00    +0.000 OA
ATOM      2  C   UNL     1       7.786   7.996  17.839  0.00  0.00    +0.000 C 
ATOM      3  N   UNL     1       8.865   8.524  18.537  0.00  0.00    +0.000 N 
ATOM      4  H   UNL     1       9.623   7.900  18.781  0.00  0.00    +0.000 HD
ENDROOT
BRANCH   3   5
ATOM      5  C   UNL     1       9.038   9.880  18.898  0.00  0.00    +0.000 A 
ATOM      6  C   UNL     1       9.104  10.913  17.963  0.00  0.00    +0.000 A 
ATOM      7  C   UNL     1       9.227  12.244  18.371  0.00  0.00    +0.000 A 
ATOM      8  C   UNL     1       9.284  12.576  19.728  0.00  0.00    +0.000 A 
ATOM      9  C   UNL     1       9.249  11.540  20.669  0.00  0.00    +0.000 A 
ATOM     10  C   UNL     1       9.110  10.203  20.258  0.00  0.00    +0.000 A 
BRANCH   8  11
ATOM     11  C   UNL     1       9.359  13.968  20.164  0.00  0.00    +0.000 A 
ATOM     12  C   UNL     1       9.902  14.362  21.374  0.00  0.00    +0.000 A 
ATOM     13  S   UNL     1       9.835  16.068  21.529  0.00  0.00    +0.000 S 
ATOM     14  C   UNL     1       9.107  16.152  19.979  0.00  0.00    +0.000 A 
ATOM     15  N   UNL     1       8.921  15.008  19.357  0.00  0.00    +0.000 NA
ENDBRANCH   8  11
ENDBRANCH   3   5
BRANCH   2  16
ATOM     16  C   UNL     1       7.793   6.465  17.750  0.00  0.00    +0.000 C 
ATOM     17  C   UNL     1       7.112   5.947  16.486  0.00  0.00    +0.000 C 
ATOM     18  C   UNL     1       5.605   6.194  16.525  0.00  0.00    +0.000 C 
ATOM     19  N   UNL     1       4.975   5.525  17.672  0.00  0.00    +0.000 NA
ATOM     20  C   UNL     1       5.593   5.935  18.949  0.00  0.00    +0.000 C 
ATOM     21  C   UNL     1       7.123   5.821  18.972  0.00  0.00    +0.000 C 
BRANCH  19  22
ATOM     22  C   UNL     1       3.528   5.843  17.735  0.00  0.00    +0.000 C 
BRANCH  22  23
ATOM     23  C   UNL     1       2.732   4.990  18.703  0.00  0.00    +0.000 A 
ATOM     24  C   UNL     1       2.692   5.301  20.073  0.00  0.00    +0.000 A 
ATOM     25  C   UNL     1       1.931   4.528  20.954  0.00  0.00    +0.000 A 
ATOM     26  C   UNL     1       1.208   3.445  20.471  0.00  0.00    +0.000 A 
ATOM     27  F   UNL     1       0.473   2.711  21.320  0.00  0.00    +0.000 F 
ATOM     28  C   UNL     1       1.243   3.123  19.120  0.00  0.00    +0.000 A 
ATOM     29  F   UNL     1       0.547   2.077  18.655  0.00  0.00    +0.000 F 
ATOM     30  C   UNL     1       1.999   3.886  18.235  0.00  0.00    +0.000 A 
ENDBRANCH  22  23
ENDBRANCH  19  22
ENDBRANCH   2  16
TORSDOF 5
ENDMDL
