MODEL 1
REMARK VINA RESULT:      -7.4      0.000      0.000
REMARK  Name = 
REMARK  7 active torsions:
REMARK  status: ('A' for Active; 'I' for Inactive)
REMARK    1  A    between atoms: C_1  and  O_2
REMARK    2  A    between atoms: O_2  and  C_3
REMARK    3  A    between atoms: C_6  and  N_7
REMARK    4  A    between atoms: N_11  and  C_12
REMARK    5  A    between atoms: C_15  and  C_16
REMARK    6  A    between atoms: C_18  and  C_19
REMARK    7  A    between atoms: C_21  and  N_22
REMARK                            x       y       z     vdW  Elec       q    Type
REMARK                         _______ _______ _______ _____ _____    ______ ____
ROOT
ATOM      1  N   UNL     1       0.712   9.849  20.746  0.00  0.00    +0.000 N 
ATOM      2  C   UNL     1      -0.358  10.630  20.281  0.00  0.00    +0.000 A 
ATOM      3  N   UNL     1      -0.480  11.865  20.769  0.00  0.00    +0.000 NA
ATOM      4  C   UNL     1      -1.412  12.654  20.204  0.00  0.00    +0.000 A 
ATOM      5  N   UNL     1      -1.683  13.939  20.726  0.00  0.00    +0.000 N 
ATOM      6  C   UNL     1      -2.183  12.231  19.140  0.00  0.00    +0.000 A 
ATOM      7  C   UNL     1      -2.069  10.915  18.756  0.00  0.00    +0.000 A 
ATOM      8  N   UNL     1      -1.170  10.122  19.344  0.00  0.00    +0.000 NA
ATOM      9  H   UNL     1       1.314  10.454  21.292  0.00  0.00    +0.000 HD
ATOM     10  H   UNL     1      -1.549  14.667  20.038  0.00  0.00    +0.000 HD
ENDROOT
BRANCH   5  11
ATOM     11  C   UNL     1      -1.587  14.336  22.073  0.00  0.00    +0.000 A 
ATOM     12  C   UNL     1      -0.522  15.157  22.483  0.00  0.00    +0.000 A 
ATOM     13  C   UNL     1      -0.406  15.606  23.797  0.00  0.00    +0.000 A 
ATOM     14  C   UNL     1      -1.362  15.245  24.741  0.00  0.00    +0.000 A 
ATOM     15  C   UNL     1      -1.305  15.791  26.136  0.00  0.00    +0.000 C 
ATOM     16  C   UNL     1      -2.399  14.383  24.363  0.00  0.00    +0.000 A 
ATOM     17  C   UNL     1      -2.509  13.901  23.044  0.00  0.00    +0.000 A 
ATOM     18  C   UNL     1      -3.635  12.962  22.712  0.00  0.00    +0.000 C 
ENDBRANCH   5  11
BRANCH   1  22
ATOM     19  C   UNL     1       2.794   6.995  18.410  0.00  0.00    +0.000 A 
ATOM     20  C   UNL     1       2.512   8.253  17.886  0.00  0.00    +0.000 A 
ATOM     21  C   UNL     1       1.851   9.205  18.661  0.00  0.00    +0.000 A 
ATOM     22  C   UNL     1       1.423   8.914  19.961  0.00  0.00    +0.000 A 
ATOM     23  C   UNL     1       1.739   7.659  20.493  0.00  0.00    +0.000 A 
ATOM     24  C   UNL     1       2.408   6.698  19.716  0.00  0.00    +0.000 A 
BRANCH  19  26
ATOM     25  C   UNL     1       3.165   4.757  17.757  0.00  0.00    +0.000 C 
ATOM     26  O   UNL     1       3.404   6.141  17.537  0.00  0.00    +0.000 OA
ENDBRANCH  19  26
ENDBRANCH   1  22
BRANCH   7  27
ATOM     27  N   UNL     1      -2.899  10.377  17.795  0.00  0.00    +0.000 N 
ATOM     28  C   UNL     1      -2.307   9.696  16.643  0.00  0.00    +0.000 C 
ATOM     29  C   UNL     1      -2.624  10.425  15.342  0.00  0.00    +0.000 C 
ATOM     30  C   UNL     1      -4.117  10.717  15.216  0.00  0.00    +0.000 C 
ATOM     31  C   UNL     1      -4.616  11.479  16.440  0.00  0.00    +0.000 C 
ATOM     32  C   UNL     1      -4.312  10.723  17.732  0.00  0.00    +0.000 C 
ENDBRANCH   7  27
TORSDOF 4
ENDMDL
MODEL 2
REMARK VINA RESULT:      -7.2      0.528      1.377
REMARK  Name = 
REMARK  7 active torsions:
REMARK  status: ('A' for Active; 'I' for Inactive)
REMARK    1  A    between atoms: C_1  and  O_2
REMARK    2  A    between atoms: O_2  and  C_3
REMARK    3  A    between atoms: C_6  and  N_7
REMARK    4  A    between atoms: N_11  and  C_12
REMARK    5  A    between atoms: C_15  and  C_16
REMARK    6  A    between atoms: C_18  and  C_19
REMARK    7  A    between atoms: C_21  and  N_22
REMARK                            x       y       z     vdW  Elec       q    Type
REMARK                         _______ _______ _______ _____ _____    ______ ____
ROOT
ATOM      1  N   UNL     1       0.687   9.910  20.807  0.00  0.00    +0.000 N 
ATOM      2  C   UNL     1      -0.358  10.703  20.309  0.00  0.00    +0.000 A 
ATOM      3  N   UNL     1      -0.447  11.959  20.751  0.00  0.00    +0.000 NA
ATOM      4  C   UNL     1      -1.354  12.752  20.153  0.00  0.00    +0.000 A 
ATOM      5  N   UNL     1      -1.590  14.063  20.627  0.00  0.00    +0.000 N 
ATOM      6  C   UNL     1      -2.133  12.313  19.102  0.00  0.00    +0.000 A 
ATOM      7  C   UNL     1      -2.055  10.981  18.766  0.00  0.00    +0.000 A 
ATOM      8  N   UNL     1      -1.182  10.184  19.388  0.00  0.00    +0.000 NA
ATOM      9  H   UNL     1       1.303  10.517  21.334  0.00  0.00    +0.000 HD
ATOM     10  H   UNL     1      -1.433  14.761  19.913  0.00  0.00    +0.000 HD
ENDROOT
BRANCH   5  11
ATOM     11  C   UNL     1      -1.488  14.506  21.959  0.00  0.00    +0.000 A 
ATOM     12  C   UNL     1      -2.441  14.089  22.906  0.00  0.00    +0.000 A 
ATOM     13  C   UNL     1      -2.361  14.471  24.243  0.00  0.00    +0.000 A 
ATOM     14  C   UNL     1      -1.315  15.282  24.673  0.00  0.00    +0.000 A 
ATOM     15  C   UNL     1      -1.160  15.628  26.123  0.00  0.00    +0.000 C 
ATOM     16  C   UNL     1      -0.389  15.751  23.732  0.00  0.00    +0.000 A 
ATOM     17  C   UNL     1      -0.477  15.394  22.372  0.00  0.00    +0.000 A 
ATOM     18  C   UNL     1       0.538  15.950  21.414  0.00  0.00    +0.000 C 
ENDBRANCH   5  11
BRANCH   1  22
ATOM     19  C   UNL     1       2.696   6.914  18.589  0.00  0.00    +0.000 A 
ATOM     20  C   UNL     1       2.431   8.151  18.009  0.00  0.00    +0.000 A 
ATOM     21  C   UNL     1       1.794   9.150  18.745  0.00  0.00    +0.000 A 
ATOM     22  C   UNL     1       1.373   8.926  20.061  0.00  0.00    +0.000 A 
ATOM     23  C   UNL     1       1.673   7.692  20.648  0.00  0.00    +0.000 A 
ATOM     24  C   UNL     1       2.317   6.684  19.911  0.00  0.00    +0.000 A 
BRANCH  19  26
ATOM     25  C   UNL     1       4.490   6.432  17.132  0.00  0.00    +0.000 C 
ATOM     26  O   UNL     1       3.282   6.009  17.751  0.00  0.00    +0.000 OA
ENDBRANCH  19  26
ENDBRANCH   1  22
BRANCH   7  27
ATOM     27  N   UNL     1      -2.896  10.432  17.822  0.00  0.00    +0.000 N 
ATOM     28  C   UNL     1      -2.318   9.724  16.679  0.00  0.00    +0.000 C 
ATOM     29  C   UNL     1      -2.638  10.431  15.366  0.00  0.00    +0.000 C 
ATOM     30  C   UNL     1      -4.129  10.734  15.245  0.00  0.00    +0.000 C 
ATOM     31  C   UNL     1      -4.613  11.523  16.457  0.00  0.00    +0.000 C 
ATOM     32  C   UNL     1      -4.307  10.790  17.761  0.00  0.00    +0.000 C 
ENDBRANCH   7  27
TORSDOF 4
ENDMDL
MODEL 3
REMARK VINA RESULT:      -7.2      2.629      5.613
REMARK  Name = 
REMARK  7 active torsions:
REMARK  status: ('A' for Active; 'I' for Inactive)
REMARK    1  A    between atoms: C_1  and  O_2
REMARK    2  A    between atoms: O_2  and  C_3
REMARK    3  A    between atoms: C_6  and  N_7
REMARK    4  A    between atoms: N_11  and  C_12
REMARK    5  A    between atoms: C_15  and  C_16
REMARK    6  A    between atoms: C_18  and  C_19
REMARK    7  A    between atoms: C_21  and  N_22
REMARK                            x       y       z     vdW  Elec       q    Type
REMARK                         _______ _______ _______ _____ _____    ______ ____
ROOT
ATOM      1  N   UNL     1      -3.271  12.932  19.439  0.00  0.00    +0.000 N 
ATOM      2  C   UNL     1      -2.751  12.635  20.709  0.00  0.00    +0.000 A 
ATOM      3  N   UNL     1      -3.394  13.124  21.771  0.00  0.00    +0.000 NA
ATOM      4  C   UNL     1      -2.978  12.707  22.980  0.00  0.00    +0.000 A 
ATOM      5  N   UNL     1      -3.530  13.253  24.161  0.00  0.00    +0.000 N 
ATOM      6  C   UNL     1      -1.963  11.783  23.128  0.00  0.00    +0.000 A 
ATOM      7  C   UNL     1      -1.284  11.398  21.995  0.00  0.00    +0.000 A 
ATOM      8  N   UNL     1      -1.673  11.845  20.798  0.00  0.00    +0.000 NA
ATOM      9  H   UNL     1      -4.174  13.370  19.577  0.00  0.00    +0.000 HD
ATOM     10  H   UNL     1      -3.943  12.544  24.752  0.00  0.00    +0.000 HD
ENDROOT
BRANCH   5  11
ATOM     11  C   UNL     1      -4.012  14.563  24.336  0.00  0.00    +0.000 A 
ATOM     12  C   UNL     1      -5.299  14.898  23.878  0.00  0.00    +0.000 A 
ATOM     13  C   UNL     1      -5.833  16.172  24.061  0.00  0.00    +0.000 A 
ATOM     14  C   UNL     1      -5.091  17.150  24.716  0.00  0.00    +0.000 A 
ATOM     15  C   UNL     1      -5.682  18.496  25.003  0.00  0.00    +0.000 C 
ATOM     16  C   UNL     1      -3.786  16.849  25.129  0.00  0.00    +0.000 A 
ATOM     17  C   UNL     1      -3.226  15.573  24.923  0.00  0.00    +0.000 A 
ATOM     18  C   UNL     1      -1.814  15.325  25.373  0.00  0.00    +0.000 C 
ENDBRANCH   5  11
BRANCH   1  22
ATOM     19  C   UNL     1      -3.201  10.349  16.085  0.00  0.00    +0.000 A 
ATOM     20  C   UNL     1      -2.050  10.537  16.844  0.00  0.00    +0.000 A 
ATOM     21  C   UNL     1      -2.075  11.365  17.966  0.00  0.00    +0.000 A 
ATOM     22  C   UNL     1      -3.237  12.054  18.334  0.00  0.00    +0.000 A 
ATOM     23  C   UNL     1      -4.398  11.834  17.585  0.00  0.00    +0.000 A 
ATOM     24  C   UNL     1      -4.378  10.998  16.456  0.00  0.00    +0.000 A 
BRANCH  19  26
ATOM     25  C   UNL     1      -3.732   9.954  13.819  0.00  0.00    +0.000 C 
ATOM     26  O   UNL     1      -3.033   9.552  14.989  0.00  0.00    +0.000 OA
ENDBRANCH  19  26
ENDBRANCH   1  22
BRANCH   7  27
ATOM     27  N   UNL     1      -0.171  10.587  22.070  0.00  0.00    +0.000 N 
ATOM     28  C   UNL     1       0.880  10.728  21.063  0.00  0.00    +0.000 C 
ATOM     29  C   UNL     1       1.022   9.462  20.224  0.00  0.00    +0.000 C 
ATOM     30  C   UNL     1       1.139   8.220  21.104  0.00  0.00    +0.000 C 
ATOM     31  C   UNL     1      -0.036   8.141  22.073  0.00  0.00    +0.000 C 
ATOM     32  C   UNL     1      -0.148   9.406  22.922  0.00  0.00    +0.000 C 
ENDBRANCH   7  27
TORSDOF 4
ENDMDL
MODEL 4
REMARK VINA RESULT:      -7.1      3.575      8.676
REMARK  Name = 
REMARK  7 active torsions:
REMARK  status: ('A' for Active; 'I' for Inactive)
REMARK    1  A    between atoms: C_1  and  O_2
REMARK    2  A    between atoms: O_2  and  C_3
REMARK    3  A    between atoms: C_6  and  N_7
REMARK    4  A    between atoms: N_11  and  C_12
REMARK    5  A    between atoms: C_15  and  C_16
REMARK    6  A    between atoms: C_18  and  C_19
REMARK    7  A    between atoms: C_21  and  N_22
REMARK                            x       y       z     vdW  Elec       q    Type
REMARK                         _______ _______ _______ _____ _____    ______ ____
ROOT
ATOM      1  N   UNL     1      -1.594   9.559  18.277  0.00  0.00    +0.000 N 
ATOM      2  C   UNL     1      -0.259   9.987  18.346  0.00  0.00    +0.000 A 
ATOM      3  N   UNL     1       0.691   9.104  18.035  0.00  0.00    +0.000 NA
ATOM      4  C   UNL     1       1.951   9.568  17.956  0.00  0.00    +0.000 A 
ATOM      5  N   UNL     1       3.033   8.685  17.737  0.00  0.00    +0.000 N 
ATOM      6  C   UNL     1       2.255  10.901  18.142  0.00  0.00    +0.000 A 
ATOM      7  C   UNL     1       1.239  11.733  18.554  0.00  0.00    +0.000 A 
ATOM      8  N   UNL     1      -0.005  11.262  18.672  0.00  0.00    +0.000 NA
ATOM      9  H   UNL     1      -1.596   8.645  17.839  0.00  0.00    +0.000 HD
ATOM     10  H   UNL     1       3.558   8.923  16.907  0.00  0.00    +0.000 HD
ENDROOT
BRANCH   5  11
ATOM     11  C   UNL     1       3.126   7.347  18.166  0.00  0.00    +0.000 A 
ATOM     12  C   UNL     1       2.425   6.935  19.313  0.00  0.00    +0.000 A 
ATOM     13  C   UNL     1       2.457   5.614  19.755  0.00  0.00    +0.000 A 
ATOM     14  C   UNL     1       3.192   4.663  19.054  0.00  0.00    +0.000 A 
ATOM     15  C   UNL     1       3.165   3.221  19.461  0.00  0.00    +0.000 C 
ATOM     16  C   UNL     1       3.941   5.069  17.941  0.00  0.00    +0.000 A 
ATOM     17  C   UNL     1       3.938   6.408  17.503  0.00  0.00    +0.000 A 
ATOM     18  C   UNL     1       4.780   6.778  16.314  0.00  0.00    +0.000 C 
ENDBRANCH   5  11
BRANCH   1  22
ATOM     19  C   UNL     1      -4.871  11.945  17.050  0.00  0.00    +0.000 A 
ATOM     20  C   UNL     1      -4.476  11.935  18.385  0.00  0.00    +0.000 A 
ATOM     21  C   UNL     1      -3.381  11.172  18.788  0.00  0.00    +0.000 A 
ATOM     22  C   UNL     1      -2.678  10.373  17.879  0.00  0.00    +0.000 A 
ATOM     23  C   UNL     1      -3.060  10.414  16.534  0.00  0.00    +0.000 A 
ATOM     24  C   UNL     1      -4.161  11.184  16.123  0.00  0.00    +0.000 A 
BRANCH  19  26
ATOM     25  C   UNL     1      -7.088  12.479  17.660  0.00  0.00    +0.000 C 
ATOM     26  O   UNL     1      -5.983  12.695  16.793  0.00  0.00    +0.000 OA
ENDBRANCH  19  26
ENDBRANCH   1  22
BRANCH   7  27
ATOM     27  N   UNL     1       1.485  13.046  18.895  0.00  0.00    +0.000 N 
ATOM     28  C   UNL     1       2.291  13.875  17.999  0.00  0.00    +0.000 C 
ATOM     29  C   UNL     1       3.593  14.312  18.664  0.00  0.00    +0.000 C 
ATOM     30  C   UNL     1       3.338  14.918  20.041  0.00  0.00    +0.000 C 
ATOM     31  C   UNL     1       2.544  13.949  20.911  0.00  0.00    +0.000 C 
ATOM     32  C   UNL     1       1.233  13.542  20.241  0.00  0.00    +0.000 C 
ENDBRANCH   7  27
TORSDOF 4
ENDMDL
MODEL 5
REMARK VINA RESULT:      -7.1      2.588      4.712
REMARK  Name = 
REMARK  7 active torsions:
REMARK  status: ('A' for Active; 'I' for Inactive)
REMARK    1  A    between atoms: C_1  and  O_2
REMARK    2  A    between atoms: O_2  and  C_3
REMARK    3  A    between atoms: C_6  and  N_7
REMARK    4  A    between atoms: N_11  and  C_12
REMARK    5  A    between atoms: C_15  and  C_16
REMARK    6  A    between atoms: C_18  and  C_19
REMARK    7  A    between atoms: C_21  and  N_22
REMARK                            x       y       z     vdW  Elec       q    Type
REMARK                         _______ _______ _______ _____ _____    ______ ____
ROOT
ATOM      1  N   UNL     1      -0.772  10.579  20.223  0.00  0.00    +0.000 N 
ATOM      2  C   UNL     1      -0.535  11.835  20.804  0.00  0.00    +0.000 A 
ATOM      3  N   UNL     1      -1.303  12.195  21.833  0.00  0.00    +0.000 NA
ATOM      4  C   UNL     1      -0.967  13.328  22.477  0.00  0.00    +0.000 A 
ATOM      5  N   UNL     1      -1.784  13.841  23.509  0.00  0.00    +0.000 N 
ATOM      6  C   UNL     1       0.144  14.069  22.126  0.00  0.00    +0.000 A 
ATOM      7  C   UNL     1       0.830  13.689  20.995  0.00  0.00    +0.000 A 
ATOM      8  N   UNL     1       0.471  12.586  20.334  0.00  0.00    +0.000 NA
ATOM      9  H   UNL     1      -1.427  10.089  20.820  0.00  0.00    +0.000 HD
ATOM     10  H   UNL     1      -1.282  13.937  24.381  0.00  0.00    +0.000 HD
ENDROOT
BRANCH   5  11
ATOM     11  C   UNL     1      -3.183  13.726  23.610  0.00  0.00    +0.000 A 
ATOM     12  C   UNL     1      -3.744  12.625  24.282  0.00  0.00    +0.000 A 
ATOM     13  C   UNL     1      -5.122  12.487  24.439  0.00  0.00    +0.000 A 
ATOM     14  C   UNL     1      -5.980  13.456  23.927  0.00  0.00    +0.000 A 
ATOM     15  C   UNL     1      -7.457  13.372  24.165  0.00  0.00    +0.000 C 
ATOM     16  C   UNL     1      -5.441  14.529  23.207  0.00  0.00    +0.000 A 
ATOM     17  C   UNL     1      -4.051  14.663  23.018  0.00  0.00    +0.000 A 
ATOM     18  C   UNL     1      -3.542  15.829  22.218  0.00  0.00    +0.000 C 
ENDBRANCH   5  11
BRANCH   1  22
ATOM     19  C   UNL     1       2.265   8.127  18.582  0.00  0.00    +0.000 A 
ATOM     20  C   UNL     1       1.916   8.000  19.923  0.00  0.00    +0.000 A 
ATOM     21  C   UNL     1       0.897   8.786  20.461  0.00  0.00    +0.000 A 
ATOM     22  C   UNL     1       0.231   9.742  19.686  0.00  0.00    +0.000 A 
ATOM     23  C   UNL     1       0.565   9.840  18.330  0.00  0.00    +0.000 A 
ATOM     24  C   UNL     1       1.589   9.048  17.784  0.00  0.00    +0.000 A 
BRANCH  19  26
ATOM     25  C   UNL     1       3.028   5.942  18.116  0.00  0.00    +0.000 C 
ATOM     26  O   UNL     1       3.306   7.334  18.190  0.00  0.00    +0.000 OA
ENDBRANCH  19  26
ENDBRANCH   1  22
BRANCH   7  27
ATOM     27  N   UNL     1       1.865  14.452  20.498  0.00  0.00    +0.000 N 
ATOM     28  C   UNL     1       1.790  15.909  20.605  0.00  0.00    +0.000 C 
ATOM     29  C   UNL     1       1.728  16.567  19.230  0.00  0.00    +0.000 C 
ATOM     30  C   UNL     1       2.832  16.047  18.313  0.00  0.00    +0.000 C 
ATOM     31  C   UNL     1       2.781  14.525  18.227  0.00  0.00    +0.000 C 
ATOM     32  C   UNL     1       2.870  13.883  19.610  0.00  0.00    +0.000 C 
ENDBRANCH   7  27
TORSDOF 4
ENDMDL
MODEL 6
REMARK VINA RESULT:      -7.0      3.537      8.591
REMARK  Name = 
REMARK  7 active torsions:
REMARK  status: ('A' for Active; 'I' for Inactive)
REMARK    1  A    between atoms: C_1  and  O_2
REMARK    2  A    between atoms: O_2  and  C_3
REMARK    3  A    between atoms: C_6  and  N_7
REMARK    4  A    between atoms: N_11  and  C_12
REMARK    5  A    between atoms: C_15  and  C_16
REMARK    6  A    between atoms: C_18  and  C_19
REMARK    7  A    between atoms: C_21  and  N_22
REMARK                            x       y       z     vdW  Elec       q    Type
REMARK                         _______ _______ _______ _____ _____    ______ ____
ROOT
ATOM      1  N   UNL     1      -1.703   9.601  18.241  0.00  0.00    +0.000 N 
ATOM      2  C   UNL     1      -0.376  10.032  18.396  0.00  0.00    +0.000 A 
ATOM      3  N   UNL     1       0.594   9.189  18.037  0.00  0.00    +0.000 NA
ATOM      4  C   UNL     1       1.851   9.668  18.045  0.00  0.00    +0.000 A 
ATOM      5  N   UNL     1       2.949   8.818  17.782  0.00  0.00    +0.000 N 
ATOM      6  C   UNL     1       2.133  10.980  18.365  0.00  0.00    +0.000 A 
ATOM      7  C   UNL     1       1.095  11.762  18.817  0.00  0.00    +0.000 A 
ATOM      8  N   UNL     1      -0.147  11.272  18.847  0.00  0.00    +0.000 NA
ATOM      9  H   UNL     1      -1.680   8.733  17.720  0.00  0.00    +0.000 HD
ATOM     10  H   UNL     1       3.500   9.136  16.997  0.00  0.00    +0.000 HD
ENDROOT
BRANCH   5  11
ATOM     11  C   UNL     1       3.043   7.447  18.089  0.00  0.00    +0.000 A 
ATOM     12  C   UNL     1       2.334   6.930  19.188  0.00  0.00    +0.000 A 
ATOM     13  C   UNL     1       2.366   5.574  19.508  0.00  0.00    +0.000 A 
ATOM     14  C   UNL     1       3.109   4.693  18.727  0.00  0.00    +0.000 A 
ATOM     15  C   UNL     1       3.083   3.220  19.001  0.00  0.00    +0.000 C 
ATOM     16  C   UNL     1       3.865   5.200  17.662  0.00  0.00    +0.000 A 
ATOM     17  C   UNL     1       3.862   6.574  17.348  0.00  0.00    +0.000 A 
ATOM     18  C   UNL     1       4.711   7.052  16.204  0.00  0.00    +0.000 C 
ENDBRANCH   5  11
BRANCH   1  22
ATOM     19  C   UNL     1      -4.967  12.062  17.137  0.00  0.00    +0.000 A 
ATOM     20  C   UNL     1      -4.505  12.065  18.450  0.00  0.00    +0.000 A 
ATOM     21  C   UNL     1      -3.413  11.277  18.811  0.00  0.00    +0.000 A 
ATOM     22  C   UNL     1      -2.781  10.440  17.884  0.00  0.00    +0.000 A 
ATOM     23  C   UNL     1      -3.231  10.469  16.559  0.00  0.00    +0.000 A 
ATOM     24  C   UNL     1      -4.329  11.263  16.190  0.00  0.00    +0.000 A 
BRANCH  19  26
ATOM     25  C   UNL     1      -7.199  12.550  17.734  0.00  0.00    +0.000 C 
ATOM     26  O   UNL     1      -6.069  12.841  16.923  0.00  0.00    +0.000 OA
ENDBRANCH  19  26
ENDBRANCH   1  22
BRANCH   7  27
ATOM     27  N   UNL     1       1.315  13.039  19.287  0.00  0.00    +0.000 N 
ATOM     28  C   UNL     1       0.167  13.878  19.633  0.00  0.00    +0.000 C 
ATOM     29  C   UNL     1       0.079  15.103  18.728  0.00  0.00    +0.000 C 
ATOM     30  C   UNL     1       1.413  15.841  18.659  0.00  0.00    +0.000 C 
ATOM     31  C   UNL     1       2.527  14.889  18.234  0.00  0.00    +0.000 C 
ATOM     32  C   UNL     1       2.617  13.681  19.164  0.00  0.00    +0.000 C 
ENDBRANCH   7  27
TORSDOF 4
ENDMDL
MODEL 7
REMARK VINA RESULT:      -6.9      2.703      5.507
REMARK  Name = 
REMARK  7 active torsions:
REMARK  status: ('A' for Active; 'I' for Inactive)
REMARK    1  A    between atoms: C_1  and  O_2
REMARK    2  A    between atoms: O_2  and  C_3
REMARK    3  A    between atoms: C_6  and  N_7
REMARK    4  A    between atoms: N_11  and  C_12
REMARK    5  A    between atoms: C_15  and  C_16
REMARK    6  A    between atoms: C_18  and  C_19
REMARK    7  A    between atoms: C_21  and  N_22
REMARK                            x       y       z     vdW  Elec       q    Type
REMARK                         _______ _______ _______ _____ _____    ______ ____
ROOT
ATOM      1  N   UNL     1      -3.359  12.883  19.343  0.00  0.00    +0.000 N 
ATOM      2  C   UNL     1      -2.829  12.621  20.616  0.00  0.00    +0.000 A 
ATOM      3  N   UNL     1      -3.509  13.067  21.673  0.00  0.00    +0.000 NA
ATOM      4  C   UNL     1      -3.074  12.679  22.885  0.00  0.00    +0.000 A 
ATOM      5  N   UNL     1      -3.669  13.188  24.062  0.00  0.00    +0.000 N 
ATOM      6  C   UNL     1      -2.002  11.824  23.040  0.00  0.00    +0.000 A 
ATOM      7  C   UNL     1      -1.292  11.484  21.912  0.00  0.00    +0.000 A 
ATOM      8  N   UNL     1      -1.701  11.904  20.712  0.00  0.00    +0.000 NA
ATOM      9  H   UNL     1      -4.289  13.260  19.474  0.00  0.00    +0.000 HD
ATOM     10  H   UNL     1      -4.039  12.454  24.651  0.00  0.00    +0.000 HD
ENDROOT
BRANCH   5  11
ATOM     11  C   UNL     1      -4.238  14.464  24.232  0.00  0.00    +0.000 A 
ATOM     12  C   UNL     1      -3.460  15.506  24.767  0.00  0.00    +0.000 A 
ATOM     13  C   UNL     1      -3.968  16.795  24.919  0.00  0.00    +0.000 A 
ATOM     14  C   UNL     1      -5.275  17.077  24.533  0.00  0.00    +0.000 A 
ATOM     15  C   UNL     1      -5.809  18.476  24.604  0.00  0.00    +0.000 C 
ATOM     16  C   UNL     1      -6.080  16.038  24.050  0.00  0.00    +0.000 A 
ATOM     17  C   UNL     1      -5.585  14.725  23.919  0.00  0.00    +0.000 A 
ATOM     18  C   UNL     1      -6.510  13.654  23.413  0.00  0.00    +0.000 C 
ENDBRANCH   5  11
BRANCH   1  22
ATOM     19  C   UNL     1      -3.035  10.212  16.073  0.00  0.00    +0.000 A 
ATOM     20  C   UNL     1      -4.216  10.919  16.281  0.00  0.00    +0.000 A 
ATOM     21  C   UNL     1      -4.317  11.820  17.340  0.00  0.00    +0.000 A 
ATOM     22  C   UNL     1      -3.260  12.009  18.238  0.00  0.00    +0.000 A 
ATOM     23  C   UNL     1      -2.065  11.320  18.002  0.00  0.00    +0.000 A 
ATOM     24  C   UNL     1      -1.957  10.413  16.934  0.00  0.00    +0.000 A 
BRANCH  19  26
ATOM     25  C   UNL     1      -3.217   9.905  13.739  0.00  0.00    +0.000 C 
ATOM     26  O   UNL     1      -3.079   9.330  15.031  0.00  0.00    +0.000 OA
ENDBRANCH  19  26
ENDBRANCH   1  22
BRANCH   7  27
ATOM     27  N   UNL     1      -0.128  10.748  21.995  0.00  0.00    +0.000 N 
ATOM     28  C   UNL     1       0.878  10.888  20.942  0.00  0.00    +0.000 C 
ATOM     29  C   UNL     1       1.070   9.582  20.178  0.00  0.00    +0.000 C 
ATOM     30  C   UNL     1       1.294   8.409  21.127  0.00  0.00    +0.000 C 
ATOM     31  C   UNL     1       0.160   8.320  22.143  0.00  0.00    +0.000 C 
ATOM     32  C   UNL     1      -0.002   9.627  22.916  0.00  0.00    +0.000 C 
ENDBRANCH   7  27
TORSDOF 4
ENDMDL
MODEL 8
REMARK VINA RESULT:      -6.9      1.551      2.308
REMARK  Name = 
REMARK  7 active torsions:
REMARK  status: ('A' for Active; 'I' for Inactive)
REMARK    1  A    between atoms: C_1  and  O_2
REMARK    2  A    between atoms: O_2  and  C_3
REMARK    3  A    between atoms: C_6  and  N_7
REMARK    4  A    between atoms: N_11  and  C_12
REMARK    5  A    between atoms: C_15  and  C_16
REMARK    6  A    between atoms: C_18  and  C_19
REMARK    7  A    between atoms: C_21  and  N_22
REMARK                            x       y       z     vdW  Elec       q    Type
REMARK                         _______ _______ _______ _____ _____    ______ ____
ROOT
ATOM      1  N   UNL     1       1.175   9.941  20.512  0.00  0.00    +0.000 N 
ATOM      2  C   UNL     1       0.273  10.786  19.847  0.00  0.00    +0.000 A 
ATOM      3  N   UNL     1       0.487  12.100  19.919  0.00  0.00    +0.000 NA
ATOM      4  C   UNL     1      -0.291  12.887  19.154  0.00  0.00    +0.000 A 
ATOM      5  N   UNL     1      -0.205  14.295  19.246  0.00  0.00    +0.000 N 
ATOM      6  C   UNL     1      -1.240  12.369  18.297  0.00  0.00    +0.000 A 
ATOM      7  C   UNL     1      -1.471  11.014  18.349  0.00  0.00    +0.000 A 
ATOM      8  N   UNL     1      -0.725  10.237  19.139  0.00  0.00    +0.000 NA
ATOM      9  H   UNL     1       1.951  10.513  20.823  0.00  0.00    +0.000 HD
ATOM     10  H   UNL     1       0.023  14.723  18.359  0.00  0.00    +0.000 HD
ENDROOT
BRANCH   5  11
ATOM     11  C   UNL     1       0.114  15.044  20.395  0.00  0.00    +0.000 A 
ATOM     12  C   UNL     1      -0.824  15.153  21.437  0.00  0.00    +0.000 A 
ATOM     13  C   UNL     1      -0.540  15.852  22.608  0.00  0.00    +0.000 A 
ATOM     14  C   UNL     1       0.701  16.461  22.770  0.00  0.00    +0.000 A 
ATOM     15  C   UNL     1       1.058  17.139  24.058  0.00  0.00    +0.000 C 
ATOM     16  C   UNL     1       1.626  16.409  21.720  0.00  0.00    +0.000 A 
ATOM     17  C   UNL     1       1.338  15.728  20.520  0.00  0.00    +0.000 A 
ATOM     18  C   UNL     1       2.368  15.729  19.426  0.00  0.00    +0.000 C 
ENDBRANCH   5  11
BRANCH   1  22
ATOM     19  C   UNL     1       2.295   6.091  19.151  0.00  0.00    +0.000 A 
ATOM     20  C   UNL     1       2.431   7.194  18.312  0.00  0.00    +0.000 A 
ATOM     21  C   UNL     1       2.089   8.467  18.765  0.00  0.00    +0.000 A 
ATOM     22  C   UNL     1       1.569   8.666  20.050  0.00  0.00    +0.000 A 
ATOM     23  C   UNL     1       1.468   7.557  20.898  0.00  0.00    +0.000 A 
ATOM     24  C   UNL     1       1.814   6.273  20.446  0.00  0.00    +0.000 A 
BRANCH  19  26
ATOM     25  C   UNL     1       1.626   4.323  17.736  0.00  0.00    +0.000 C 
ATOM     26  O   UNL     1       2.621   4.896  18.573  0.00  0.00    +0.000 OA
ENDBRANCH  19  26
ENDBRANCH   1  22
BRANCH   7  27
ATOM     27  N   UNL     1      -2.495  10.435  17.629  0.00  0.00    +0.000 N 
ATOM     28  C   UNL     1      -2.174   9.677  16.419  0.00  0.00    +0.000 C 
ATOM     29  C   UNL     1      -2.765  10.333  15.176  0.00  0.00    +0.000 C 
ATOM     30  C   UNL     1      -4.247  10.645  15.362  0.00  0.00    +0.000 C 
ATOM     31  C   UNL     1      -4.461  11.487  16.616  0.00  0.00    +0.000 C 
ATOM     32  C   UNL     1      -3.885  10.804  17.854  0.00  0.00    +0.000 C 
ENDBRANCH   7  27
TORSDOF 4
ENDMDL
MODEL 9
REMARK VINA RESULT:      -6.8      1.526      2.072
REMARK  Name = 
REMARK  7 active torsions:
REMARK  status: ('A' for Active; 'I' for Inactive)
REMARK    1  A    between atoms: C_1  and  O_2
REMARK    2  A    between atoms: O_2  and  C_3
REMARK    3  A    between atoms: C_6  and  N_7
REMARK    4  A    between atoms: N_11  and  C_12
REMARK    5  A    between atoms: C_15  and  C_16
REMARK    6  A    between atoms: C_18  and  C_19
REMARK    7  A    between atoms: C_21  and  N_22
REMARK                            x       y       z     vdW  Elec       q    Type
REMARK                         _______ _______ _______ _____ _____    ______ ____
ROOT
ATOM      1  N   UNL     1       1.281   9.755  20.569  0.00  0.00    +0.000 N 
ATOM      2  C   UNL     1       0.403  10.649  19.936  0.00  0.00    +0.000 A 
ATOM      3  N   UNL     1       0.674  11.952  20.027  0.00  0.00    +0.000 NA
ATOM      4  C   UNL     1      -0.084  12.785  19.291  0.00  0.00    +0.000 A 
ATOM      5  N   UNL     1       0.063  14.185  19.406  0.00  0.00    +0.000 N 
ATOM      6  C   UNL     1      -1.070  12.322  18.443  0.00  0.00    +0.000 A 
ATOM      7  C   UNL     1      -1.356  10.977  18.475  0.00  0.00    +0.000 A 
ATOM      8  N   UNL     1      -0.629  10.156  19.237  0.00  0.00    +0.000 NA
ATOM      9  H   UNL     1       2.086  10.288  20.876  0.00  0.00    +0.000 HD
ATOM     10  H   UNL     1       0.292  14.619  18.523  0.00  0.00    +0.000 HD
ENDROOT
BRANCH   5  11
ATOM     11  C   UNL     1       0.433  14.899  20.562  0.00  0.00    +0.000 A 
ATOM     12  C   UNL     1       1.788  15.194  20.793  0.00  0.00    +0.000 A 
ATOM     13  C   UNL     1       2.199  15.930  21.903  0.00  0.00    +0.000 A 
ATOM     14  C   UNL     1       1.257  16.397  22.814  0.00  0.00    +0.000 A 
ATOM     15  C   UNL     1       1.669  17.266  23.963  0.00  0.00    +0.000 C 
ATOM     16  C   UNL     1      -0.091  16.065  22.628  0.00  0.00    +0.000 A 
ATOM     17  C   UNL     1      -0.514  15.298  21.524  0.00  0.00    +0.000 A 
ATOM     18  C   UNL     1      -1.973  14.961  21.398  0.00  0.00    +0.000 C 
ENDBRANCH   5  11
BRANCH   1  22
ATOM     19  C   UNL     1       2.337   5.938  19.071  0.00  0.00    +0.000 A 
ATOM     20  C   UNL     1       1.851   6.067  20.369  0.00  0.00    +0.000 A 
ATOM     21  C   UNL     1       1.476   7.318  20.857  0.00  0.00    +0.000 A 
ATOM     22  C   UNL     1       1.613   8.473  20.078  0.00  0.00    +0.000 A 
ATOM     23  C   UNL     1       2.070   8.330  18.763  0.00  0.00    +0.000 A 
ATOM     24  C   UNL     1       2.446   7.071  18.266  0.00  0.00    +0.000 A 
BRANCH  19  26
ATOM     25  C   UNL     1       1.922   4.041  17.728  0.00  0.00    +0.000 C 
ATOM     26  O   UNL     1       2.710   4.669  18.730  0.00  0.00    +0.000 OA
ENDBRANCH  19  26
ENDBRANCH   1  22
BRANCH   7  27
ATOM     27  N   UNL     1      -2.416  10.455  17.764  0.00  0.00    +0.000 N 
ATOM     28  C   UNL     1      -2.149   9.718  16.528  0.00  0.00    +0.000 C 
ATOM     29  C   UNL     1      -2.743  10.428  15.316  0.00  0.00    +0.000 C 
ATOM     30  C   UNL     1      -4.209  10.788  15.544  0.00  0.00    +0.000 C 
ATOM     31  C   UNL     1      -4.365  11.604  16.824  0.00  0.00    +0.000 C 
ATOM     32  C   UNL     1      -3.787  10.867  18.031  0.00  0.00    +0.000 C 
ENDBRANCH   7  27
TORSDOF 4
ENDMDL
