MODEL 1
REMARK VINA RESULT:      -6.9      0.000      0.000
REMARK  Name = 
REMARK  9 active torsions:
REMARK  status: ('A' for Active; 'I' for Inactive)
REMARK    1  A    between atoms: C_1  and  C_2
REMARK    2  A    between atoms: C_5  and  N_6
REMARK    3  A    between atoms: N_9  and  C_10
REMARK    4  A    between atoms: C_10  and  C_11
REMARK    5  A    between atoms: C_11  and  C_12
REMARK    6  A    between atoms: C_11  and  O_13
REMARK    7  A    between atoms: O_13  and  C_14
REMARK    8  A    between atoms: N_16  and  C_17
REMARK    9  A    between atoms: C_20  and  N_21
REMARK                            x       y       z     vdW  Elec       q    Type
REMARK                         _______ _______ _______ _____ _____    ______ ____
ROOT
ATOM      1  O   UNL     1       3.573   6.294  19.775  0.00  0.00    +0.000 OA
ENDROOT
BRANCH   1   2
ATOM      2  C   UNL     1       3.985   6.348  18.472  0.00  0.00    +0.000 C 
ATOM      3  O   UNL     1       3.579   7.208  17.702  0.00  0.00    +0.000 OA
ATOM      4  N   UNL     1       4.842   5.317  18.165  0.00  0.00    +0.000 N 
ATOM      5  H   UNL     1       4.940   4.591  18.865  0.00  0.00    +0.000 HD
BRANCH   4   6
ATOM      6  C   UNL     1       5.466   5.152  16.906  0.00  0.00    +0.000 A 
ATOM      7  C   UNL     1       6.754   5.641  16.649  0.00  0.00    +0.000 A 
ATOM      8  C   UNL     1       7.351   5.510  15.397  0.00  0.00    +0.000 A 
ATOM      9  C   UNL     1       6.659   4.866  14.375  0.00  0.00    +0.000 A 
ATOM     10  C   UNL     1       5.375   4.349  14.610  0.00  0.00    +0.000 A 
ATOM     11  C   UNL     1       4.787   4.483  15.881  0.00  0.00    +0.000 A 
BRANCH   9  12
ATOM     12  N   UNL     1       7.286   4.727  13.054  0.00  0.00    +0.000 N 
ATOM     13  O   UNL     1       6.895   3.799  12.325  0.00  0.00    +0.000 OA
ATOM     14  O   UNL     1       8.160   5.544  12.746  0.00  0.00    +0.000 OA
ENDBRANCH   9  12
ENDBRANCH   4   6
ENDBRANCH   1   2
BRANCH   1  15
ATOM     15  C   UNL     1       2.138   6.077  19.894  0.00  0.00    +0.000 C 
ATOM     16  C   UNL     1       1.579   7.066  20.911  0.00  0.00    +0.000 C 
BRANCH  15  17
ATOM     17  C   UNL     1       1.863   4.615  20.298  0.00  0.00    +0.000 C 
BRANCH  17  23
ATOM     18  C   UNL     1       1.085   4.354  17.203  0.00  0.00    +0.000 C 
ATOM     19  C   UNL     1       1.856   3.396  18.041  0.00  0.00    +0.000 A 
ATOM     20  N   UNL     1       2.296   2.249  17.557  0.00  0.00    +0.000 NA
ATOM     21  C   UNL     1       3.035   1.670  18.543  0.00  0.00    +0.000 A 
ATOM     22  C   UNL     1       3.038   2.463  19.661  0.00  0.00    +0.000 A 
ATOM     23  N   UNL     1       2.219   3.543  19.378  0.00  0.00    +0.000 N 
BRANCH  22  24
ATOM     24  N   UNL     1       3.767   2.221  20.861  0.00  0.00    +0.000 N 
ATOM     25  O   UNL     1       3.122   2.271  21.914  0.00  0.00    +0.000 OA
ATOM     26  O   UNL     1       4.973   1.968  20.776  0.00  0.00    +0.000 OA
ENDBRANCH  22  24
ENDBRANCH  17  23
ENDBRANCH  15  17
ENDBRANCH   1  15
TORSDOF 7
ENDMDL
MODEL 2
REMARK VINA RESULT:      -6.9      3.109      6.620
REMARK  Name = 
REMARK  9 active torsions:
REMARK  status: ('A' for Active; 'I' for Inactive)
REMARK    1  A    between atoms: C_1  and  C_2
REMARK    2  A    between atoms: C_5  and  N_6
REMARK    3  A    between atoms: N_9  and  C_10
REMARK    4  A    between atoms: C_10  and  C_11
REMARK    5  A    between atoms: C_11  and  C_12
REMARK    6  A    between atoms: C_11  and  O_13
REMARK    7  A    between atoms: O_13  and  C_14
REMARK    8  A    between atoms: N_16  and  C_17
REMARK    9  A    between atoms: C_20  and  N_21
REMARK                            x       y       z     vdW  Elec       q    Type
REMARK                         _______ _______ _______ _____ _____    ______ ____
ROOT
ATOM      1  O   UNL     1       3.300   3.890  19.159  0.00  0.00    +0.000 OA
ENDROOT
BRANCH   1   2
ATOM      2  C   UNL     1       2.420   4.916  19.364  0.00  0.00    +0.000 C 
ATOM      3  O   UNL     1       1.313   4.729  19.851  0.00  0.00    +0.000 OA
ATOM      4  N   UNL     1       2.923   6.117  18.921  0.00  0.00    +0.000 N 
ATOM      5  H   UNL     1       3.781   6.074  18.384  0.00  0.00    +0.000 HD
BRANCH   4   6
ATOM      6  C   UNL     1       2.252   7.355  19.053  0.00  0.00    +0.000 A 
ATOM      7  C   UNL     1       2.057   8.211  17.960  0.00  0.00    +0.000 A 
ATOM      8  C   UNL     1       1.429   9.447  18.099  0.00  0.00    +0.000 A 
ATOM      9  C   UNL     1       0.970   9.841  19.353  0.00  0.00    +0.000 A 
ATOM     10  C   UNL     1       1.133   8.995  20.461  0.00  0.00    +0.000 A 
ATOM     11  C   UNL     1       1.764   7.748  20.305  0.00  0.00    +0.000 A 
BRANCH   9  12
ATOM     12  N   UNL     1       0.309  11.144  19.502  0.00  0.00    +0.000 N 
ATOM     13  O   UNL     1      -0.544  11.257  20.400  0.00  0.00    +0.000 OA
ATOM     14  O   UNL     1       0.643  12.049  18.731  0.00  0.00    +0.000 OA
ENDBRANCH   9  12
ENDBRANCH   4   6
ENDBRANCH   1   2
BRANCH   1  15
ATOM     15  C   UNL     1       3.578   3.671  17.747  0.00  0.00    +0.000 C 
ATOM     16  C   UNL     1       2.718   2.512  17.255  0.00  0.00    +0.000 C 
BRANCH  15  17
ATOM     17  C   UNL     1       5.082   3.400  17.547  0.00  0.00    +0.000 C 
BRANCH  17  23
ATOM     18  C   UNL     1       5.471   4.332  14.509  0.00  0.00    +0.000 C 
ATOM     19  C   UNL     1       6.147   4.858  15.725  0.00  0.00    +0.000 A 
ATOM     20  N   UNL     1       7.062   5.808  15.655  0.00  0.00    +0.000 NA
ATOM     21  C   UNL     1       7.397   6.119  16.937  0.00  0.00    +0.000 A 
ATOM     22  C   UNL     1       6.692   5.337  17.814  0.00  0.00    +0.000 A 
ATOM     23  N   UNL     1       5.938   4.467  17.046  0.00  0.00    +0.000 N 
BRANCH  22  24
ATOM     24  N   UNL     1       6.722   5.433  19.236  0.00  0.00    +0.000 N 
ATOM     25  O   UNL     1       7.820   5.254  19.774  0.00  0.00    +0.000 OA
ATOM     26  O   UNL     1       5.672   5.697  19.831  0.00  0.00    +0.000 OA
ENDBRANCH  22  24
ENDBRANCH  17  23
ENDBRANCH  15  17
ENDBRANCH   1  15
TORSDOF 7
ENDMDL
MODEL 3
REMARK VINA RESULT:      -6.7      3.292      6.325
REMARK  Name = 
REMARK  9 active torsions:
REMARK  status: ('A' for Active; 'I' for Inactive)
REMARK    1  A    between atoms: C_1  and  C_2
REMARK    2  A    between atoms: C_5  and  N_6
REMARK    3  A    between atoms: N_9  and  C_10
REMARK    4  A    between atoms: C_10  and  C_11
REMARK    5  A    between atoms: C_11  and  C_12
REMARK    6  A    between atoms: C_11  and  O_13
REMARK    7  A    between atoms: O_13  and  C_14
REMARK    8  A    between atoms: N_16  and  C_17
REMARK    9  A    between atoms: C_20  and  N_21
REMARK                            x       y       z     vdW  Elec       q    Type
REMARK                         _______ _______ _______ _____ _____    ______ ____
ROOT
ATOM      1  O   UNL     1       3.054   4.660  21.043  0.00  0.00    +0.000 OA
ENDROOT
BRANCH   1   2
ATOM      2  C   UNL     1       2.113   5.540  20.583  0.00  0.00    +0.000 C 
ATOM      3  O   UNL     1       0.941   5.215  20.442  0.00  0.00    +0.000 OA
ATOM      4  N   UNL     1       2.662   6.762  20.275  0.00  0.00    +0.000 N 
ATOM      5  H   UNL     1       3.675   6.814  20.282  0.00  0.00    +0.000 HD
BRANCH   4   6
ATOM      6  C   UNL     1       1.917   7.877  19.828  0.00  0.00    +0.000 A 
ATOM      7  C   UNL     1       1.071   8.594  20.685  0.00  0.00    +0.000 A 
ATOM      8  C   UNL     1       0.309   9.670  20.234  0.00  0.00    +0.000 A 
ATOM      9  C   UNL     1       0.396  10.054  18.898  0.00  0.00    +0.000 A 
ATOM     10  C   UNL     1       1.251   9.366  18.021  0.00  0.00    +0.000 A 
ATOM     11  C   UNL     1       2.019   8.287  18.493  0.00  0.00    +0.000 A 
BRANCH   9  12
ATOM     12  N   UNL     1      -0.407  11.186  18.419  0.00  0.00    +0.000 N 
ATOM     13  O   UNL     1       0.070  12.327  18.554  0.00  0.00    +0.000 OA
ATOM     14  O   UNL     1      -1.503  10.937  17.907  0.00  0.00    +0.000 OA
ENDBRANCH   9  12
ENDBRANCH   4   6
ENDBRANCH   1   2
BRANCH   1  15
ATOM     15  C   UNL     1       3.002   3.380  20.353  0.00  0.00    +0.000 C 
ATOM     16  C   UNL     1       2.664   2.293  21.368  0.00  0.00    +0.000 C 
BRANCH  15  17
ATOM     17  C   UNL     1       4.344   3.113  19.644  0.00  0.00    +0.000 C 
BRANCH  17  23
ATOM     18  C   UNL     1       2.358   3.252  17.137  0.00  0.00    +0.000 C 
ATOM     19  C   UNL     1       3.757   3.751  17.230  0.00  0.00    +0.000 A 
ATOM     20  N   UNL     1       4.364   4.310  16.199  0.00  0.00    +0.000 NA
ATOM     21  C   UNL     1       5.576   4.737  16.649  0.00  0.00    +0.000 A 
ATOM     22  C   UNL     1       5.728   4.420  17.974  0.00  0.00    +0.000 A 
ATOM     23  N   UNL     1       4.595   3.717  18.342  0.00  0.00    +0.000 N 
BRANCH  22  24
ATOM     24  N   UNL     1       6.833   4.777  18.801  0.00  0.00    +0.000 N 
ATOM     25  O   UNL     1       7.953   4.456  18.387  0.00  0.00    +0.000 OA
ATOM     26  O   UNL     1       6.610   5.381  19.854  0.00  0.00    +0.000 OA
ENDBRANCH  22  24
ENDBRANCH  17  23
ENDBRANCH  15  17
ENDBRANCH   1  15
TORSDOF 7
ENDMDL
MODEL 4
REMARK VINA RESULT:      -6.6      3.336      6.399
REMARK  Name = 
REMARK  9 active torsions:
REMARK  status: ('A' for Active; 'I' for Inactive)
REMARK    1  A    between atoms: C_1  and  C_2
REMARK    2  A    between atoms: C_5  and  N_6
REMARK    3  A    between atoms: N_9  and  C_10
REMARK    4  A    between atoms: C_10  and  C_11
REMARK    5  A    between atoms: C_11  and  C_12
REMARK    6  A    between atoms: C_11  and  O_13
REMARK    7  A    between atoms: O_13  and  C_14
REMARK    8  A    between atoms: N_16  and  C_17
REMARK    9  A    between atoms: C_20  and  N_21
REMARK                            x       y       z     vdW  Elec       q    Type
REMARK                         _______ _______ _______ _____ _____    ______ ____
ROOT
ATOM      1  O   UNL     1       3.139   4.410  20.840  0.00  0.00    +0.000 OA
ENDROOT
BRANCH   1   2
ATOM      2  C   UNL     1       2.215   5.317  20.398  0.00  0.00    +0.000 C 
ATOM      3  O   UNL     1       1.051   5.002  20.190  0.00  0.00    +0.000 OA
ATOM      4  N   UNL     1       2.774   6.556  20.190  0.00  0.00    +0.000 N 
ATOM      5  H   UNL     1       3.784   6.607  20.241  0.00  0.00    +0.000 HD
BRANCH   4   6
ATOM      6  C   UNL     1       2.044   7.697  19.783  0.00  0.00    +0.000 A 
ATOM      7  C   UNL     1       1.258   8.432  20.681  0.00  0.00    +0.000 A 
ATOM      8  C   UNL     1       0.511   9.534  20.270  0.00  0.00    +0.000 A 
ATOM      9  C   UNL     1       0.553   9.927  18.934  0.00  0.00    +0.000 A 
ATOM     10  C   UNL     1       1.347   9.221  18.017  0.00  0.00    +0.000 A 
ATOM     11  C   UNL     1       2.101   8.115  18.448  0.00  0.00    +0.000 A 
BRANCH   9  12
ATOM     12  N   UNL     1      -0.235  11.087  18.499  0.00  0.00    +0.000 N 
ATOM     13  O   UNL     1      -1.352  10.869  17.999  0.00  0.00    +0.000 OA
ATOM     14  O   UNL     1       0.257  12.208  18.661  0.00  0.00    +0.000 OA
ENDBRANCH   9  12
ENDBRANCH   4   6
ENDBRANCH   1   2
BRANCH   1  15
ATOM     15  C   UNL     1       3.600   3.526  19.779  0.00  0.00    +0.000 C 
ATOM     16  C   UNL     1       3.625   2.098  20.313  0.00  0.00    +0.000 C 
BRANCH  15  17
ATOM     17  C   UNL     1       4.986   3.982  19.284  0.00  0.00    +0.000 C 
BRANCH  17  23
ATOM     18  C   UNL     1       2.814   3.839  16.936  0.00  0.00    +0.000 C 
ATOM     19  C   UNL     1       4.278   4.080  16.821  0.00  0.00    +0.000 A 
ATOM     20  N   UNL     1       4.865   4.237  15.648  0.00  0.00    +0.000 NA
ATOM     21  C   UNL     1       6.169   4.534  15.904  0.00  0.00    +0.000 A 
ATOM     22  C   UNL     1       6.396   4.544  17.256  0.00  0.00    +0.000 A 
ATOM     23  N   UNL     1       5.204   4.178  17.857  0.00  0.00    +0.000 N 
BRANCH  22  24
ATOM     24  N   UNL     1       7.619   4.890  17.899  0.00  0.00    +0.000 N 
ATOM     25  O   UNL     1       7.652   5.993  18.458  0.00  0.00    +0.000 OA
ATOM     26  O   UNL     1       8.551   4.079  17.870  0.00  0.00    +0.000 OA
ENDBRANCH  22  24
ENDBRANCH  17  23
ENDBRANCH  15  17
ENDBRANCH   1  15
TORSDOF 7
ENDMDL
MODEL 5
REMARK VINA RESULT:      -6.5      3.259      6.467
REMARK  Name = 
REMARK  9 active torsions:
REMARK  status: ('A' for Active; 'I' for Inactive)
REMARK    1  A    between atoms: C_1  and  C_2
REMARK    2  A    between atoms: C_5  and  N_6
REMARK    3  A    between atoms: N_9  and  C_10
REMARK    4  A    between atoms: C_10  and  C_11
REMARK    5  A    between atoms: C_11  and  C_12
REMARK    6  A    between atoms: C_11  and  O_13
REMARK    7  A    between atoms: O_13  and  C_14
REMARK    8  A    between atoms: N_16  and  C_17
REMARK    9  A    between atoms: C_20  and  N_21
REMARK                            x       y       z     vdW  Elec       q    Type
REMARK                         _______ _______ _______ _____ _____    ______ ____
ROOT
ATOM      1  O   UNL     1       3.021   4.166  20.675  0.00  0.00    +0.000 OA
ENDROOT
BRANCH   1   2
ATOM      2  C   UNL     1       2.218   5.111  20.098  0.00  0.00    +0.000 C 
ATOM      3  O   UNL     1       1.241   4.805  19.427  0.00  0.00    +0.000 OA
ATOM      4  N   UNL     1       2.678   6.386  20.334  0.00  0.00    +0.000 N 
ATOM      5  H   UNL     1       3.595   6.461  20.758  0.00  0.00    +0.000 HD
BRANCH   4   6
ATOM      6  C   UNL     1       2.018   7.560  19.903  0.00  0.00    +0.000 A 
ATOM      7  C   UNL     1       2.194   8.075  18.611  0.00  0.00    +0.000 A 
ATOM      8  C   UNL     1       1.572   9.253  18.201  0.00  0.00    +0.000 A 
ATOM      9  C   UNL     1       0.743   9.932  19.090  0.00  0.00    +0.000 A 
ATOM     10  C   UNL     1       0.533   9.427  20.382  0.00  0.00    +0.000 A 
ATOM     11  C   UNL     1       1.162   8.235  20.781  0.00  0.00    +0.000 A 
BRANCH   9  12
ATOM     12  N   UNL     1       0.087  11.173  18.659  0.00  0.00    +0.000 N 
ATOM     13  O   UNL     1       0.788  12.198  18.583  0.00  0.00    +0.000 OA
ATOM     14  O   UNL     1      -1.118  11.124  18.394  0.00  0.00    +0.000 OA
ENDBRANCH   9  12
ENDBRANCH   4   6
ENDBRANCH   1   2
BRANCH   1  15
ATOM     15  C   UNL     1       3.800   3.425  19.693  0.00  0.00    +0.000 C 
ATOM     16  C   UNL     1       4.263   2.117  20.325  0.00  0.00    +0.000 C 
BRANCH  15  17
ATOM     17  C   UNL     1       4.984   4.284  19.209  0.00  0.00    +0.000 C 
BRANCH  17  23
ATOM     18  C   UNL     1       3.038   3.594  16.763  0.00  0.00    +0.000 C 
ATOM     19  C   UNL     1       4.467   4.006  16.712  0.00  0.00    +0.000 A 
ATOM     20  N   UNL     1       5.122   4.101  15.569  0.00  0.00    +0.000 NA
ATOM     21  C   UNL     1       6.356   4.591  15.870  0.00  0.00    +0.000 A 
ATOM     22  C   UNL     1       6.472   4.785  17.222  0.00  0.00    +0.000 A 
ATOM     23  N   UNL     1       5.289   4.340  17.786  0.00  0.00    +0.000 N 
BRANCH  22  24
ATOM     24  N   UNL     1       7.591   5.357  17.894  0.00  0.00    +0.000 N 
ATOM     25  O   UNL     1       7.752   6.575  17.752  0.00  0.00    +0.000 OA
ATOM     26  O   UNL     1       8.311   4.619  18.574  0.00  0.00    +0.000 OA
ENDBRANCH  22  24
ENDBRANCH  17  23
ENDBRANCH  15  17
ENDBRANCH   1  15
TORSDOF 7
ENDMDL
MODEL 6
REMARK VINA RESULT:      -6.5      3.043      6.741
REMARK  Name = 
REMARK  9 active torsions:
REMARK  status: ('A' for Active; 'I' for Inactive)
REMARK    1  A    between atoms: C_1  and  C_2
REMARK    2  A    between atoms: C_5  and  N_6
REMARK    3  A    between atoms: N_9  and  C_10
REMARK    4  A    between atoms: C_10  and  C_11
REMARK    5  A    between atoms: C_11  and  C_12
REMARK    6  A    between atoms: C_11  and  O_13
REMARK    7  A    between atoms: O_13  and  C_14
REMARK    8  A    between atoms: N_16  and  C_17
REMARK    9  A    between atoms: C_20  and  N_21
REMARK                            x       y       z     vdW  Elec       q    Type
REMARK                         _______ _______ _______ _____ _____    ______ ____
ROOT
ATOM      1  O   UNL     1       3.338   4.416  16.954  0.00  0.00    +0.000 OA
ENDROOT
BRANCH   1   2
ATOM      2  C   UNL     1       2.464   5.170  17.687  0.00  0.00    +0.000 C 
ATOM      3  O   UNL     1       1.350   4.759  17.983  0.00  0.00    +0.000 OA
ATOM      4  N   UNL     1       2.981   6.409  17.983  0.00  0.00    +0.000 N 
ATOM      5  H   UNL     1       3.845   6.659  17.516  0.00  0.00    +0.000 HD
BRANCH   4   6
ATOM      6  C   UNL     1       2.319   7.378  18.772  0.00  0.00    +0.000 A 
ATOM      7  C   UNL     1       2.075   7.178  20.138  0.00  0.00    +0.000 A 
ATOM      8  C   UNL     1       1.389   8.117  20.905  0.00  0.00    +0.000 A 
ATOM      9  C   UNL     1       0.943   9.293  20.306  0.00  0.00    +0.000 A 
ATOM     10  C   UNL     1       1.192   9.528  18.945  0.00  0.00    +0.000 A 
ATOM     11  C   UNL     1       1.891   8.574  18.184  0.00  0.00    +0.000 A 
BRANCH   9  12
ATOM     12  N   UNL     1       0.219  10.284  21.113  0.00  0.00    +0.000 N 
ATOM     13  O   UNL     1      -0.677  10.939  20.552  0.00  0.00    +0.000 OA
ATOM     14  O   UNL     1       0.540  10.402  22.300  0.00  0.00    +0.000 OA
ENDBRANCH   9  12
ENDBRANCH   4   6
ENDBRANCH   1   2
BRANCH   1  15
ATOM     15  C   UNL     1       3.835   3.265  17.693  0.00  0.00    +0.000 C 
ATOM     16  C   UNL     1       3.396   3.395  19.148  0.00  0.00    +0.000 C 
BRANCH  15  17
ATOM     17  C   UNL     1       5.367   3.177  17.557  0.00  0.00    +0.000 C 
BRANCH  17  23
ATOM     18  C   UNL     1       6.000   4.080  14.552  0.00  0.00    +0.000 C 
ATOM     19  C   UNL     1       6.429   4.734  15.818  0.00  0.00    +0.000 A 
ATOM     20  N   UNL     1       7.194   5.811  15.818  0.00  0.00    +0.000 NA
ATOM     21  C   UNL     1       7.311   6.202  17.117  0.00  0.00    +0.000 A 
ATOM     22  C   UNL     1       6.623   5.344  17.934  0.00  0.00    +0.000 A 
ATOM     23  N   UNL     1       6.112   4.349  17.119  0.00  0.00    +0.000 N 
BRANCH  22  24
ATOM     24  N   UNL     1       6.455   5.479  19.343  0.00  0.00    +0.000 N 
ATOM     25  O   UNL     1       5.312   5.739  19.736  0.00  0.00    +0.000 OA
ATOM     26  O   UNL     1       7.439   5.321  20.072  0.00  0.00    +0.000 OA
ENDBRANCH  22  24
ENDBRANCH  17  23
ENDBRANCH  15  17
ENDBRANCH   1  15
TORSDOF 7
ENDMDL
MODEL 7
REMARK VINA RESULT:      -6.5      4.163      8.319
REMARK  Name = 
REMARK  9 active torsions:
REMARK  status: ('A' for Active; 'I' for Inactive)
REMARK    1  A    between atoms: C_1  and  C_2
REMARK    2  A    between atoms: C_5  and  N_6
REMARK    3  A    between atoms: N_9  and  C_10
REMARK    4  A    between atoms: C_10  and  C_11
REMARK    5  A    between atoms: C_11  and  C_12
REMARK    6  A    between atoms: C_11  and  O_13
REMARK    7  A    between atoms: O_13  and  C_14
REMARK    8  A    between atoms: N_16  and  C_17
REMARK    9  A    between atoms: C_20  and  N_21
REMARK                            x       y       z     vdW  Elec       q    Type
REMARK                         _______ _______ _______ _____ _____    ______ ____
ROOT
ATOM      1  O   UNL     1       2.563   6.429  19.982  0.00  0.00    +0.000 OA
ENDROOT
BRANCH   1   2
ATOM      2  C   UNL     1       1.911   7.629  20.061  0.00  0.00    +0.000 C 
ATOM      3  O   UNL     1       1.721   8.327  19.074  0.00  0.00    +0.000 OA
ATOM      4  N   UNL     1       1.562   7.937  21.355  0.00  0.00    +0.000 N 
ATOM      5  H   UNL     1       1.945   7.339  22.078  0.00  0.00    +0.000 HD
BRANCH   4   6
ATOM      6  C   UNL     1       0.833   9.090  21.728  0.00  0.00    +0.000 A 
ATOM      7  C   UNL     1       0.014   9.112  22.865  0.00  0.00    +0.000 A 
ATOM      8  C   UNL     1      -0.732  10.238  23.209  0.00  0.00    +0.000 A 
ATOM      9  C   UNL     1      -0.655  11.377  22.412  0.00  0.00    +0.000 A 
ATOM     10  C   UNL     1       0.173  11.389  21.279  0.00  0.00    +0.000 A 
ATOM     11  C   UNL     1       0.925  10.248  20.947  0.00  0.00    +0.000 A 
BRANCH   9  12
ATOM     12  N   UNL     1      -1.441  12.564  22.773  0.00  0.00    +0.000 N 
ATOM     13  O   UNL     1      -0.823  13.622  22.982  0.00  0.00    +0.000 OA
ATOM     14  O   UNL     1      -2.668  12.441  22.841  0.00  0.00    +0.000 OA
ENDBRANCH   9  12
ENDBRANCH   4   6
ENDBRANCH   1   2
BRANCH   1  15
ATOM     15  C   UNL     1       1.792   5.425  19.262  0.00  0.00    +0.000 C 
ATOM     16  C   UNL     1       1.259   4.409  20.266  0.00  0.00    +0.000 C 
BRANCH  15  17
ATOM     17  C   UNL     1       2.672   4.766  18.183  0.00  0.00    +0.000 C 
BRANCH  17  23
ATOM     18  C   UNL     1       4.440   2.638  19.794  0.00  0.00    +0.000 C 
ATOM     19  C   UNL     1       4.898   3.861  19.081  0.00  0.00    +0.000 A 
ATOM     20  N   UNL     1       6.168   4.226  19.073  0.00  0.00    +0.000 NA
ATOM     21  C   UNL     1       6.253   5.314  18.259  0.00  0.00    +0.000 A 
ATOM     22  C   UNL     1       5.015   5.637  17.770  0.00  0.00    +0.000 A 
ATOM     23  N   UNL     1       4.119   4.757  18.352  0.00  0.00    +0.000 N 
BRANCH  22  24
ATOM     24  N   UNL     1       4.727   6.668  16.828  0.00  0.00    +0.000 N 
ATOM     25  O   UNL     1       5.237   6.544  15.708  0.00  0.00    +0.000 OA
ATOM     26  O   UNL     1       3.992   7.597  17.177  0.00  0.00    +0.000 OA
ENDBRANCH  22  24
ENDBRANCH  17  23
ENDBRANCH  15  17
ENDBRANCH   1  15
TORSDOF 7
ENDMDL
MODEL 8
REMARK VINA RESULT:      -6.4      4.816      7.575
REMARK  Name = 
REMARK  9 active torsions:
REMARK  status: ('A' for Active; 'I' for Inactive)
REMARK    1  A    between atoms: C_1  and  C_2
REMARK    2  A    between atoms: C_5  and  N_6
REMARK    3  A    between atoms: N_9  and  C_10
REMARK    4  A    between atoms: C_10  and  C_11
REMARK    5  A    between atoms: C_11  and  C_12
REMARK    6  A    between atoms: C_11  and  O_13
REMARK    7  A    between atoms: O_13  and  C_14
REMARK    8  A    between atoms: N_16  and  C_17
REMARK    9  A    between atoms: C_20  and  N_21
REMARK                            x       y       z     vdW  Elec       q    Type
REMARK                         _______ _______ _______ _____ _____    ______ ____
ROOT
ATOM      1  O   UNL     1       1.264  10.438  18.561  0.00  0.00    +0.000 OA
ENDROOT
BRANCH   1   2
ATOM      2  C   UNL     1       1.756   9.183  18.333  0.00  0.00    +0.000 C 
ATOM      3  O   UNL     1       2.085   8.813  17.213  0.00  0.00    +0.000 OA
ATOM      4  N   UNL     1       1.779   8.426  19.480  0.00  0.00    +0.000 N 
ATOM      5  H   UNL     1       1.310   8.821  20.288  0.00  0.00    +0.000 HD
BRANCH   4   6
ATOM      6  C   UNL     1       2.286   7.108  19.552  0.00  0.00    +0.000 A 
ATOM      7  C   UNL     1       3.296   6.656  18.692  0.00  0.00    +0.000 A 
ATOM      8  C   UNL     1       3.768   5.346  18.740  0.00  0.00    +0.000 A 
ATOM      9  C   UNL     1       3.233   4.462  19.674  0.00  0.00    +0.000 A 
ATOM     10  C   UNL     1       2.235   4.894  20.561  0.00  0.00    +0.000 A 
ATOM     11  C   UNL     1       1.773   6.221  20.506  0.00  0.00    +0.000 A 
BRANCH   9  12
ATOM     12  N   UNL     1       3.728   3.080  19.725  0.00  0.00    +0.000 N 
ATOM     13  O   UNL     1       4.959   2.912  19.774  0.00  0.00    +0.000 OA
ATOM     14  O   UNL     1       2.893   2.171  19.723  0.00  0.00    +0.000 OA
ENDBRANCH   9  12
ENDBRANCH   4   6
ENDBRANCH   1   2
BRANCH   1  15
ATOM     15  C   UNL     1      -0.099  10.416  19.072  0.00  0.00    +0.000 C 
ATOM     16  C   UNL     1      -1.054  10.201  17.903  0.00  0.00    +0.000 C 
BRANCH  15  17
ATOM     17  C   UNL     1      -0.395  11.726  19.827  0.00  0.00    +0.000 C 
BRANCH  17  23
ATOM     18  C   UNL     1      -2.878  13.462  20.862  0.00  0.00    +0.000 C 
ATOM     19  C   UNL     1      -2.095  12.442  21.610  0.00  0.00    +0.000 A 
ATOM     20  N   UNL     1      -2.351  12.159  22.875  0.00  0.00    +0.000 NA
ATOM     21  C   UNL     1      -1.530  11.128  23.216  0.00  0.00    +0.000 A 
ATOM     22  C   UNL     1      -0.741  10.779  22.151  0.00  0.00    +0.000 A 
ATOM     23  N   UNL     1      -1.040  11.667  21.132  0.00  0.00    +0.000 N 
BRANCH  22  24
ATOM     24  N   UNL     1       0.182   9.694  22.110  0.00  0.00    +0.000 N 
ATOM     25  O   UNL     1       1.374   9.982  22.270  0.00  0.00    +0.000 OA
ATOM     26  O   UNL     1      -0.256   8.553  21.933  0.00  0.00    +0.000 OA
ENDBRANCH  22  24
ENDBRANCH  17  23
ENDBRANCH  15  17
ENDBRANCH   1  15
TORSDOF 7
ENDMDL
MODEL 9
REMARK VINA RESULT:      -6.4      3.544      7.133
REMARK  Name = 
REMARK  9 active torsions:
REMARK  status: ('A' for Active; 'I' for Inactive)
REMARK    1  A    between atoms: C_1  and  C_2
REMARK    2  A    between atoms: C_5  and  N_6
REMARK    3  A    between atoms: N_9  and  C_10
REMARK    4  A    between atoms: C_10  and  C_11
REMARK    5  A    between atoms: C_11  and  C_12
REMARK    6  A    between atoms: C_11  and  O_13
REMARK    7  A    between atoms: O_13  and  C_14
REMARK    8  A    between atoms: N_16  and  C_17
REMARK    9  A    between atoms: C_20  and  N_21
REMARK                            x       y       z     vdW  Elec       q    Type
REMARK                         _______ _______ _______ _____ _____    ______ ____
ROOT
ATOM      1  O   UNL     1       3.219   6.529  17.818  0.00  0.00    +0.000 OA
ENDROOT
BRANCH   1   2
ATOM      2  C   UNL     1       2.552   7.658  18.206  0.00  0.00    +0.000 C 
ATOM      3  O   UNL     1       2.409   8.614  17.454  0.00  0.00    +0.000 OA
ATOM      4  N   UNL     1       2.130   7.580  19.512  0.00  0.00    +0.000 N 
ATOM      5  H   UNL     1       2.480   6.795  20.051  0.00  0.00    +0.000 HD
BRANCH   4   6
ATOM      6  C   UNL     1       1.371   8.580  20.163  0.00  0.00    +0.000 A 
ATOM      7  C   UNL     1       1.243   8.621  21.558  0.00  0.00    +0.000 A 
ATOM      8  C   UNL     1       0.464   9.586  22.195  0.00  0.00    +0.000 A 
ATOM      9  C   UNL     1      -0.197  10.543  21.429  0.00  0.00    +0.000 A 
ATOM     10  C   UNL     1      -0.070  10.537  20.031  0.00  0.00    +0.000 A 
ATOM     11  C   UNL     1       0.725   9.562  19.403  0.00  0.00    +0.000 A 
BRANCH   9  12
ATOM     12  N   UNL     1      -1.019  11.559  22.098  0.00  0.00    +0.000 N 
ATOM     13  O   UNL     1      -1.006  11.583  23.341  0.00  0.00    +0.000 OA
ATOM     14  O   UNL     1      -1.669  12.331  21.386  0.00  0.00    +0.000 OA
ENDBRANCH   9  12
ENDBRANCH   4   6
ENDBRANCH   1   2
BRANCH   1  15
ATOM     15  C   UNL     1       4.503   6.385  18.488  0.00  0.00    +0.000 C 
ATOM     16  C   UNL     1       5.612   6.511  17.449  0.00  0.00    +0.000 C 
BRANCH  15  17
ATOM     17  C   UNL     1       4.556   5.035  19.230  0.00  0.00    +0.000 C 
BRANCH  17  23
ATOM     18  C   UNL     1       4.542   3.161  16.634  0.00  0.00    +0.000 C 
ATOM     19  C   UNL     1       3.552   3.200  17.745  0.00  0.00    +0.000 A 
ATOM     20  N   UNL     1       2.480   2.429  17.747  0.00  0.00    +0.000 NA
ATOM     21  C   UNL     1       1.853   2.640  18.936  0.00  0.00    +0.000 A 
ATOM     22  C   UNL     1       2.538   3.570  19.674  0.00  0.00    +0.000 A 
ATOM     23  N   UNL     1       3.594   3.996  18.888  0.00  0.00    +0.000 N 
BRANCH  22  24
ATOM     24  N   UNL     1       2.224   3.985  21.001  0.00  0.00    +0.000 N 
ATOM     25  O   UNL     1       1.802   5.140  21.129  0.00  0.00    +0.000 OA
ATOM     26  O   UNL     1       2.380   3.179  21.924  0.00  0.00    +0.000 OA
ENDBRANCH  22  24
ENDBRANCH  17  23
ENDBRANCH  15  17
ENDBRANCH   1  15
TORSDOF 7
ENDMDL
