MODEL 1
REMARK VINA RESULT:      -8.3      0.000      0.000
REMARK  Name = 
REMARK  3 active torsions:
REMARK  status: ('A' for Active; 'I' for Inactive)
REMARK    1  A    between atoms: C_5  and  C_6
REMARK    2  A    between atoms: C_11  and  S_12
REMARK    3  A    between atoms: S_12  and  C_14
REMARK                            x       y       z     vdW  Elec       q    Type
REMARK                         _______ _______ _______ _____ _____    ______ ____
ROOT
ATOM      1  C   UNL     1       4.665   6.031  16.835  0.00  0.00    +0.000 A 
ATOM      2  C   UNL     1       4.255   7.371  16.641  0.00  0.00    +0.000 A 
ATOM      3  C   UNL     1       3.301   7.978  17.457  0.00  0.00    +0.000 A 
ATOM      4  C   UNL     1       2.720   7.254  18.486  0.00  0.00    +0.000 A 
ATOM      5  C   UNL     1       3.103   5.930  18.701  0.00  0.00    +0.000 A 
ATOM      6  C   UNL     1       4.072   5.301  17.891  0.00  0.00    +0.000 A 
ENDROOT
BRANCH   1  11
ATOM      7  N   UNL     1       6.494   3.586  13.262  0.00  0.00    +0.000 N 
ATOM      8  C   UNL     1       6.513   4.435  14.291  0.00  0.00    +0.000 A 
ATOM      9  N   UNL     1       7.481   5.191  14.746  0.00  0.00    +0.000 NA
ATOM     10  N   UNL     1       6.948   5.907  15.796  0.00  0.00    +0.000 NA
ATOM     11  C   UNL     1       5.684   5.537  15.903  0.00  0.00    +0.000 A 
ATOM     12  O   UNL     1       5.343   4.598  14.968  0.00  0.00    +0.000 OA
ATOM     13  H   UNL     1       7.238   3.678  12.580  0.00  0.00    +0.000 HD
ATOM     14  H   UNL     1       5.598   3.308  12.882  0.00  0.00    +0.000 HD
ENDBRANCH   1  11
BRANCH   6  15
ATOM     15  S   UNL     1       4.604   3.625  18.369  0.00  0.00    +0.000 S 
ATOM     16  O   UNL     1       5.787   3.808  19.390  0.00  0.00    +0.000 OA
BRANCH  15  17
ATOM     17  C   UNL     1       3.135   3.206  19.350  0.00  0.00    +0.000 A 
ATOM     18  C   UNL     1       3.201   3.178  20.749  0.00  0.00    +0.000 A 
ATOM     19  C   UNL     1       2.045   2.981  21.511  0.00  0.00    +0.000 A 
ATOM     20  C   UNL     1       0.812   2.818  20.883  0.00  0.00    +0.000 A 
ATOM     21  C   UNL     1       0.733   2.848  19.492  0.00  0.00    +0.000 A 
ATOM     22  C   UNL     1       1.889   3.044  18.730  0.00  0.00    +0.000 A 
ENDBRANCH  15  17
ENDBRANCH   6  15
TORSDOF 3
ENDMDL
MODEL 2
REMARK VINA RESULT:      -8.1      0.151      1.088
REMARK  Name = 
REMARK  3 active torsions:
REMARK  status: ('A' for Active; 'I' for Inactive)
REMARK    1  A    between atoms: C_5  and  C_6
REMARK    2  A    between atoms: C_11  and  S_12
REMARK    3  A    between atoms: S_12  and  C_14
REMARK                            x       y       z     vdW  Elec       q    Type
REMARK                         _______ _______ _______ _____ _____    ______ ____
ROOT
ATOM      1  C   UNL     1       4.695   6.086  16.819  0.00  0.00    +0.000 A 
ATOM      2  C   UNL     1       4.339   7.441  16.620  0.00  0.00    +0.000 A 
ATOM      3  C   UNL     1       3.392   8.082  17.418  0.00  0.00    +0.000 A 
ATOM      4  C   UNL     1       2.763   7.379  18.432  0.00  0.00    +0.000 A 
ATOM      5  C   UNL     1       3.091   6.041  18.651  0.00  0.00    +0.000 A 
ATOM      6  C   UNL     1       4.053   5.378  17.860  0.00  0.00    +0.000 A 
ENDROOT
BRANCH   1  11
ATOM      7  N   UNL     1       6.505   3.581  13.279  0.00  0.00    +0.000 N 
ATOM      8  C   UNL     1       6.535   4.427  14.310  0.00  0.00    +0.000 A 
ATOM      9  N   UNL     1       7.520   5.145  14.787  0.00  0.00    +0.000 NA
ATOM     10  N   UNL     1       6.993   5.880  15.828  0.00  0.00    +0.000 NA
ATOM     11  C   UNL     1       5.713   5.557  15.907  0.00  0.00    +0.000 A 
ATOM     12  O   UNL     1       5.358   4.633  14.963  0.00  0.00    +0.000 OA
ATOM     13  H   UNL     1       7.266   3.646  12.613  0.00  0.00    +0.000 HD
ATOM     14  H   UNL     1       5.608   3.337  12.880  0.00  0.00    +0.000 HD
ENDBRANCH   1  11
BRANCH   6  15
ATOM     15  S   UNL     1       4.512   3.682  18.345  0.00  0.00    +0.000 S 
ATOM     16  O   UNL     1       5.776   3.811  19.273  0.00  0.00    +0.000 OA
BRANCH  15  17
ATOM     17  C   UNL     1       3.096   3.382  19.441  0.00  0.00    +0.000 A 
ATOM     18  C   UNL     1       1.829   3.116  18.906  0.00  0.00    +0.000 A 
ATOM     19  C   UNL     1       0.766   2.759  19.743  0.00  0.00    +0.000 A 
ATOM     20  C   UNL     1       0.961   2.658  21.118  0.00  0.00    +0.000 A 
ATOM     21  C   UNL     1       2.217   2.918  21.662  0.00  0.00    +0.000 A 
ATOM     22  C   UNL     1       3.280   3.274  20.827  0.00  0.00    +0.000 A 
ENDBRANCH  15  17
ENDBRANCH   6  15
TORSDOF 3
ENDMDL
MODEL 3
REMARK VINA RESULT:      -7.7      3.442      5.776
REMARK  Name = 
REMARK  3 active torsions:
REMARK  status: ('A' for Active; 'I' for Inactive)
REMARK    1  A    between atoms: C_5  and  C_6
REMARK    2  A    between atoms: C_11  and  S_12
REMARK    3  A    between atoms: S_12  and  C_14
REMARK                            x       y       z     vdW  Elec       q    Type
REMARK                         _______ _______ _______ _____ _____    ______ ____
ROOT
ATOM      1  C   UNL     1       2.641   5.148  19.128  0.00  0.00    +0.000 A 
ATOM      2  C   UNL     1       1.542   4.260  19.197  0.00  0.00    +0.000 A 
ATOM      3  C   UNL     1       1.705   2.876  19.148  0.00  0.00    +0.000 A 
ATOM      4  C   UNL     1       2.977   2.341  19.015  0.00  0.00    +0.000 A 
ATOM      5  C   UNL     1       4.080   3.192  18.942  0.00  0.00    +0.000 A 
ATOM      6  C   UNL     1       3.935   4.594  18.999  0.00  0.00    +0.000 A 
ENDROOT
BRANCH   1  11
ATOM      7  N   UNL     1       1.828   9.525  17.624  0.00  0.00    +0.000 N 
ATOM      8  C   UNL     1       1.943   8.552  18.528  0.00  0.00    +0.000 A 
ATOM      9  N   UNL     1       1.694   8.559  19.814  0.00  0.00    +0.000 NA
ATOM     10  N   UNL     1       1.934   7.276  20.259  0.00  0.00    +0.000 NA
ATOM     11  C   UNL     1       2.310   6.575  19.203  0.00  0.00    +0.000 A 
ATOM     12  O   UNL     1       2.335   7.333  18.065  0.00  0.00    +0.000 OA
ATOM     13  H   UNL     1       1.263  10.326  17.882  0.00  0.00    +0.000 HD
ATOM     14  H   UNL     1       1.787   9.273  16.644  0.00  0.00    +0.000 HD
ENDBRANCH   1  11
BRANCH   6  15
ATOM     15  S   UNL     1       5.458   5.592  19.057  0.00  0.00    +0.000 S 
ATOM     16  O   UNL     1       6.513   4.749  19.865  0.00  0.00    +0.000 OA
BRANCH  15  17
ATOM     17  C   UNL     1       5.895   5.418  17.302  0.00  0.00    +0.000 A 
ATOM     18  C   UNL     1       7.037   4.701  16.923  0.00  0.00    +0.000 A 
ATOM     19  C   UNL     1       7.306   4.457  15.573  0.00  0.00    +0.000 A 
ATOM     20  C   UNL     1       6.434   4.919  14.590  0.00  0.00    +0.000 A 
ATOM     21  C   UNL     1       5.293   5.631  14.955  0.00  0.00    +0.000 A 
ATOM     22  C   UNL     1       5.024   5.876  16.304  0.00  0.00    +0.000 A 
ENDBRANCH  15  17
ENDBRANCH   6  15
TORSDOF 3
ENDMDL
MODEL 4
REMARK VINA RESULT:      -7.7      3.231      4.385
REMARK  Name = 
REMARK  3 active torsions:
REMARK  status: ('A' for Active; 'I' for Inactive)
REMARK    1  A    between atoms: C_5  and  C_6
REMARK    2  A    between atoms: C_11  and  S_12
REMARK    3  A    between atoms: S_12  and  C_14
REMARK                            x       y       z     vdW  Elec       q    Type
REMARK                         _______ _______ _______ _____ _____    ______ ____
ROOT
ATOM      1  C   UNL     1       4.109   6.245  17.567  0.00  0.00    +0.000 A 
ATOM      2  C   UNL     1       5.413   6.723  17.298  0.00  0.00    +0.000 A 
ATOM      3  C   UNL     1       6.405   5.903  16.761  0.00  0.00    +0.000 A 
ATOM      4  C   UNL     1       6.121   4.574  16.490  0.00  0.00    +0.000 A 
ATOM      5  C   UNL     1       4.845   4.073  16.747  0.00  0.00    +0.000 A 
ATOM      6  C   UNL     1       3.826   4.890  17.281  0.00  0.00    +0.000 A 
ENDROOT
BRANCH   1  11
ATOM      7  N   UNL     1       1.293  10.006  17.682  0.00  0.00    +0.000 N 
ATOM      8  C   UNL     1       1.902   8.927  18.176  0.00  0.00    +0.000 A 
ATOM      9  N   UNL     1       1.771   8.341  19.340  0.00  0.00    +0.000 NA
ATOM     10  N   UNL     1       2.599   7.239  19.310  0.00  0.00    +0.000 NA
ATOM     11  C   UNL     1       3.174   7.230  18.120  0.00  0.00    +0.000 A 
ATOM     12  O   UNL     1       2.769   8.284  17.347  0.00  0.00    +0.000 OA
ATOM     13  H   UNL     1       0.447  10.309  18.150  0.00  0.00    +0.000 HD
ATOM     14  H   UNL     1       1.300  10.148  16.679  0.00  0.00    +0.000 HD
ENDBRANCH   1  11
BRANCH   6  15
ATOM     15  S   UNL     1       2.160   4.167  17.422  0.00  0.00    +0.000 S 
ATOM     16  O   UNL     1       2.175   2.844  16.571  0.00  0.00    +0.000 OA
BRANCH  15  17
ATOM     17  C   UNL     1       2.291   3.663  19.162  0.00  0.00    +0.000 A 
ATOM     18  C   UNL     1       1.176   3.731  20.006  0.00  0.00    +0.000 A 
ATOM     19  C   UNL     1       1.240   3.225  21.309  0.00  0.00    +0.000 A 
ATOM     20  C   UNL     1       2.415   2.641  21.777  0.00  0.00    +0.000 A 
ATOM     21  C   UNL     1       3.530   2.565  20.945  0.00  0.00    +0.000 A 
ATOM     22  C   UNL     1       3.467   3.070  19.643  0.00  0.00    +0.000 A 
ENDBRANCH  15  17
ENDBRANCH   6  15
TORSDOF 3
ENDMDL
MODEL 5
REMARK VINA RESULT:      -7.6      2.785      3.889
REMARK  Name = 
REMARK  3 active torsions:
REMARK  status: ('A' for Active; 'I' for Inactive)
REMARK    1  A    between atoms: C_5  and  C_6
REMARK    2  A    between atoms: C_11  and  S_12
REMARK    3  A    between atoms: S_12  and  C_14
REMARK                            x       y       z     vdW  Elec       q    Type
REMARK                         _______ _______ _______ _____ _____    ______ ____
ROOT
ATOM      1  C   UNL     1       6.608   5.774  16.601  0.00  0.00    +0.000 A 
ATOM      2  C   UNL     1       7.253   5.319  15.427  0.00  0.00    +0.000 A 
ATOM      3  C   UNL     1       6.649   4.414  14.554  0.00  0.00    +0.000 A 
ATOM      4  C   UNL     1       5.383   3.928  14.841  0.00  0.00    +0.000 A 
ATOM      5  C   UNL     1       4.723   4.357  15.993  0.00  0.00    +0.000 A 
ATOM      6  C   UNL     1       5.314   5.278  16.882  0.00  0.00    +0.000 A 
ENDROOT
BRANCH   1  11
ATOM      7  N   UNL     1       8.410   9.908  17.922  0.00  0.00    +0.000 N 
ATOM      8  C   UNL     1       8.182   8.596  18.011  0.00  0.00    +0.000 A 
ATOM      9  N   UNL     1       8.511   7.742  18.947  0.00  0.00    +0.000 NA
ATOM     10  N   UNL     1       7.986   6.527  18.561  0.00  0.00    +0.000 NA
ATOM     11  C   UNL     1       7.366   6.733  17.411  0.00  0.00    +0.000 A 
ATOM     12  O   UNL     1       7.454   8.036  17.006  0.00  0.00    +0.000 OA
ATOM     13  H   UNL     1       8.672  10.385  18.777  0.00  0.00    +0.000 HD
ATOM     14  H   UNL     1       7.846  10.455  17.284  0.00  0.00    +0.000 HD
ENDBRANCH   1  11
BRANCH   6  15
ATOM     15  S   UNL     1       4.292   5.884  18.263  0.00  0.00    +0.000 S 
ATOM     16  O   UNL     1       3.349   6.993  17.666  0.00  0.00    +0.000 OA
BRANCH  15  17
ATOM     17  C   UNL     1       3.276   4.390  18.449  0.00  0.00    +0.000 A 
ATOM     18  C   UNL     1       3.796   3.255  19.085  0.00  0.00    +0.000 A 
ATOM     19  C   UNL     1       2.978   2.150  19.343  0.00  0.00    +0.000 A 
ATOM     20  C   UNL     1       1.634   2.172  18.977  0.00  0.00    +0.000 A 
ATOM     21  C   UNL     1       1.105   3.297  18.347  0.00  0.00    +0.000 A 
ATOM     22  C   UNL     1       1.922   4.401  18.088  0.00  0.00    +0.000 A 
ENDBRANCH  15  17
ENDBRANCH   6  15
TORSDOF 3
ENDMDL
MODEL 6
REMARK VINA RESULT:      -7.6      3.430      5.884
REMARK  Name = 
REMARK  3 active torsions:
REMARK  status: ('A' for Active; 'I' for Inactive)
REMARK    1  A    between atoms: C_5  and  C_6
REMARK    2  A    between atoms: C_11  and  S_12
REMARK    3  A    between atoms: S_12  and  C_14
REMARK                            x       y       z     vdW  Elec       q    Type
REMARK                         _______ _______ _______ _____ _____    ______ ____
ROOT
ATOM      1  C   UNL     1       2.680   5.152  19.409  0.00  0.00    +0.000 A 
ATOM      2  C   UNL     1       1.622   4.240  19.634  0.00  0.00    +0.000 A 
ATOM      3  C   UNL     1       1.832   2.862  19.688  0.00  0.00    +0.000 A 
ATOM      4  C   UNL     1       3.109   2.357  19.504  0.00  0.00    +0.000 A 
ATOM      5  C   UNL     1       4.172   3.231  19.278  0.00  0.00    +0.000 A 
ATOM      6  C   UNL     1       3.981   4.628  19.229  0.00  0.00    +0.000 A 
ENDROOT
BRANCH   1  11
ATOM      7  N   UNL     1       1.745   9.396  17.621  0.00  0.00    +0.000 N 
ATOM      8  C   UNL     1       1.882   8.486  18.587  0.00  0.00    +0.000 A 
ATOM      9  N   UNL     1       1.619   8.567  19.868  0.00  0.00    +0.000 NA
ATOM     10  N   UNL     1       1.895   7.324  20.395  0.00  0.00    +0.000 NA
ATOM     11  C   UNL     1       2.304   6.569  19.390  0.00  0.00    +0.000 A 
ATOM     12  O   UNL     1       2.316   7.254  18.206  0.00  0.00    +0.000 OA
ATOM     13  H   UNL     1       1.153  10.193  17.823  0.00  0.00    +0.000 HD
ATOM     14  H   UNL     1       1.722   9.080  16.660  0.00  0.00    +0.000 HD
ENDBRANCH   1  11
BRANCH   6  15
ATOM     15  S   UNL     1       5.467   5.673  19.089  0.00  0.00    +0.000 S 
ATOM     16  O   UNL     1       6.589   4.968  19.938  0.00  0.00    +0.000 OA
BRANCH  15  17
ATOM     17  C   UNL     1       5.827   5.301  17.348  0.00  0.00    +0.000 A 
ATOM     18  C   UNL     1       4.963   5.739  16.336  0.00  0.00    +0.000 A 
ATOM     19  C   UNL     1       5.301   5.566  14.990  0.00  0.00    +0.000 A 
ATOM     20  C   UNL     1       6.507   4.960  14.643  0.00  0.00    +0.000 A 
ATOM     21  C   UNL     1       7.376   4.523  15.641  0.00  0.00    +0.000 A 
ATOM     22  C   UNL     1       7.038   4.695  16.986  0.00  0.00    +0.000 A 
ENDBRANCH  15  17
ENDBRANCH   6  15
TORSDOF 3
ENDMDL
MODEL 7
REMARK VINA RESULT:      -7.6      3.266      6.124
REMARK  Name = 
REMARK  3 active torsions:
REMARK  status: ('A' for Active; 'I' for Inactive)
REMARK    1  A    between atoms: C_5  and  C_6
REMARK    2  A    between atoms: C_11  and  S_12
REMARK    3  A    between atoms: S_12  and  C_14
REMARK                            x       y       z     vdW  Elec       q    Type
REMARK                         _______ _______ _______ _____ _____    ______ ____
ROOT
ATOM      1  C   UNL     1       2.612   4.918  19.302  0.00  0.00    +0.000 A 
ATOM      2  C   UNL     1       1.569   3.964  19.350  0.00  0.00    +0.000 A 
ATOM      3  C   UNL     1       1.803   2.603  19.155  0.00  0.00    +0.000 A 
ATOM      4  C   UNL     1       3.090   2.160  18.895  0.00  0.00    +0.000 A 
ATOM      5  C   UNL     1       4.139   3.078  18.840  0.00  0.00    +0.000 A 
ATOM      6  C   UNL     1       3.923   4.457  19.042  0.00  0.00    +0.000 A 
ENDROOT
BRANCH   1  11
ATOM      7  N   UNL     1       1.040   8.670  21.655  0.00  0.00    +0.000 N 
ATOM      8  C   UNL     1       1.502   8.005  20.595  0.00  0.00    +0.000 A 
ATOM      9  N   UNL     1       1.838   8.438  19.406  0.00  0.00    +0.000 NA
ATOM     10  N   UNL     1       2.298   7.339  18.712  0.00  0.00    +0.000 NA
ATOM     11  C   UNL     1       2.211   6.310  19.537  0.00  0.00    +0.000 A 
ATOM     12  O   UNL     1       1.711   6.670  20.757  0.00  0.00    +0.000 OA
ATOM     13  H   UNL     1       1.165   9.675  21.654  0.00  0.00    +0.000 HD
ATOM     14  H   UNL     1       1.104   8.233  22.566  0.00  0.00    +0.000 HD
ENDBRANCH   1  11
BRANCH   6  15
ATOM     15  S   UNL     1       5.392   5.534  19.106  0.00  0.00    +0.000 S 
ATOM     16  O   UNL     1       6.489   4.743  19.910  0.00  0.00    +0.000 OA
BRANCH  15  17
ATOM     17  C   UNL     1       5.837   5.393  17.351  0.00  0.00    +0.000 A 
ATOM     18  C   UNL     1       6.916   4.592  16.955  0.00  0.00    +0.000 A 
ATOM     19  C   UNL     1       7.182   4.380  15.599  0.00  0.00    +0.000 A 
ATOM     20  C   UNL     1       6.369   4.958  14.626  0.00  0.00    +0.000 A 
ATOM     21  C   UNL     1       5.291   5.755  15.008  0.00  0.00    +0.000 A 
ATOM     22  C   UNL     1       5.025   5.968  16.363  0.00  0.00    +0.000 A 
ENDBRANCH  15  17
ENDBRANCH   6  15
TORSDOF 3
ENDMDL
MODEL 8
REMARK VINA RESULT:      -7.6      0.803      1.019
REMARK  Name = 
REMARK  3 active torsions:
REMARK  status: ('A' for Active; 'I' for Inactive)
REMARK    1  A    between atoms: C_5  and  C_6
REMARK    2  A    between atoms: C_11  and  S_12
REMARK    3  A    between atoms: S_12  and  C_14
REMARK                            x       y       z     vdW  Elec       q    Type
REMARK                         _______ _______ _______ _____ _____    ______ ____
ROOT
ATOM      1  C   UNL     1       4.530   5.919  16.779  0.00  0.00    +0.000 A 
ATOM      2  C   UNL     1       4.136   7.262  16.569  0.00  0.00    +0.000 A 
ATOM      3  C   UNL     1       3.321   7.943  17.473  0.00  0.00    +0.000 A 
ATOM      4  C   UNL     1       2.867   7.293  18.609  0.00  0.00    +0.000 A 
ATOM      5  C   UNL     1       3.237   5.968  18.842  0.00  0.00    +0.000 A 
ATOM      6  C   UNL     1       4.068   5.266  17.944  0.00  0.00    +0.000 A 
ENDROOT
BRANCH   1  11
ATOM      7  N   UNL     1       8.191   5.562  13.854  0.00  0.00    +0.000 N 
ATOM      8  C   UNL     1       7.047   5.179  14.424  0.00  0.00    +0.000 A 
ATOM      9  N   UNL     1       6.365   4.069  14.287  0.00  0.00    +0.000 NA
ATOM     10  N   UNL     1       5.289   4.172  15.142  0.00  0.00    +0.000 NA
ATOM     11  C   UNL     1       5.397   5.343  15.746  0.00  0.00    +0.000 A 
ATOM     12  O   UNL     1       6.502   6.035  15.330  0.00  0.00    +0.000 OA
ATOM     13  H   UNL     1       8.754   4.837  13.426  0.00  0.00    +0.000 HD
ATOM     14  H   UNL     1       8.717   6.313  14.283  0.00  0.00    +0.000 HD
ENDBRANCH   1  11
BRANCH   6  15
ATOM     15  S   UNL     1       4.613   3.598  18.436  0.00  0.00    +0.000 S 
ATOM     16  O   UNL     1       5.785   3.798  19.466  0.00  0.00    +0.000 OA
BRANCH  15  17
ATOM     17  C   UNL     1       3.140   3.170  19.408  0.00  0.00    +0.000 A 
ATOM     18  C   UNL     1       3.212   3.082  20.805  0.00  0.00    +0.000 A 
ATOM     19  C   UNL     1       2.056   2.879  21.564  0.00  0.00    +0.000 A 
ATOM     20  C   UNL     1       0.816   2.769  20.937  0.00  0.00    +0.000 A 
ATOM     21  C   UNL     1       0.731   2.857  19.549  0.00  0.00    +0.000 A 
ATOM     22  C   UNL     1       1.887   3.060  18.790  0.00  0.00    +0.000 A 
ENDBRANCH  15  17
ENDBRANCH   6  15
TORSDOF 3
ENDMDL
MODEL 9
REMARK VINA RESULT:      -7.6      3.109      4.554
REMARK  Name = 
REMARK  3 active torsions:
REMARK  status: ('A' for Active; 'I' for Inactive)
REMARK    1  A    between atoms: C_5  and  C_6
REMARK    2  A    between atoms: C_11  and  S_12
REMARK    3  A    between atoms: S_12  and  C_14
REMARK                            x       y       z     vdW  Elec       q    Type
REMARK                         _______ _______ _______ _____ _____    ______ ____
ROOT
ATOM      1  C   UNL     1       4.012   6.148  17.660  0.00  0.00    +0.000 A 
ATOM      2  C   UNL     1       5.284   6.695  17.371  0.00  0.00    +0.000 A 
ATOM      3  C   UNL     1       6.269   5.967  16.704  0.00  0.00    +0.000 A 
ATOM      4  C   UNL     1       6.011   4.661  16.319  0.00  0.00    +0.000 A 
ATOM      5  C   UNL     1       4.766   4.093  16.591  0.00  0.00    +0.000 A 
ATOM      6  C   UNL     1       3.755   4.818  17.257  0.00  0.00    +0.000 A 
ENDROOT
BRANCH   1  11
ATOM      7  N   UNL     1       1.517   7.938  21.217  0.00  0.00    +0.000 N 
ATOM      8  C   UNL     1       1.952   7.851  19.959  0.00  0.00    +0.000 A 
ATOM      9  N   UNL     1       1.733   8.635  18.933  0.00  0.00    +0.000 NA
ATOM     10  N   UNL     1       2.462   8.111  17.887  0.00  0.00    +0.000 NA
ATOM     11  C   UNL     1       3.080   7.041  18.356  0.00  0.00    +0.000 A 
ATOM     12  O   UNL     1       2.796   6.821  19.676  0.00  0.00    +0.000 OA
ATOM     13  H   UNL     1       1.151   8.835  21.514  0.00  0.00    +0.000 HD
ATOM     14  H   UNL     1       2.007   7.418  21.934  0.00  0.00    +0.000 HD
ENDBRANCH   1  11
BRANCH   6  15
ATOM     15  S   UNL     1       2.121   4.026  17.412  0.00  0.00    +0.000 S 
ATOM     16  O   UNL     1       2.194   2.689  16.586  0.00  0.00    +0.000 OA
BRANCH  15  17
ATOM     17  C   UNL     1       2.274   3.561  19.161  0.00  0.00    +0.000 A 
ATOM     18  C   UNL     1       1.169   3.645  20.017  0.00  0.00    +0.000 A 
ATOM     19  C   UNL     1       1.249   3.169  21.329  0.00  0.00    +0.000 A 
ATOM     20  C   UNL     1       2.431   2.597  21.796  0.00  0.00    +0.000 A 
ATOM     21  C   UNL     1       3.536   2.504  20.953  0.00  0.00    +0.000 A 
ATOM     22  C   UNL     1       3.457   2.981  19.641  0.00  0.00    +0.000 A 
ENDBRANCH  15  17
ENDBRANCH   6  15
TORSDOF 3
ENDMDL
