MODEL 1
REMARK VINA RESULT:      -9.1      0.000      0.000
REMARK  Name = 
REMARK  10 active torsions:
REMARK  status: ('A' for Active; 'I' for Inactive)
REMARK    1  A    between atoms: C_1  and  C_2
REMARK    2  A    between atoms: C_3  and  C_4
REMARK    3  A    between atoms: C_5  and  C_6
REMARK    4  A    between atoms: C_6  and  C_8
REMARK    5  A    between atoms: C_9  and  C_10
REMARK    6  A    between atoms: C_12  and  C_13
REMARK    7  A    between atoms: C_18  and  C_19
REMARK    8  A    between atoms: C_24  and  C_25
REMARK    9  A    between atoms: C_24  and  C_26
REMARK   10  A    between atoms: C_29  and  O_30
REMARK                            x       y       z     vdW  Elec       q    Type
REMARK                         _______ _______ _______ _____ _____    ______ ____
ROOT
ATOM      1  C   UNL     1       2.044   8.330  17.896  0.00  0.00    +0.000 C 
ATOM      2  C   UNL     1       3.321   7.886  17.859  0.00  0.00    +0.000 C 
ENDROOT
BRANCH   2   3
ATOM      3  C   UNL     1       3.620   6.470  17.637  0.00  0.00    +0.000 A 
ATOM      4  C   UNL     1       4.769   6.123  16.908  0.00  0.00    +0.000 A 
ATOM      5  C   UNL     1       5.036   4.791  16.557  0.00  0.00    +0.000 A 
ATOM      6  C   UNL     1       4.167   3.783  17.006  0.00  0.00    +0.000 A 
ATOM      7  C   UNL     1       3.017   4.104  17.748  0.00  0.00    +0.000 A 
ATOM      8  C   UNL     1       2.752   5.453  18.053  0.00  0.00    +0.000 A 
BRANCH   5   9
ATOM      9  C   UNL     1       6.192   4.463  15.640  0.00  0.00    +0.000 C 
ATOM     10  F   UNL     1       6.327   5.357  14.621  0.00  0.00    +0.000 F 
ATOM     11  F   UNL     1       7.390   4.432  16.278  0.00  0.00    +0.000 F 
ATOM     12  F   UNL     1       6.045   3.247  15.043  0.00  0.00    +0.000 F 
ENDBRANCH   5   9
BRANCH   7  13
ATOM     13  C   UNL     1       2.049   3.013  18.154  0.00  0.00    +0.000 C 
ATOM     14  F   UNL     1       2.197   1.871  17.422  0.00  0.00    +0.000 F 
ATOM     15  F   UNL     1       2.182   2.642  19.456  0.00  0.00    +0.000 F 
ATOM     16  F   UNL     1       0.750   3.386  17.996  0.00  0.00    +0.000 F 
ENDBRANCH   7  13
ENDBRANCH   2   3
BRANCH   1  17
ATOM     17  C   UNL     1       1.712   9.788  18.036  0.00  0.00    +0.000 C 
ATOM     18  O   UNL     1       2.547  10.675  17.975  0.00  0.00    +0.000 OA
BRANCH  17  20
ATOM     19  C   UNL     1      -0.320  11.234  18.306  0.00  0.00    +0.000 C 
ATOM     20  C   UNL     1       0.252   9.997  18.290  0.00  0.00    +0.000 C 
BRANCH  19  23
ATOM     21  C   UNL     1      -2.728  10.318  16.509  0.00  0.00    +0.000 C 
ATOM     22  C   UNL     1      -2.777  11.162  17.771  0.00  0.00    +0.000 C 
ATOM     23  C   UNL     1      -1.743  11.555  18.562  0.00  0.00    +0.000 C 
ATOM     24  C   UNL     1      -1.990  12.355  19.876  0.00  0.00    +0.000 C 
ATOM     25  C   UNL     1      -1.344  13.755  19.728  0.00  0.00    +0.000 C 
ATOM     26  C   UNL     1      -1.371  11.614  21.093  0.00  0.00    +0.000 C 
ATOM     27  C   UNL     1      -3.473  12.607  20.289  0.00  0.00    +0.000 C 
ATOM     28  C   UNL     1      -4.595  12.188  19.365  0.00  0.00    +0.000 C 
ATOM     29  C   UNL     1      -4.222  11.485  18.078  0.00  0.00    +0.000 C 
BRANCH  29  30
ATOM     30  O   UNL     1      -4.729  12.272  16.996  0.00  0.00    +0.000 OA
ATOM     31  H   UNL     1      -5.608  12.585  17.270  0.00  0.00    +0.000 HD
ENDBRANCH  29  30
ENDBRANCH  19  23
ENDBRANCH  17  20
ENDBRANCH   1  17
TORSDOF 7
ENDMDL
MODEL 2
REMARK VINA RESULT:      -9.0      0.772      1.025
REMARK  Name = 
REMARK  10 active torsions:
REMARK  status: ('A' for Active; 'I' for Inactive)
REMARK    1  A    between atoms: C_1  and  C_2
REMARK    2  A    between atoms: C_3  and  C_4
REMARK    3  A    between atoms: C_5  and  C_6
REMARK    4  A    between atoms: C_6  and  C_8
REMARK    5  A    between atoms: C_9  and  C_10
REMARK    6  A    between atoms: C_12  and  C_13
REMARK    7  A    between atoms: C_18  and  C_19
REMARK    8  A    between atoms: C_24  and  C_25
REMARK    9  A    between atoms: C_24  and  C_26
REMARK   10  A    between atoms: C_29  and  O_30
REMARK                            x       y       z     vdW  Elec       q    Type
REMARK                         _______ _______ _______ _____ _____    ______ ____
ROOT
ATOM      1  C   UNL     1       1.992   8.435  17.750  0.00  0.00    +0.000 C 
ATOM      2  C   UNL     1       2.398   7.624  18.753  0.00  0.00    +0.000 C 
ENDROOT
BRANCH   2   3
ATOM      3  C   UNL     1       2.788   6.237  18.488  0.00  0.00    +0.000 A 
ATOM      4  C   UNL     1       3.891   5.988  17.655  0.00  0.00    +0.000 A 
ATOM      5  C   UNL     1       4.230   4.682  17.267  0.00  0.00    +0.000 A 
ATOM      6  C   UNL     1       3.490   3.606  17.781  0.00  0.00    +0.000 A 
ATOM      7  C   UNL     1       2.389   3.830  18.626  0.00  0.00    +0.000 A 
ATOM      8  C   UNL     1       2.046   5.152  18.969  0.00  0.00    +0.000 A 
BRANCH   5   9
ATOM      9  C   UNL     1       5.321   4.453  16.246  0.00  0.00    +0.000 C 
ATOM     10  F   UNL     1       6.521   4.973  16.629  0.00  0.00    +0.000 F 
ATOM     11  F   UNL     1       5.543   3.139  15.986  0.00  0.00    +0.000 F 
ATOM     12  F   UNL     1       5.035   5.036  15.048  0.00  0.00    +0.000 F 
ENDBRANCH   5   9
BRANCH   7  13
ATOM     13  C   UNL     1       1.552   2.663  19.105  0.00  0.00    +0.000 C 
ATOM     14  F   UNL     1       2.208   1.470  19.027  0.00  0.00    +0.000 F 
ATOM     15  F   UNL     1       1.158   2.789  20.401  0.00  0.00    +0.000 F 
ATOM     16  F   UNL     1       0.414   2.506  18.375  0.00  0.00    +0.000 F 
ENDBRANCH   7  13
ENDBRANCH   2   3
BRANCH   1  17
ATOM     17  C   UNL     1       1.670   9.884  17.979  0.00  0.00    +0.000 C 
ATOM     18  O   UNL     1       2.515  10.763  18.010  0.00  0.00    +0.000 OA
BRANCH  17  20
ATOM     19  C   UNL     1      -0.332  11.322  18.448  0.00  0.00    +0.000 C 
ATOM     20  C   UNL     1       0.204  10.094  18.196  0.00  0.00    +0.000 C 
BRANCH  19  23
ATOM     21  C   UNL     1      -2.726  10.379  16.645  0.00  0.00    +0.000 C 
ATOM     22  C   UNL     1      -2.786  11.234  17.899  0.00  0.00    +0.000 C 
ATOM     23  C   UNL     1      -1.758  11.639  18.692  0.00  0.00    +0.000 C 
ATOM     24  C   UNL     1      -2.016  12.450  19.998  0.00  0.00    +0.000 C 
ATOM     25  C   UNL     1      -1.374  13.852  19.841  0.00  0.00    +0.000 C 
ATOM     26  C   UNL     1      -1.401  11.723  21.225  0.00  0.00    +0.000 C 
ATOM     27  C   UNL     1      -3.503  12.700  20.400  0.00  0.00    +0.000 C 
ATOM     28  C   UNL     1      -4.617  12.267  19.473  0.00  0.00    +0.000 C 
ATOM     29  C   UNL     1      -4.233  11.554  18.194  0.00  0.00    +0.000 C 
BRANCH  29  30
ATOM     30  O   UNL     1      -4.737  12.329  17.103  0.00  0.00    +0.000 OA
ATOM     31  H   UNL     1      -4.454  13.246  17.260  0.00  0.00    +0.000 HD
ENDBRANCH  29  30
ENDBRANCH  19  23
ENDBRANCH  17  20
ENDBRANCH   1  17
TORSDOF 7
ENDMDL
MODEL 3
REMARK VINA RESULT:      -9.0      0.455      3.222
REMARK  Name = 
REMARK  10 active torsions:
REMARK  status: ('A' for Active; 'I' for Inactive)
REMARK    1  A    between atoms: C_1  and  C_2
REMARK    2  A    between atoms: C_3  and  C_4
REMARK    3  A    between atoms: C_5  and  C_6
REMARK    4  A    between atoms: C_6  and  C_8
REMARK    5  A    between atoms: C_9  and  C_10
REMARK    6  A    between atoms: C_12  and  C_13
REMARK    7  A    between atoms: C_18  and  C_19
REMARK    8  A    between atoms: C_24  and  C_25
REMARK    9  A    between atoms: C_24  and  C_26
REMARK   10  A    between atoms: C_29  and  O_30
REMARK                            x       y       z     vdW  Elec       q    Type
REMARK                         _______ _______ _______ _____ _____    ______ ____
ROOT
ATOM      1  C   UNL     1       1.917   8.384  17.747  0.00  0.00    +0.000 C 
ATOM      2  C   UNL     1       3.032   7.774  18.208  0.00  0.00    +0.000 C 
ENDROOT
BRANCH   2   3
ATOM      3  C   UNL     1       3.335   6.387  17.850  0.00  0.00    +0.000 A 
ATOM      4  C   UNL     1       2.505   5.363  18.333  0.00  0.00    +0.000 A 
ATOM      5  C   UNL     1       2.820   4.011  18.126  0.00  0.00    +0.000 A 
ATOM      6  C   UNL     1       3.953   3.686  17.362  0.00  0.00    +0.000 A 
ATOM      7  C   UNL     1       4.792   4.694  16.857  0.00  0.00    +0.000 A 
ATOM      8  C   UNL     1       4.475   6.042  17.112  0.00  0.00    +0.000 A 
BRANCH   5   9
ATOM      9  C   UNL     1       1.999   2.929  18.789  0.00  0.00    +0.000 C 
ATOM     10  F   UNL     1       1.590   1.967  17.915  0.00  0.00    +0.000 F 
ATOM     11  F   UNL     1       2.665   2.282  19.780  0.00  0.00    +0.000 F 
ATOM     12  F   UNL     1       0.860   3.421  19.353  0.00  0.00    +0.000 F 
ENDBRANCH   5   9
BRANCH   7  13
ATOM     13  C   UNL     1       6.053   4.324  16.106  0.00  0.00    +0.000 C 
ATOM     14  F   UNL     1       5.955   3.128  15.458  0.00  0.00    +0.000 F 
ATOM     15  F   UNL     1       6.392   5.237  15.156  0.00  0.00    +0.000 F 
ATOM     16  F   UNL     1       7.133   4.211  16.927  0.00  0.00    +0.000 F 
ENDBRANCH   7  13
ENDBRANCH   2   3
BRANCH   1  17
ATOM     17  C   UNL     1       1.626   9.831  18.028  0.00  0.00    +0.000 C 
ATOM     18  O   UNL     1       2.487  10.694  18.059  0.00  0.00    +0.000 OA
BRANCH  17  20
ATOM     19  C   UNL     1      -0.368  11.304  18.407  0.00  0.00    +0.000 C 
ATOM     20  C   UNL     1       0.171  10.058  18.294  0.00  0.00    +0.000 C 
BRANCH  19  23
ATOM     21  C   UNL     1      -2.813  10.414  16.647  0.00  0.00    +0.000 C 
ATOM     22  C   UNL     1      -2.834  11.259  17.909  0.00  0.00    +0.000 C 
ATOM     23  C   UNL     1      -1.783  11.642  18.684  0.00  0.00    +0.000 C 
ATOM     24  C   UNL     1      -2.002  12.445  20.001  0.00  0.00    +0.000 C 
ATOM     25  C   UNL     1      -1.342  13.838  19.842  0.00  0.00    +0.000 C 
ATOM     26  C   UNL     1      -1.373  11.698  21.209  0.00  0.00    +0.000 C 
ATOM     27  C   UNL     1      -3.476  12.714  20.436  0.00  0.00    +0.000 C 
ATOM     28  C   UNL     1      -4.616  12.306  19.529  0.00  0.00    +0.000 C 
ATOM     29  C   UNL     1      -4.270  11.599  18.237  0.00  0.00    +0.000 C 
BRANCH  29  30
ATOM     30  O   UNL     1      -4.784  12.390  17.162  0.00  0.00    +0.000 OA
ATOM     31  H   UNL     1      -5.694  12.634  17.408  0.00  0.00    +0.000 HD
ENDBRANCH  29  30
ENDBRANCH  19  23
ENDBRANCH  17  20
ENDBRANCH   1  17
TORSDOF 7
ENDMDL
MODEL 4
REMARK VINA RESULT:      -8.8      0.729      1.048
REMARK  Name = 
REMARK  10 active torsions:
REMARK  status: ('A' for Active; 'I' for Inactive)
REMARK    1  A    between atoms: C_1  and  C_2
REMARK    2  A    between atoms: C_3  and  C_4
REMARK    3  A    between atoms: C_5  and  C_6
REMARK    4  A    between atoms: C_6  and  C_8
REMARK    5  A    between atoms: C_9  and  C_10
REMARK    6  A    between atoms: C_12  and  C_13
REMARK    7  A    between atoms: C_18  and  C_19
REMARK    8  A    between atoms: C_24  and  C_25
REMARK    9  A    between atoms: C_24  and  C_26
REMARK   10  A    between atoms: C_29  and  O_30
REMARK                            x       y       z     vdW  Elec       q    Type
REMARK                         _______ _______ _______ _____ _____    ______ ____
ROOT
ATOM      1  C   UNL     1       1.831   8.619  18.381  0.00  0.00    +0.000 C 
ATOM      2  C   UNL     1       2.942   8.147  17.771  0.00  0.00    +0.000 C 
ENDROOT
BRANCH   2   3
ATOM      3  C   UNL     1       3.238   6.713  17.750  0.00  0.00    +0.000 A 
ATOM      4  C   UNL     1       4.310   6.251  16.969  0.00  0.00    +0.000 A 
ATOM      5  C   UNL     1       4.560   4.879  16.812  0.00  0.00    +0.000 A 
ATOM      6  C   UNL     1       3.759   3.959  17.507  0.00  0.00    +0.000 A 
ATOM      7  C   UNL     1       2.687   4.397  18.305  0.00  0.00    +0.000 A 
ATOM      8  C   UNL     1       2.435   5.778  18.414  0.00  0.00    +0.000 A 
BRANCH   5   9
ATOM      9  C   UNL     1       5.619   4.405  15.843  0.00  0.00    +0.000 C 
ATOM     10  F   UNL     1       5.290   4.647  14.543  0.00  0.00    +0.000 F 
ATOM     11  F   UNL     1       6.828   4.989  16.043  0.00  0.00    +0.000 F 
ATOM     12  F   UNL     1       5.826   3.061  15.925  0.00  0.00    +0.000 F 
ENDBRANCH   5   9
BRANCH   7  13
ATOM     13  C   UNL     1       1.784   3.388  18.981  0.00  0.00    +0.000 C 
ATOM     14  F   UNL     1       0.760   3.968  19.671  0.00  0.00    +0.000 F 
ATOM     15  F   UNL     1       1.202   2.526  18.104  0.00  0.00    +0.000 F 
ATOM     16  F   UNL     1       2.449   2.619  19.885  0.00  0.00    +0.000 F 
ENDBRANCH   7  13
ENDBRANCH   2   3
BRANCH   1  17
ATOM     17  C   UNL     1       1.458  10.073  18.344  0.00  0.00    +0.000 C 
ATOM     18  O   UNL     1       2.255  10.963  18.097  0.00  0.00    +0.000 OA
BRANCH  17  20
ATOM     19  C   UNL     1      -0.576  11.508  18.655  0.00  0.00    +0.000 C 
ATOM     20  C   UNL     1       0.014  10.279  18.678  0.00  0.00    +0.000 C 
BRANCH  19  23
ATOM     21  C   UNL     1      -3.071  10.560  16.999  0.00  0.00    +0.000 C 
ATOM     22  C   UNL     1      -3.057  11.419  18.251  0.00  0.00    +0.000 C 
ATOM     23  C   UNL     1      -1.984  11.827  18.981  0.00  0.00    +0.000 C 
ATOM     24  C   UNL     1      -2.166  12.642  20.297  0.00  0.00    +0.000 C 
ATOM     25  C   UNL     1      -1.534  14.043  20.098  0.00  0.00    +0.000 C 
ATOM     26  C   UNL     1      -1.480  11.919  21.488  0.00  0.00    +0.000 C 
ATOM     27  C   UNL     1      -3.626  12.894  20.785  0.00  0.00    +0.000 C 
ATOM     28  C   UNL     1      -4.793  12.458  19.926  0.00  0.00    +0.000 C 
ATOM     29  C   UNL     1      -4.485  11.741  18.630  0.00  0.00    +0.000 C 
BRANCH  29  30
ATOM     30  O   UNL     1      -5.052  12.512  17.567  0.00  0.00    +0.000 OA
ATOM     31  H   UNL     1      -5.283  11.882  16.861  0.00  0.00    +0.000 HD
ENDBRANCH  29  30
ENDBRANCH  19  23
ENDBRANCH  17  20
ENDBRANCH   1  17
TORSDOF 7
ENDMDL
MODEL 5
REMARK VINA RESULT:      -8.8      1.241      2.377
REMARK  Name = 
REMARK  10 active torsions:
REMARK  status: ('A' for Active; 'I' for Inactive)
REMARK    1  A    between atoms: C_1  and  C_2
REMARK    2  A    between atoms: C_3  and  C_4
REMARK    3  A    between atoms: C_5  and  C_6
REMARK    4  A    between atoms: C_6  and  C_8
REMARK    5  A    between atoms: C_9  and  C_10
REMARK    6  A    between atoms: C_12  and  C_13
REMARK    7  A    between atoms: C_18  and  C_19
REMARK    8  A    between atoms: C_24  and  C_25
REMARK    9  A    between atoms: C_24  and  C_26
REMARK   10  A    between atoms: C_29  and  O_30
REMARK                            x       y       z     vdW  Elec       q    Type
REMARK                         _______ _______ _______ _____ _____    ______ ____
ROOT
ATOM      1  C   UNL     1       1.616   8.958  18.625  0.00  0.00    +0.000 C 
ATOM      2  C   UNL     1       2.612   8.494  17.836  0.00  0.00    +0.000 C 
ENDROOT
BRANCH   2   3
ATOM      3  C   UNL     1       2.985   7.078  17.846  0.00  0.00    +0.000 A 
ATOM      4  C   UNL     1       4.115   6.667  17.121  0.00  0.00    +0.000 A 
ATOM      5  C   UNL     1       4.444   5.309  16.992  0.00  0.00    +0.000 A 
ATOM      6  C   UNL     1       3.662   4.354  17.662  0.00  0.00    +0.000 A 
ATOM      7  C   UNL     1       2.533   4.742  18.404  0.00  0.00    +0.000 A 
ATOM      8  C   UNL     1       2.202   6.109  18.484  0.00  0.00    +0.000 A 
BRANCH   5   9
ATOM      9  C   UNL     1       5.570   4.883  16.078  0.00  0.00    +0.000 C 
ATOM     10  F   UNL     1       5.431   5.363  14.811  0.00  0.00    +0.000 F 
ATOM     11  F   UNL     1       6.792   5.293  16.507  0.00  0.00    +0.000 F 
ATOM     12  F   UNL     1       5.645   3.528  15.952  0.00  0.00    +0.000 F 
ENDBRANCH   5   9
BRANCH   7  13
ATOM     13  C   UNL     1       1.654   3.693  19.050  0.00  0.00    +0.000 C 
ATOM     14  F   UNL     1       0.770   4.218  19.947  0.00  0.00    +0.000 F 
ATOM     15  F   UNL     1       0.905   3.000  18.150  0.00  0.00    +0.000 F 
ATOM     16  F   UNL     1       2.372   2.766  19.741  0.00  0.00    +0.000 F 
ENDBRANCH   7  13
ENDBRANCH   2   3
BRANCH   1  17
ATOM     17  C   UNL     1       1.156  10.386  18.571  0.00  0.00    +0.000 C 
ATOM     18  O   UNL     1       1.893  11.319  18.297  0.00  0.00    +0.000 OA
BRANCH  17  20
ATOM     19  C   UNL     1      -1.125  11.397  18.311  0.00  0.00    +0.000 C 
ATOM     20  C   UNL     1      -0.293  10.511  18.927  0.00  0.00    +0.000 C 
BRANCH  19  23
ATOM     21  C   UNL     1      -2.257  13.184  20.634  0.00  0.00    +0.000 C 
ATOM     22  C   UNL     1      -3.042  12.382  19.610  0.00  0.00    +0.000 C 
ATOM     23  C   UNL     1      -2.562  11.614  18.594  0.00  0.00    +0.000 C 
ATOM     24  C   UNL     1      -3.524  10.925  17.580  0.00  0.00    +0.000 C 
ATOM     25  C   UNL     1      -3.374   9.390  17.726  0.00  0.00    +0.000 C 
ATOM     26  C   UNL     1      -3.184  11.352  16.126  0.00  0.00    +0.000 C 
ATOM     27  C   UNL     1      -5.048  11.224  17.726  0.00  0.00    +0.000 C 
ATOM     28  C   UNL     1      -5.546  12.052  18.890  0.00  0.00    +0.000 C 
ATOM     29  C   UNL     1      -4.517  12.604  19.853  0.00  0.00    +0.000 C 
BRANCH  29  30
ATOM     30  O   UNL     1      -4.824  12.090  21.152  0.00  0.00    +0.000 OA
ATOM     31  H   UNL     1      -4.651  12.810  21.783  0.00  0.00    +0.000 HD
ENDBRANCH  29  30
ENDBRANCH  19  23
ENDBRANCH  17  20
ENDBRANCH   1  17
TORSDOF 7
ENDMDL
MODEL 6
REMARK VINA RESULT:      -8.7      1.058      3.814
REMARK  Name = 
REMARK  10 active torsions:
REMARK  status: ('A' for Active; 'I' for Inactive)
REMARK    1  A    between atoms: C_1  and  C_2
REMARK    2  A    between atoms: C_3  and  C_4
REMARK    3  A    between atoms: C_5  and  C_6
REMARK    4  A    between atoms: C_6  and  C_8
REMARK    5  A    between atoms: C_9  and  C_10
REMARK    6  A    between atoms: C_12  and  C_13
REMARK    7  A    between atoms: C_18  and  C_19
REMARK    8  A    between atoms: C_24  and  C_25
REMARK    9  A    between atoms: C_24  and  C_26
REMARK   10  A    between atoms: C_29  and  O_30
REMARK                            x       y       z     vdW  Elec       q    Type
REMARK                         _______ _______ _______ _____ _____    ______ ____
ROOT
ATOM      1  C   UNL     1       1.665   8.492  17.980  0.00  0.00    +0.000 C 
ATOM      2  C   UNL     1       2.944   8.056  17.946  0.00  0.00    +0.000 C 
ENDROOT
BRANCH   2   3
ATOM      3  C   UNL     1       3.254   6.645  17.705  0.00  0.00    +0.000 A 
ATOM      4  C   UNL     1       2.403   5.662  18.236  0.00  0.00    +0.000 A 
ATOM      5  C   UNL     1       2.720   4.297  18.145  0.00  0.00    +0.000 A 
ATOM      6  C   UNL     1       3.876   3.913  17.447  0.00  0.00    +0.000 A 
ATOM      7  C   UNL     1       4.737   4.879  16.896  0.00  0.00    +0.000 A 
ATOM      8  C   UNL     1       4.416   6.243  17.036  0.00  0.00    +0.000 A 
BRANCH   5   9
ATOM      9  C   UNL     1       1.872   3.271  18.860  0.00  0.00    +0.000 C 
ATOM     10  F   UNL     1       2.558   2.602  19.829  0.00  0.00    +0.000 F 
ATOM     11  F   UNL     1       0.782   3.806  19.469  0.00  0.00    +0.000 F 
ATOM     12  F   UNL     1       1.404   2.311  18.014  0.00  0.00    +0.000 F 
ENDBRANCH   5   9
BRANCH   7  13
ATOM     13  C   UNL     1       6.021   4.450  16.219  0.00  0.00    +0.000 C 
ATOM     14  F   UNL     1       6.417   5.309  15.235  0.00  0.00    +0.000 F 
ATOM     15  F   UNL     1       7.070   4.360  17.080  0.00  0.00    +0.000 F 
ATOM     16  F   UNL     1       5.913   3.232  15.622  0.00  0.00    +0.000 F 
ENDBRANCH   7  13
ENDBRANCH   2   3
BRANCH   1  17
ATOM     17  C   UNL     1       1.322   9.945  18.138  0.00  0.00    +0.000 C 
ATOM     18  O   UNL     1       2.141  10.843  18.033  0.00  0.00    +0.000 OA
BRANCH  17  20
ATOM     19  C   UNL     1      -0.775  11.317  18.269  0.00  0.00    +0.000 C 
ATOM     20  C   UNL     1      -0.125  10.136  18.472  0.00  0.00    +0.000 C 
BRANCH  19  23
ATOM     21  C   UNL     1      -1.758  13.165  20.611  0.00  0.00    +0.000 C 
ATOM     22  C   UNL     1      -2.606  12.413  19.601  0.00  0.00    +0.000 C 
ATOM     23  C   UNL     1      -2.191  11.619  18.577  0.00  0.00    +0.000 C 
ATOM     24  C   UNL     1      -3.210  10.990  17.579  0.00  0.00    +0.000 C 
ATOM     25  C   UNL     1      -3.148   9.448  17.722  0.00  0.00    +0.000 C 
ATOM     26  C   UNL     1      -2.869  11.398  16.120  0.00  0.00    +0.000 C 
ATOM     27  C   UNL     1      -4.710  11.379  17.751  0.00  0.00    +0.000 C 
ATOM     28  C   UNL     1      -5.137  12.234  18.924  0.00  0.00    +0.000 C 
ATOM     29  C   UNL     1      -4.062  12.722  19.869  0.00  0.00    +0.000 C 
BRANCH  29  30
ATOM     30  O   UNL     1      -4.376  12.225  21.173  0.00  0.00    +0.000 OA
ATOM     31  H   UNL     1      -4.657  12.992  21.702  0.00  0.00    +0.000 HD
ENDBRANCH  29  30
ENDBRANCH  19  23
ENDBRANCH  17  20
ENDBRANCH   1  17
TORSDOF 7
ENDMDL
MODEL 7
REMARK VINA RESULT:      -8.7      1.234      3.872
REMARK  Name = 
REMARK  10 active torsions:
REMARK  status: ('A' for Active; 'I' for Inactive)
REMARK    1  A    between atoms: C_1  and  C_2
REMARK    2  A    between atoms: C_3  and  C_4
REMARK    3  A    between atoms: C_5  and  C_6
REMARK    4  A    between atoms: C_6  and  C_8
REMARK    5  A    between atoms: C_9  and  C_10
REMARK    6  A    between atoms: C_12  and  C_13
REMARK    7  A    between atoms: C_18  and  C_19
REMARK    8  A    between atoms: C_24  and  C_25
REMARK    9  A    between atoms: C_24  and  C_26
REMARK   10  A    between atoms: C_29  and  O_30
REMARK                            x       y       z     vdW  Elec       q    Type
REMARK                         _______ _______ _______ _____ _____    ______ ____
ROOT
ATOM      1  C   UNL     1       1.574   8.768  17.904  0.00  0.00    +0.000 C 
ATOM      2  C   UNL     1       2.330   7.965  18.686  0.00  0.00    +0.000 C 
ENDROOT
BRANCH   2   3
ATOM      3  C   UNL     1       2.714   6.623  18.240  0.00  0.00    +0.000 A 
ATOM      4  C   UNL     1       1.994   5.516  18.718  0.00  0.00    +0.000 A 
ATOM      5  C   UNL     1       2.397   4.204  18.425  0.00  0.00    +0.000 A 
ATOM      6  C   UNL     1       3.501   4.004  17.582  0.00  0.00    +0.000 A 
ATOM      7  C   UNL     1       4.230   5.097  17.081  0.00  0.00    +0.000 A 
ATOM      8  C   UNL     1       3.828   6.403  17.422  0.00  0.00    +0.000 A 
BRANCH   5   9
ATOM      9  C   UNL     1       1.701   3.032  19.079  0.00  0.00    +0.000 C 
ATOM     10  F   UNL     1       1.339   2.068  18.187  0.00  0.00    +0.000 F 
ATOM     11  F   UNL     1       2.463   2.413  20.018  0.00  0.00    +0.000 F 
ATOM     12  F   UNL     1       0.549   3.402  19.706  0.00  0.00    +0.000 F 
ENDBRANCH   5   9
BRANCH   7  13
ATOM     13  C   UNL     1       5.466   4.861  16.240  0.00  0.00    +0.000 C 
ATOM     14  F   UNL     1       5.250   4.000  15.205  0.00  0.00    +0.000 F 
ATOM     15  F   UNL     1       5.953   6.002  15.681  0.00  0.00    +0.000 F 
ATOM     16  F   UNL     1       6.489   4.323  16.959  0.00  0.00    +0.000 F 
ENDBRANCH   7  13
ENDBRANCH   2   3
BRANCH   1  17
ATOM     17  C   UNL     1       1.239  10.178  18.298  0.00  0.00    +0.000 C 
ATOM     18  O   UNL     1       2.061  11.079  18.327  0.00  0.00    +0.000 OA
BRANCH  17  20
ATOM     19  C   UNL     1      -0.959  11.387  18.306  0.00  0.00    +0.000 C 
ATOM     20  C   UNL     1      -0.202  10.316  18.677  0.00  0.00    +0.000 C 
BRANCH  19  23
ATOM     21  C   UNL     1      -1.976  13.171  20.683  0.00  0.00    +0.000 C 
ATOM     22  C   UNL     1      -2.811  12.397  19.677  0.00  0.00    +0.000 C 
ATOM     23  C   UNL     1      -2.381  11.631  18.638  0.00  0.00    +0.000 C 
ATOM     24  C   UNL     1      -3.390  10.974  17.649  0.00  0.00    +0.000 C 
ATOM     25  C   UNL     1      -3.268   9.434  17.774  0.00  0.00    +0.000 C 
ATOM     26  C   UNL     1      -3.088  11.410  16.189  0.00  0.00    +0.000 C 
ATOM     27  C   UNL     1      -4.901  11.303  17.847  0.00  0.00    +0.000 C 
ATOM     28  C   UNL     1      -5.343  12.128  19.036  0.00  0.00    +0.000 C 
ATOM     29  C   UNL     1      -4.272  12.647  19.970  0.00  0.00    +0.000 C 
BRANCH  29  30
ATOM     30  O   UNL     1      -4.548  12.125  21.273  0.00  0.00    +0.000 OA
ATOM     31  H   UNL     1      -4.236  11.203  21.273  0.00  0.00    +0.000 HD
ENDBRANCH  29  30
ENDBRANCH  19  23
ENDBRANCH  17  20
ENDBRANCH   1  17
TORSDOF 7
ENDMDL
MODEL 8
REMARK VINA RESULT:      -8.6      1.355      2.517
REMARK  Name = 
REMARK  10 active torsions:
REMARK  status: ('A' for Active; 'I' for Inactive)
REMARK    1  A    between atoms: C_1  and  C_2
REMARK    2  A    between atoms: C_3  and  C_4
REMARK    3  A    between atoms: C_5  and  C_6
REMARK    4  A    between atoms: C_6  and  C_8
REMARK    5  A    between atoms: C_9  and  C_10
REMARK    6  A    between atoms: C_12  and  C_13
REMARK    7  A    between atoms: C_18  and  C_19
REMARK    8  A    between atoms: C_24  and  C_25
REMARK    9  A    between atoms: C_24  and  C_26
REMARK   10  A    between atoms: C_29  and  O_30
REMARK                            x       y       z     vdW  Elec       q    Type
REMARK                         _______ _______ _______ _____ _____    ______ ____
ROOT
ATOM      1  C   UNL     1       1.651   9.243  18.834  0.00  0.00    +0.000 C 
ATOM      2  C   UNL     1       2.346   8.649  17.837  0.00  0.00    +0.000 C 
ENDROOT
BRANCH   2   3
ATOM      3  C   UNL     1       2.776   7.254  17.945  0.00  0.00    +0.000 A 
ATOM      4  C   UNL     1       3.923   6.839  17.250  0.00  0.00    +0.000 A 
ATOM      5  C   UNL     1       4.307   5.490  17.216  0.00  0.00    +0.000 A 
ATOM      6  C   UNL     1       3.562   4.553  17.950  0.00  0.00    +0.000 A 
ATOM      7  C   UNL     1       2.417   4.946  18.664  0.00  0.00    +0.000 A 
ATOM      8  C   UNL     1       2.031   6.300  18.650  0.00  0.00    +0.000 A 
BRANCH   5   9
ATOM      9  C   UNL     1       5.452   5.047  16.333  0.00  0.00    +0.000 C 
ATOM     10  F   UNL     1       6.374   4.299  17.001  0.00  0.00    +0.000 F 
ATOM     11  F   UNL     1       5.052   4.298  15.273  0.00  0.00    +0.000 F 
ATOM     12  F   UNL     1       6.140   6.103  15.817  0.00  0.00    +0.000 F 
ENDBRANCH   5   9
BRANCH   7  13
ATOM     13  C   UNL     1       1.579   3.909  19.382  0.00  0.00    +0.000 C 
ATOM     14  F   UNL     1       2.331   3.000  20.068  0.00  0.00    +0.000 F 
ATOM     15  F   UNL     1       0.728   4.453  20.293  0.00  0.00    +0.000 F 
ATOM     16  F   UNL     1       0.809   3.181  18.529  0.00  0.00    +0.000 F 
ENDBRANCH   7  13
ENDBRANCH   2   3
BRANCH   1  17
ATOM     17  C   UNL     1       1.124  10.644  18.713  0.00  0.00    +0.000 C 
ATOM     18  O   UNL     1       1.819  11.598  18.404  0.00  0.00    +0.000 OA
BRANCH  17  20
ATOM     19  C   UNL     1      -1.204  11.517  18.376  0.00  0.00    +0.000 C 
ATOM     20  C   UNL     1      -0.332  10.715  19.051  0.00  0.00    +0.000 C 
BRANCH  19  23
ATOM     21  C   UNL     1      -2.445  13.284  20.656  0.00  0.00    +0.000 C 
ATOM     22  C   UNL     1      -3.179  12.436  19.633  0.00  0.00    +0.000 C 
ATOM     23  C   UNL     1      -2.653  11.675  18.635  0.00  0.00    +0.000 C 
ATOM     24  C   UNL     1      -3.569  10.932  17.618  0.00  0.00    +0.000 C 
ATOM     25  C   UNL     1      -3.355   9.407  17.788  0.00  0.00    +0.000 C 
ATOM     26  C   UNL     1      -3.226  11.353  16.163  0.00  0.00    +0.000 C 
ATOM     27  C   UNL     1      -5.107  11.167  17.738  0.00  0.00    +0.000 C 
ATOM     28  C   UNL     1      -5.656  11.989  18.883  0.00  0.00    +0.000 C 
ATOM     29  C   UNL     1      -4.667  12.597  19.852  0.00  0.00    +0.000 C 
BRANCH  29  30
ATOM     30  O   UNL     1      -4.970  12.088  21.153  0.00  0.00    +0.000 OA
ATOM     31  H   UNL     1      -4.200  12.285  21.715  0.00  0.00    +0.000 HD
ENDBRANCH  29  30
ENDBRANCH  19  23
ENDBRANCH  17  20
ENDBRANCH   1  17
TORSDOF 7
ENDMDL
MODEL 9
REMARK VINA RESULT:      -8.6      1.769      2.046
REMARK  Name = 
REMARK  10 active torsions:
REMARK  status: ('A' for Active; 'I' for Inactive)
REMARK    1  A    between atoms: C_1  and  C_2
REMARK    2  A    between atoms: C_3  and  C_4
REMARK    3  A    between atoms: C_5  and  C_6
REMARK    4  A    between atoms: C_6  and  C_8
REMARK    5  A    between atoms: C_9  and  C_10
REMARK    6  A    between atoms: C_12  and  C_13
REMARK    7  A    between atoms: C_18  and  C_19
REMARK    8  A    between atoms: C_24  and  C_25
REMARK    9  A    between atoms: C_24  and  C_26
REMARK   10  A    between atoms: C_29  and  O_30
REMARK                            x       y       z     vdW  Elec       q    Type
REMARK                         _______ _______ _______ _____ _____    ______ ____
ROOT
ATOM      1  C   UNL     1       1.946   7.757  20.921  0.00  0.00    +0.000 C 
ATOM      2  C   UNL     1       2.061   7.747  19.574  0.00  0.00    +0.000 C 
ENDROOT
BRANCH   2   3
ATOM      3  C   UNL     1       2.600   6.579  18.872  0.00  0.00    +0.000 A 
ATOM      4  C   UNL     1       3.638   6.763  17.945  0.00  0.00    +0.000 A 
ATOM      5  C   UNL     1       4.104   5.701  17.154  0.00  0.00    +0.000 A 
ATOM      6  C   UNL     1       3.563   4.420  17.348  0.00  0.00    +0.000 A 
ATOM      7  C   UNL     1       2.532   4.209  18.280  0.00  0.00    +0.000 A 
ATOM      8  C   UNL     1       2.055   5.300  19.033  0.00  0.00    +0.000 A 
BRANCH   5   9
ATOM      9  C   UNL     1       5.110   5.957  16.055  0.00  0.00    +0.000 C 
ATOM     10  F   UNL     1       4.807   7.055  15.307  0.00  0.00    +0.000 F 
ATOM     11  F   UNL     1       6.372   6.151  16.518  0.00  0.00    +0.000 F 
ATOM     12  F   UNL     1       5.182   4.922  15.172  0.00  0.00    +0.000 F 
ENDBRANCH   5   9
BRANCH   7  13
ATOM     13  C   UNL     1       1.904   2.839  18.417  0.00  0.00    +0.000 C 
ATOM     14  F   UNL     1       2.234   2.217  19.586  0.00  0.00    +0.000 F 
ATOM     15  F   UNL     1       0.544   2.872  18.383  0.00  0.00    +0.000 F 
ATOM     16  F   UNL     1       2.288   1.989  17.426  0.00  0.00    +0.000 F 
ENDBRANCH   7  13
ENDBRANCH   2   3
BRANCH   1  17
ATOM     17  C   UNL     1       1.317   8.904  21.658  0.00  0.00    +0.000 C 
ATOM     18  O   UNL     1       1.773   9.369  22.690  0.00  0.00    +0.000 OA
BRANCH  17  20
ATOM     19  C   UNL     1      -0.117  10.654  20.574  0.00  0.00    +0.000 C 
ATOM     20  C   UNL     1       0.062   9.368  20.988  0.00  0.00    +0.000 C 
BRANCH  19  23
ATOM     21  C   UNL     1      -1.317   9.669  17.844  0.00  0.00    +0.000 C 
ATOM     22  C   UNL     1      -1.823  10.793  18.731  0.00  0.00    +0.000 C 
ATOM     23  C   UNL     1      -1.318  11.221  19.919  0.00  0.00    +0.000 C 
ATOM     24  C   UNL     1      -2.023  12.343  20.739  0.00  0.00    +0.000 C 
ATOM     25  C   UNL     1      -1.070  13.562  20.823  0.00  0.00    +0.000 C 
ATOM     26  C   UNL     1      -2.366  11.843  22.169  0.00  0.00    +0.000 C 
ATOM     27  C   UNL     1      -3.374  12.891  20.184  0.00  0.00    +0.000 C 
ATOM     28  C   UNL     1      -3.884  12.417  18.841  0.00  0.00    +0.000 C 
ATOM     29  C   UNL     1      -3.068  11.378  18.104  0.00  0.00    +0.000 C 
BRANCH  29  30
ATOM     30  O   UNL     1      -2.696  11.939  16.842  0.00  0.00    +0.000 OA
ATOM     31  H   UNL     1      -3.157  12.793  16.772  0.00  0.00    +0.000 HD
ENDBRANCH  29  30
ENDBRANCH  19  23
ENDBRANCH  17  20
ENDBRANCH   1  17
TORSDOF 7
ENDMDL
