MODEL 1
REMARK VINA RESULT:      -7.3      0.000      0.000
REMARK  Name = 
REMARK  5 active torsions:
REMARK  status: ('A' for Active; 'I' for Inactive)
REMARK    1  A    between atoms: N_1  and  C_2
REMARK    2  A    between atoms: C_2  and  C_3
REMARK    3  A    between atoms: C_3  and  O_4
REMARK    4  A    between atoms: O_4  and  C_5
REMARK    5  A    between atoms: C_6  and  C_7
REMARK                            x       y       z     vdW  Elec       q    Type
REMARK                         _______ _______ _______ _____ _____    ______ ____
ROOT
ATOM      1  C   UNL     1       4.565   3.830  18.450  0.00  0.00    +0.000 A 
ATOM      2  C   UNL     1       4.151   4.103  17.174  0.00  0.00    +0.000 A 
ATOM      3  N   UNL     1       2.799   4.110  16.882  0.00  0.00    +0.000 N 
ATOM      4  C   UNL     1       1.777   3.864  17.760  0.00  0.00    +0.000 A 
ATOM      5  O   UNL     1       0.603   3.958  17.427  0.00  0.00    +0.000 OA
ATOM      6  C   UNL     1       2.170   3.462  19.123  0.00  0.00    +0.000 A 
ATOM      7  C   UNL     1       1.179   3.111  20.047  0.00  0.00    +0.000 A 
ATOM      8  C   UNL     1       1.557   2.701  21.316  0.00  0.00    +0.000 A 
ATOM      9  F   UNL     1       0.621   2.349  22.209  0.00  0.00    +0.000 F 
ATOM     10  C   UNL     1       2.899   2.633  21.674  0.00  0.00    +0.000 A 
ATOM     11  C   UNL     1       3.883   2.993  20.750  0.00  0.00    +0.000 A 
ATOM     12  C   UNL     1       3.536   3.421  19.450  0.00  0.00    +0.000 A 
ATOM     13  H   UNL     1       2.488   4.334  15.945  0.00  0.00    +0.000 HD
ENDROOT
BRANCH   2  14
ATOM     14  C   UNL     1       5.023   4.442  16.013  0.00  0.00    +0.000 A 
ATOM     15  C   UNL     1       5.481   3.453  15.129  0.00  0.00    +0.000 A 
ATOM     16  C   UNL     1       6.448   3.746  14.160  0.00  0.00    +0.000 A 
ATOM     17  C   UNL     1       6.875   5.058  13.981  0.00  0.00    +0.000 A 
ATOM     18 CL   UNL     1       8.069   5.419  12.798  0.00  0.00    +0.000 Cl
ATOM     19  C   UNL     1       6.344   6.077  14.766  0.00  0.00    +0.000 A 
ATOM     20  C   UNL     1       5.440   5.768  15.790  0.00  0.00    +0.000 A 
ENDBRANCH   2  14
BRANCH   1  21
ATOM     21  O   UNL     1       5.824   3.877  19.004  0.00  0.00    +0.000 OA
BRANCH  21  22
ATOM     22  C   UNL     1       6.433   5.122  19.330  0.00  0.00    +0.000 C 
BRANCH  22  23
ATOM     23  C   UNL     1       7.682   5.373  18.492  0.00  0.00    +0.000 C 
BRANCH  23  24
ATOM     24  N   UNL     1       8.059   4.141  17.799  0.00  0.00    +0.000 NA
ATOM     25  H   UNL     1       7.257   3.784  17.282  0.00  0.00    +0.000 HD
ATOM     26  H   UNL     1       8.304   3.419  18.477  0.00  0.00    +0.000 HD
ENDBRANCH  23  24
ENDBRANCH  22  23
ENDBRANCH  21  22
ENDBRANCH   1  21
TORSDOF 5
ENDMDL
MODEL 2
REMARK VINA RESULT:      -7.1      2.115      2.850
REMARK  Name = 
REMARK  5 active torsions:
REMARK  status: ('A' for Active; 'I' for Inactive)
REMARK    1  A    between atoms: N_1  and  C_2
REMARK    2  A    between atoms: C_2  and  C_3
REMARK    3  A    between atoms: C_3  and  O_4
REMARK    4  A    between atoms: O_4  and  C_5
REMARK    5  A    between atoms: C_6  and  C_7
REMARK                            x       y       z     vdW  Elec       q    Type
REMARK                         _______ _______ _______ _____ _____    ______ ____
ROOT
ATOM      1  C   UNL     1       4.197   4.833  18.189  0.00  0.00    +0.000 A 
ATOM      2  C   UNL     1       4.769   3.936  17.329  0.00  0.00    +0.000 A 
ATOM      3  N   UNL     1       4.469   2.591  17.446  0.00  0.00    +0.000 N 
ATOM      4  C   UNL     1       3.627   2.024  18.366  0.00  0.00    +0.000 A 
ATOM      5  O   UNL     1       3.368   0.827  18.352  0.00  0.00    +0.000 OA
ATOM      6  C   UNL     1       3.066   2.931  19.383  0.00  0.00    +0.000 A 
ATOM      7  C   UNL     1       2.268   2.405  20.406  0.00  0.00    +0.000 A 
ATOM      8  C   UNL     1       1.772   3.259  21.379  0.00  0.00    +0.000 A 
ATOM      9  F   UNL     1       1.017   2.768  22.372  0.00  0.00    +0.000 F 
ATOM     10  C   UNL     1       2.060   4.618  21.349  0.00  0.00    +0.000 A 
ATOM     11  C   UNL     1       2.849   5.139  20.321  0.00  0.00    +0.000 A 
ATOM     12  C   UNL     1       3.368   4.301  19.310  0.00  0.00    +0.000 A 
ATOM     13  H   UNL     1       4.871   1.927  16.796  0.00  0.00    +0.000 HD
ENDROOT
BRANCH   2  14
ATOM     14  C   UNL     1       5.695   4.253  16.204  0.00  0.00    +0.000 A 
ATOM     15  C   UNL     1       6.866   5.000  16.409  0.00  0.00    +0.000 A 
ATOM     16  C   UNL     1       7.628   5.457  15.327  0.00  0.00    +0.000 A 
ATOM     17  C   UNL     1       7.298   5.065  14.033  0.00  0.00    +0.000 A 
ATOM     18 CL   UNL     1       8.227   5.631  12.702  0.00  0.00    +0.000 Cl
ATOM     19  C   UNL     1       6.211   4.225  13.815  0.00  0.00    +0.000 A 
ATOM     20  C   UNL     1       5.402   3.839  14.891  0.00  0.00    +0.000 A 
ENDBRANCH   2  14
BRANCH   1  21
ATOM     21  O   UNL     1       4.247   6.209  18.200  0.00  0.00    +0.000 OA
BRANCH  21  22
ATOM     22  C   UNL     1       3.406   6.977  17.347  0.00  0.00    +0.000 C 
BRANCH  22  23
ATOM     23  C   UNL     1       2.441   7.849  18.144  0.00  0.00    +0.000 C 
BRANCH  23  24
ATOM     24  N   UNL     1       2.206   9.099  17.421  0.00  0.00    +0.000 NA
ATOM     25  H   UNL     1       3.052   9.365  16.921  0.00  0.00    +0.000 HD
ATOM     26  H   UNL     1       2.017   9.854  18.082  0.00  0.00    +0.000 HD
ENDBRANCH  23  24
ENDBRANCH  22  23
ENDBRANCH  21  22
ENDBRANCH   1  21
TORSDOF 5
ENDMDL
MODEL 3
REMARK VINA RESULT:      -7.0      0.218      1.028
REMARK  Name = 
REMARK  5 active torsions:
REMARK  status: ('A' for Active; 'I' for Inactive)
REMARK    1  A    between atoms: N_1  and  C_2
REMARK    2  A    between atoms: C_2  and  C_3
REMARK    3  A    between atoms: C_3  and  O_4
REMARK    4  A    between atoms: O_4  and  C_5
REMARK    5  A    between atoms: C_6  and  C_7
REMARK                            x       y       z     vdW  Elec       q    Type
REMARK                         _______ _______ _______ _____ _____    ______ ____
ROOT
ATOM      1  C   UNL     1       4.685   3.842  18.475  0.00  0.00    +0.000 A 
ATOM      2  C   UNL     1       4.335   4.094  17.177  0.00  0.00    +0.000 A 
ATOM      3  N   UNL     1       2.999   4.115  16.822  0.00  0.00    +0.000 N 
ATOM      4  C   UNL     1       1.933   3.903  17.656  0.00  0.00    +0.000 A 
ATOM      5  O   UNL     1       0.777   4.007  17.266  0.00  0.00    +0.000 OA
ATOM      6  C   UNL     1       2.256   3.523  19.043  0.00  0.00    +0.000 A 
ATOM      7  C   UNL     1       1.218   3.207  19.927  0.00  0.00    +0.000 A 
ATOM      8  C   UNL     1       1.530   2.817  21.221  0.00  0.00    +0.000 A 
ATOM      9  F   UNL     1       0.548   2.498  22.075  0.00  0.00    +0.000 F 
ATOM     10  C   UNL     1       2.853   2.738  21.641  0.00  0.00    +0.000 A 
ATOM     11  C   UNL     1       3.885   3.064  20.758  0.00  0.00    +0.000 A 
ATOM     12  C   UNL     1       3.605   3.469  19.435  0.00  0.00    +0.000 A 
ATOM     13  H   UNL     1       2.735   4.325  15.867  0.00  0.00    +0.000 HD
ENDROOT
BRANCH   2  14
ATOM     14  C   UNL     1       5.265   4.397  16.051  0.00  0.00    +0.000 A 
ATOM     15  C   UNL     1       5.725   5.702  15.813  0.00  0.00    +0.000 A 
ATOM     16  C   UNL     1       6.438   6.013  14.650  0.00  0.00    +0.000 A 
ATOM     17  C   UNL     1       6.811   4.998  13.774  0.00  0.00    +0.000 A 
ATOM     18 CL   UNL     1       7.681   5.378  12.340  0.00  0.00    +0.000 Cl
ATOM     19  C   UNL     1       6.471   3.678  14.051  0.00  0.00    +0.000 A 
ATOM     20  C   UNL     1       5.685   3.382  15.171  0.00  0.00    +0.000 A 
ENDBRANCH   2  14
BRANCH   1  21
ATOM     21  O   UNL     1       5.918   3.882  19.087  0.00  0.00    +0.000 OA
BRANCH  21  22
ATOM     22  C   UNL     1       6.524   5.124  19.429  0.00  0.00    +0.000 C 
BRANCH  22  23
ATOM     23  C   UNL     1       7.842   5.329  18.690  0.00  0.00    +0.000 C 
BRANCH  23  24
ATOM     24  N   UNL     1       8.143   4.138  17.894  0.00  0.00    +0.000 NA
ATOM     25  H   UNL     1       7.392   3.980  17.225  0.00  0.00    +0.000 HD
ATOM     26  H   UNL     1       8.168   3.313  18.494  0.00  0.00    +0.000 HD
ENDBRANCH  23  24
ENDBRANCH  22  23
ENDBRANCH  21  22
ENDBRANCH   1  21
TORSDOF 5
ENDMDL
MODEL 4
REMARK VINA RESULT:      -7.0      4.650      5.385
REMARK  Name = 
REMARK  5 active torsions:
REMARK  status: ('A' for Active; 'I' for Inactive)
REMARK    1  A    between atoms: N_1  and  C_2
REMARK    2  A    between atoms: C_2  and  C_3
REMARK    3  A    between atoms: C_3  and  O_4
REMARK    4  A    between atoms: O_4  and  C_5
REMARK    5  A    between atoms: C_6  and  C_7
REMARK                            x       y       z     vdW  Elec       q    Type
REMARK                         _______ _______ _______ _____ _____    ______ ____
ROOT
ATOM      1  C   UNL     1       2.343   7.068  19.649  0.00  0.00    +0.000 A 
ATOM      2  C   UNL     1       2.873   7.252  18.402  0.00  0.00    +0.000 A 
ATOM      3  N   UNL     1       2.633   8.434  17.725  0.00  0.00    +0.000 N 
ATOM      4  C   UNL     1       1.890   9.492  18.178  0.00  0.00    +0.000 A 
ATOM      5  O   UNL     1       1.787  10.529  17.536  0.00  0.00    +0.000 OA
ATOM      6  C   UNL     1       1.209   9.306  19.471  0.00  0.00    +0.000 A 
ATOM      7  C   UNL     1       0.364  10.312  19.953  0.00  0.00    +0.000 A 
ATOM      8  C   UNL     1      -0.301  10.115  21.154  0.00  0.00    +0.000 A 
ATOM      9  F   UNL     1      -1.123  11.064  21.622  0.00  0.00    +0.000 F 
ATOM     10  C   UNL     1      -0.138   8.938  21.874  0.00  0.00    +0.000 A 
ATOM     11  C   UNL     1       0.714   7.941  21.394  0.00  0.00    +0.000 A 
ATOM     12  C   UNL     1       1.411   8.108  20.178  0.00  0.00    +0.000 A 
ATOM     13  H   UNL     1       3.043   8.583  16.811  0.00  0.00    +0.000 HD
ENDROOT
BRANCH   2  14
ATOM     14  C   UNL     1       3.750   6.298  17.662  0.00  0.00    +0.000 A 
ATOM     15  C   UNL     1       4.949   6.720  17.066  0.00  0.00    +0.000 A 
ATOM     16  C   UNL     1       5.667   5.871  16.215  0.00  0.00    +0.000 A 
ATOM     17  C   UNL     1       5.262   4.550  16.053  0.00  0.00    +0.000 A 
ATOM     18 CL   UNL     1       6.138   3.507  15.003  0.00  0.00    +0.000 Cl
ATOM     19  C   UNL     1       4.144   4.074  16.730  0.00  0.00    +0.000 A 
ATOM     20  C   UNL     1       3.381   4.949  17.513  0.00  0.00    +0.000 A 
ENDBRANCH   2  14
BRANCH   1  21
ATOM     21  O   UNL     1       2.531   6.047  20.554  0.00  0.00    +0.000 OA
BRANCH  21  22
ATOM     22  C   UNL     1       1.688   4.901  20.548  0.00  0.00    +0.000 C 
BRANCH  22  23
ATOM     23  C   UNL     1       2.477   3.620  20.798  0.00  0.00    +0.000 C 
BRANCH  23  24
ATOM     24  N   UNL     1       2.078   3.046  22.084  0.00  0.00    +0.000 NA
ATOM     25  H   UNL     1       1.912   2.048  21.972  0.00  0.00    +0.000 HD
ATOM     26  H   UNL     1       1.190   3.450  22.386  0.00  0.00    +0.000 HD
ENDBRANCH  23  24
ENDBRANCH  22  23
ENDBRANCH  21  22
ENDBRANCH   1  21
TORSDOF 5
ENDMDL
MODEL 5
REMARK VINA RESULT:      -7.0      2.178      2.817
REMARK  Name = 
REMARK  5 active torsions:
REMARK  status: ('A' for Active; 'I' for Inactive)
REMARK    1  A    between atoms: N_1  and  C_2
REMARK    2  A    between atoms: C_2  and  C_3
REMARK    3  A    between atoms: C_3  and  O_4
REMARK    4  A    between atoms: O_4  and  C_5
REMARK    5  A    between atoms: C_6  and  C_7
REMARK                            x       y       z     vdW  Elec       q    Type
REMARK                         _______ _______ _______ _____ _____    ______ ____
ROOT
ATOM      1  C   UNL     1       3.990   5.003  18.228  0.00  0.00    +0.000 A 
ATOM      2  C   UNL     1       4.611   4.178  17.331  0.00  0.00    +0.000 A 
ATOM      3  N   UNL     1       4.423   2.811  17.415  0.00  0.00    +0.000 N 
ATOM      4  C   UNL     1       3.650   2.153  18.335  0.00  0.00    +0.000 A 
ATOM      5  O   UNL     1       3.487   0.940  18.292  0.00  0.00    +0.000 OA
ATOM      6  C   UNL     1       3.041   2.984  19.390  0.00  0.00    +0.000 A 
ATOM      7  C   UNL     1       2.311   2.368  20.413  0.00  0.00    +0.000 A 
ATOM      8  C   UNL     1       1.770   3.152  21.420  0.00  0.00    +0.000 A 
ATOM      9  F   UNL     1       1.079   2.575  22.414  0.00  0.00    +0.000 F 
ATOM     10  C   UNL     1       1.948   4.530  21.424  0.00  0.00    +0.000 A 
ATOM     11  C   UNL     1       2.669   5.141  20.396  0.00  0.00    +0.000 A 
ATOM     12  C   UNL     1       3.230   4.376  19.350  0.00  0.00    +0.000 A 
ATOM     13  H   UNL     1       4.863   2.200  16.738  0.00  0.00    +0.000 HD
ENDROOT
BRANCH   2  14
ATOM     14  C   UNL     1       5.484   4.600  16.197  0.00  0.00    +0.000 A 
ATOM     15  C   UNL     1       5.241   4.161  14.886  0.00  0.00    +0.000 A 
ATOM     16  C   UNL     1       6.168   4.402  13.864  0.00  0.00    +0.000 A 
ATOM     17  C   UNL     1       7.285   5.193  14.114  0.00  0.00    +0.000 A 
ATOM     18 CL   UNL     1       8.428   5.482  12.862  0.00  0.00    +0.000 Cl
ATOM     19  C   UNL     1       7.484   5.740  15.377  0.00  0.00    +0.000 A 
ATOM     20  C   UNL     1       6.600   5.428  16.417  0.00  0.00    +0.000 A 
ENDBRANCH   2  14
BRANCH   1  21
ATOM     21  O   UNL     1       3.929   6.377  18.279  0.00  0.00    +0.000 OA
BRANCH  21  22
ATOM     22  C   UNL     1       3.006   7.098  17.469  0.00  0.00    +0.000 C 
BRANCH  22  23
ATOM     23  C   UNL     1       2.280   8.175  18.267  0.00  0.00    +0.000 C 
BRANCH  23  24
ATOM     24  N   UNL     1       2.018   9.327  17.404  0.00  0.00    +0.000 NA
ATOM     25  H   UNL     1       2.099   9.044  16.429  0.00  0.00    +0.000 HD
ATOM     26  H   UNL     1       2.730  10.043  17.552  0.00  0.00    +0.000 HD
ENDBRANCH  23  24
ENDBRANCH  22  23
ENDBRANCH  21  22
ENDBRANCH   1  21
TORSDOF 5
ENDMDL
MODEL 6
REMARK VINA RESULT:      -6.8      1.998      3.188
REMARK  Name = 
REMARK  5 active torsions:
REMARK  status: ('A' for Active; 'I' for Inactive)
REMARK    1  A    between atoms: N_1  and  C_2
REMARK    2  A    between atoms: C_2  and  C_3
REMARK    3  A    between atoms: C_3  and  O_4
REMARK    4  A    between atoms: O_4  and  C_5
REMARK    5  A    between atoms: C_6  and  C_7
REMARK                            x       y       z     vdW  Elec       q    Type
REMARK                         _______ _______ _______ _____ _____    ______ ____
ROOT
ATOM      1  C   UNL     1       3.571   4.457  18.169  0.00  0.00    +0.000 A 
ATOM      2  C   UNL     1       4.783   3.889  17.888  0.00  0.00    +0.000 A 
ATOM      3  N   UNL     1       5.241   2.839  18.663  0.00  0.00    +0.000 N 
ATOM      4  C   UNL     1       4.593   2.274  19.731  0.00  0.00    +0.000 A 
ATOM      5  O   UNL     1       5.045   1.300  20.318  0.00  0.00    +0.000 OA
ATOM      6  C   UNL     1       3.331   2.916  20.142  0.00  0.00    +0.000 A 
ATOM      7  C   UNL     1       2.661   2.446  21.277  0.00  0.00    +0.000 A 
ATOM      8  C   UNL     1       1.493   3.076  21.678  0.00  0.00    +0.000 A 
ATOM      9  F   UNL     1       0.846   2.645  22.770  0.00  0.00    +0.000 F 
ATOM     10  C   UNL     1       0.989   4.161  20.971  0.00  0.00    +0.000 A 
ATOM     11  C   UNL     1       1.657   4.620  19.833  0.00  0.00    +0.000 A 
ATOM     12  C   UNL     1       2.846   4.000  19.391  0.00  0.00    +0.000 A 
ATOM     13  H   UNL     1       6.127   2.400  18.444  0.00  0.00    +0.000 HD
ENDROOT
BRANCH   2  14
ATOM     14  C   UNL     1       5.699   4.261  16.772  0.00  0.00    +0.000 A 
ATOM     15  C   UNL     1       6.640   5.294  16.912  0.00  0.00    +0.000 A 
ATOM     16  C   UNL     1       7.360   5.766  15.808  0.00  0.00    +0.000 A 
ATOM     17  C   UNL     1       7.241   5.125  14.579  0.00  0.00    +0.000 A 
ATOM     18 CL   UNL     1       8.119   5.708  13.219  0.00  0.00    +0.000 Cl
ATOM     19  C   UNL     1       6.405   4.022  14.445  0.00  0.00    +0.000 A 
ATOM     20  C   UNL     1       5.624   3.605  15.529  0.00  0.00    +0.000 A 
ENDBRANCH   2  14
BRANCH   1  21
ATOM     21  O   UNL     1       2.860   5.418  17.485  0.00  0.00    +0.000 OA
BRANCH  21  22
ATOM     22  C   UNL     1       3.291   6.774  17.472  0.00  0.00    +0.000 C 
BRANCH  22  23
ATOM     23  C   UNL     1       2.280   7.692  18.152  0.00  0.00    +0.000 C 
BRANCH  23  24
ATOM     24  N   UNL     1       2.262   8.986  17.469  0.00  0.00    +0.000 NA
ATOM     25  H   UNL     1       2.703   8.893  16.556  0.00  0.00    +0.000 HD
ATOM     26  H   UNL     1       2.823   9.662  17.989  0.00  0.00    +0.000 HD
ENDBRANCH  23  24
ENDBRANCH  22  23
ENDBRANCH  21  22
ENDBRANCH   1  21
TORSDOF 5
ENDMDL
MODEL 7
REMARK VINA RESULT:      -6.8      4.742      6.024
REMARK  Name = 
REMARK  5 active torsions:
REMARK  status: ('A' for Active; 'I' for Inactive)
REMARK    1  A    between atoms: N_1  and  C_2
REMARK    2  A    between atoms: C_2  and  C_3
REMARK    3  A    between atoms: C_3  and  O_4
REMARK    4  A    between atoms: O_4  and  C_5
REMARK    5  A    between atoms: C_6  and  C_7
REMARK                            x       y       z     vdW  Elec       q    Type
REMARK                         _______ _______ _______ _____ _____    ______ ____
ROOT
ATOM      1  C   UNL     1       2.740   5.989  18.744  0.00  0.00    +0.000 A 
ATOM      2  C   UNL     1       2.171   6.478  19.889  0.00  0.00    +0.000 A 
ATOM      3  N   UNL     1       1.996   5.641  20.975  0.00  0.00    +0.000 N 
ATOM      4  C   UNL     1       2.339   4.316  21.044  0.00  0.00    +0.000 A 
ATOM      5  O   UNL     1       2.208   3.668  22.075  0.00  0.00    +0.000 OA
ATOM      6  C   UNL     1       2.859   3.712  19.804  0.00  0.00    +0.000 A 
ATOM      7  C   UNL     1       3.149   2.343  19.778  0.00  0.00    +0.000 A 
ATOM      8  C   UNL     1       3.605   1.774  18.599  0.00  0.00    +0.000 A 
ATOM      9  F   UNL     1       3.874   0.462  18.553  0.00  0.00    +0.000 F 
ATOM     10  C   UNL     1       3.773   2.544  17.454  0.00  0.00    +0.000 A 
ATOM     11  C   UNL     1       3.491   3.912  17.488  0.00  0.00    +0.000 A 
ATOM     12  C   UNL     1       3.030   4.527  18.673  0.00  0.00    +0.000 A 
ATOM     13  H   UNL     1       1.597   6.005  21.832  0.00  0.00    +0.000 HD
ENDROOT
BRANCH   2  14
ATOM     14  C   UNL     1       1.728   7.882  20.128  0.00  0.00    +0.000 A 
ATOM     15  C   UNL     1       1.403   8.336  21.417  0.00  0.00    +0.000 A 
ATOM     16  C   UNL     1       0.807   9.588  21.609  0.00  0.00    +0.000 A 
ATOM     17  C   UNL     1       0.646  10.452  20.530  0.00  0.00    +0.000 A 
ATOM     18 CL   UNL     1      -0.093  11.987  20.762  0.00  0.00    +0.000 Cl
ATOM     19  C   UNL     1       1.073  10.071  19.262  0.00  0.00    +0.000 A 
ATOM     20  C   UNL     1       1.591   8.786  19.059  0.00  0.00    +0.000 A 
ENDBRANCH   2  14
BRANCH   1  21
ATOM     21  O   UNL     1       3.119   6.641  17.592  0.00  0.00    +0.000 OA
BRANCH  21  22
ATOM     22  C   UNL     1       4.449   7.120  17.428  0.00  0.00    +0.000 C 
BRANCH  22  23
ATOM     23  C   UNL     1       5.026   6.725  16.073  0.00  0.00    +0.000 C 
BRANCH  23  24
ATOM     24  N   UNL     1       6.414   6.294  16.243  0.00  0.00    +0.000 NA
ATOM     25  H   UNL     1       6.902   6.953  16.847  0.00  0.00    +0.000 HD
ATOM     26  H   UNL     1       6.900   6.317  15.346  0.00  0.00    +0.000 HD
ENDBRANCH  23  24
ENDBRANCH  22  23
ENDBRANCH  21  22
ENDBRANCH   1  21
TORSDOF 5
ENDMDL
MODEL 8
REMARK VINA RESULT:      -6.8      4.725      5.404
REMARK  Name = 
REMARK  5 active torsions:
REMARK  status: ('A' for Active; 'I' for Inactive)
REMARK    1  A    between atoms: N_1  and  C_2
REMARK    2  A    between atoms: C_2  and  C_3
REMARK    3  A    between atoms: C_3  and  O_4
REMARK    4  A    between atoms: O_4  and  C_5
REMARK    5  A    between atoms: C_6  and  C_7
REMARK                            x       y       z     vdW  Elec       q    Type
REMARK                         _______ _______ _______ _____ _____    ______ ____
ROOT
ATOM      1  C   UNL     1       2.224   7.111  19.739  0.00  0.00    +0.000 A 
ATOM      2  C   UNL     1       2.667   7.340  18.466  0.00  0.00    +0.000 A 
ATOM      3  N   UNL     1       2.399   8.552  17.857  0.00  0.00    +0.000 N 
ATOM      4  C   UNL     1       1.709   9.601  18.404  0.00  0.00    +0.000 A 
ATOM      5  O   UNL     1       1.577  10.666  17.814  0.00  0.00    +0.000 OA
ATOM      6  C   UNL     1       1.119   9.370  19.735  0.00  0.00    +0.000 A 
ATOM      7  C   UNL     1       0.328  10.367  20.318  0.00  0.00    +0.000 A 
ATOM      8  C   UNL     1      -0.252  10.130  21.554  0.00  0.00    +0.000 A 
ATOM      9  F   UNL     1      -1.023  11.070  22.119  0.00  0.00    +0.000 F 
ATOM     10  C   UNL     1      -0.058   8.921  22.212  0.00  0.00    +0.000 A 
ATOM     11  C   UNL     1       0.739   7.933  21.631  0.00  0.00    +0.000 A 
ATOM     12  C   UNL     1       1.351   8.141  20.376  0.00  0.00    +0.000 A 
ATOM     13  H   UNL     1       2.745   8.733  16.922  0.00  0.00    +0.000 HD
ENDROOT
BRANCH   2  14
ATOM     14  C   UNL     1       3.472   6.406  17.626  0.00  0.00    +0.000 A 
ATOM     15  C   UNL     1       3.173   5.035  17.565  0.00  0.00    +0.000 A 
ATOM     16  C   UNL     1       4.041   4.137  16.934  0.00  0.00    +0.000 A 
ATOM     17  C   UNL     1       5.153   4.615  16.246  0.00  0.00    +0.000 A 
ATOM     18 CL   UNL     1       6.225   3.513  15.477  0.00  0.00    +0.000 Cl
ATOM     19  C   UNL     1       5.403   5.982  16.191  0.00  0.00    +0.000 A 
ATOM     20  C   UNL     1       4.580   6.870  16.894  0.00  0.00    +0.000 A 
ENDBRANCH   2  14
BRANCH   1  21
ATOM     21  O   UNL     1       2.459   6.050  20.585  0.00  0.00    +0.000 OA
BRANCH  21  22
ATOM     22  C   UNL     1       1.615   4.905  20.573  0.00  0.00    +0.000 C 
BRANCH  22  23
ATOM     23  C   UNL     1       2.404   3.622  20.811  0.00  0.00    +0.000 C 
BRANCH  23  24
ATOM     24  N   UNL     1       2.047   3.067  22.117  0.00  0.00    +0.000 NA
ATOM     25  H   UNL     1       1.049   2.868  22.139  0.00  0.00    +0.000 HD
ATOM     26  H   UNL     1       2.216   3.758  22.848  0.00  0.00    +0.000 HD
ENDBRANCH  23  24
ENDBRANCH  22  23
ENDBRANCH  21  22
ENDBRANCH   1  21
TORSDOF 5
ENDMDL
MODEL 9
REMARK VINA RESULT:      -6.8      1.919      2.351
REMARK  Name = 
REMARK  5 active torsions:
REMARK  status: ('A' for Active; 'I' for Inactive)
REMARK    1  A    between atoms: N_1  and  C_2
REMARK    2  A    between atoms: C_2  and  C_3
REMARK    3  A    between atoms: C_3  and  O_4
REMARK    4  A    between atoms: O_4  and  C_5
REMARK    5  A    between atoms: C_6  and  C_7
REMARK                            x       y       z     vdW  Elec       q    Type
REMARK                         _______ _______ _______ _____ _____    ______ ____
ROOT
ATOM      1  C   UNL     1       3.669   4.585  17.747  0.00  0.00    +0.000 A 
ATOM      2  C   UNL     1       4.499   3.700  17.115  0.00  0.00    +0.000 A 
ATOM      3  N   UNL     1       4.508   2.374  17.507  0.00  0.00    +0.000 N 
ATOM      4  C   UNL     1       3.748   1.815  18.500  0.00  0.00    +0.000 A 
ATOM      5  O   UNL     1       3.773   0.613  18.733  0.00  0.00    +0.000 OA
ATOM      6  C   UNL     1       2.913   2.743  19.283  0.00  0.00    +0.000 A 
ATOM      7  C   UNL     1       2.177   2.255  20.368  0.00  0.00    +0.000 A 
ATOM      8  C   UNL     1       1.420   3.139  21.122  0.00  0.00    +0.000 A 
ATOM      9  F   UNL     1       0.720   2.689  22.172  0.00  0.00    +0.000 F 
ATOM     10  C   UNL     1       1.389   4.494  20.812  0.00  0.00    +0.000 A 
ATOM     11  C   UNL     1       2.118   4.975  19.722  0.00  0.00    +0.000 A 
ATOM     12  C   UNL     1       2.896   4.103  18.929  0.00  0.00    +0.000 A 
ATOM     13  H   UNL     1       5.105   1.712  17.026  0.00  0.00    +0.000 HD
ENDROOT
BRANCH   2  14
ATOM     14  C   UNL     1       5.416   4.002  15.978  0.00  0.00    +0.000 A 
ATOM     15  C   UNL     1       6.752   4.375  16.195  0.00  0.00    +0.000 A 
ATOM     16  C   UNL     1       7.548   4.841  15.142  0.00  0.00    +0.000 A 
ATOM     17  C   UNL     1       7.059   4.818  13.840  0.00  0.00    +0.000 A 
ATOM     18 CL   UNL     1       8.033   5.397  12.547  0.00  0.00    +0.000 Cl
ATOM     19  C   UNL     1       5.779   4.338  13.585  0.00  0.00    +0.000 A 
ATOM     20  C   UNL     1       4.955   3.952  14.649  0.00  0.00    +0.000 A 
ENDBRANCH   2  14
BRANCH   1  21
ATOM     21  O   UNL     1       3.399   5.906  17.466  0.00  0.00    +0.000 OA
BRANCH  21  22
ATOM     22  C   UNL     1       4.313   6.933  17.836  0.00  0.00    +0.000 C 
BRANCH  22  23
ATOM     23  C   UNL     1       5.180   7.365  16.658  0.00  0.00    +0.000 C 
BRANCH  23  24
ATOM     24  N   UNL     1       6.538   7.641  17.129  0.00  0.00    +0.000 NA
ATOM     25  H   UNL     1       6.510   8.383  17.825  0.00  0.00    +0.000 HD
ATOM     26  H   UNL     1       7.109   7.993  16.360  0.00  0.00    +0.000 HD
ENDBRANCH  23  24
ENDBRANCH  22  23
ENDBRANCH  21  22
ENDBRANCH   1  21
TORSDOF 5
ENDMDL
