MODEL 1
REMARK VINA RESULT:      -6.6      0.000      0.000
REMARK  Name = 
REMARK  0 active torsions:
REMARK  status: ('A' for Active; 'I' for Inactive)
REMARK                            x       y       z     vdW  Elec       q    Type
REMARK                         _______ _______ _______ _____ _____    ______ ____
ROOT
ATOM      1  F   UNL     1       9.088   7.653  18.564  0.00  0.00    +0.000 F 
ATOM      2  C   UNL     1       7.989   6.893  18.546  0.00  0.00    +0.000 A 
ATOM      3  C   UNL     1       7.817   5.882  19.498  0.00  0.00    +0.000 A 
ATOM      4  C   UNL     1       6.564   5.265  19.657  0.00  0.00    +0.000 A 
ATOM      5  C   UNL     1       5.567   5.608  18.770  0.00  0.00    +0.000 A 
ATOM      6  C   UNL     1       5.969   6.234  17.584  0.00  0.00    +0.000 A 
ATOM      7  C   UNL     1       7.060   7.078  17.545  0.00  0.00    +0.000 A 
ATOM      8  S   UNL     1       4.892   5.803  16.266  0.00  0.00    +0.000 S 
ATOM      9  C   UNL     1       3.669   5.667  17.524  0.00  0.00    +0.000 C 
ATOM     10  N   UNL     1       2.610   6.314  17.226  0.00  0.00    +0.000 NA
ATOM     11  C   UNL     1       2.301   7.165  18.202  0.00  0.00    +0.000 A 
ATOM     12  S   UNL     1       2.015   8.812  17.851  0.00  0.00    +0.000 S 
ATOM     13  C   UNL     1       1.380   9.025  19.431  0.00  0.00    +0.000 A 
ATOM     14  C   UNL     1       0.616  10.125  19.887  0.00  0.00    +0.000 A 
ATOM     15  C   UNL     1      -0.035   9.936  21.086  0.00  0.00    +0.000 A 
ATOM     16  F   UNL     1      -0.921  10.860  21.479  0.00  0.00    +0.000 F 
ATOM     17  C   UNL     1       0.154   8.788  21.854  0.00  0.00    +0.000 A 
ATOM     18  C   UNL     1       1.065   7.775  21.465  0.00  0.00    +0.000 A 
ATOM     19  C   UNL     1       1.681   7.880  20.205  0.00  0.00    +0.000 A 
ATOM     20  N   UNL     1       2.465   6.984  19.485  0.00  0.00    +0.000 N 
ATOM     21  C   UNL     1       3.330   5.871  19.910  0.00  0.00    +0.000 C 
ATOM     22  N   UNL     1       4.174   5.333  18.780  0.00  0.00    +0.000 N 
ENDROOT
TORSDOF 0
ENDMDL
MODEL 2
REMARK VINA RESULT:      -6.6      8.101     12.332
REMARK  Name = 
REMARK  0 active torsions:
REMARK  status: ('A' for Active; 'I' for Inactive)
REMARK                            x       y       z     vdW  Elec       q    Type
REMARK                         _______ _______ _______ _____ _____    ______ ____
ROOT
ATOM      1  F   UNL     1      -6.592  18.165  16.553  0.00  0.00    +0.000 F 
ATOM      2  C   UNL     1      -6.935  16.911  16.864  0.00  0.00    +0.000 A 
ATOM      3  C   UNL     1      -7.491  16.072  15.891  0.00  0.00    +0.000 A 
ATOM      4  C   UNL     1      -7.601  14.691  16.128  0.00  0.00    +0.000 A 
ATOM      5  C   UNL     1      -7.258  14.229  17.379  0.00  0.00    +0.000 A 
ATOM      6  C   UNL     1      -7.194  15.180  18.405  0.00  0.00    +0.000 A 
ATOM      7  C   UNL     1      -6.791  16.477  18.164  0.00  0.00    +0.000 A 
ATOM      8  S   UNL     1      -7.655  14.462  19.940  0.00  0.00    +0.000 S 
ATOM      9  C   UNL     1      -7.000  12.977  19.258  0.00  0.00    +0.000 C 
ATOM     10  N   UNL     1      -6.182  12.411  20.057  0.00  0.00    +0.000 NA
ATOM     11  C   UNL     1      -5.017  12.201  19.448  0.00  0.00    +0.000 A 
ATOM     12  S   UNL     1      -3.560  12.724  20.170  0.00  0.00    +0.000 S 
ATOM     13  C   UNL     1      -2.676  11.795  19.029  0.00  0.00    +0.000 A 
ATOM     14  C   UNL     1      -1.308  11.445  19.112  0.00  0.00    +0.000 A 
ATOM     15  C   UNL     1      -0.899  10.452  18.250  0.00  0.00    +0.000 A 
ATOM     16  F   UNL     1       0.330   9.943  18.406  0.00  0.00    +0.000 F 
ATOM     17  C   UNL     1      -1.747   9.923  17.278  0.00  0.00    +0.000 A 
ATOM     18  C   UNL     1      -3.063  10.416  17.092  0.00  0.00    +0.000 A 
ATOM     19  C   UNL     1      -3.555  11.364  18.009  0.00  0.00    +0.000 A 
ATOM     20  N   UNL     1      -4.829  11.891  18.192  0.00  0.00    +0.000 N 
ATOM     21  C   UNL     1      -5.965  12.064  17.272  0.00  0.00    +0.000 C 
ATOM     22  N   UNL     1      -7.066  12.909  17.867  0.00  0.00    +0.000 N 
ENDROOT
TORSDOF 0
ENDMDL
MODEL 3
REMARK VINA RESULT:      -6.3      3.855      6.396
REMARK  Name = 
REMARK  0 active torsions:
REMARK  status: ('A' for Active; 'I' for Inactive)
REMARK                            x       y       z     vdW  Elec       q    Type
REMARK                         _______ _______ _______ _____ _____    ______ ____
ROOT
ATOM      1  F   UNL     1       1.508   2.888  22.443  0.00  0.00    +0.000 F 
ATOM      2  C   UNL     1       1.739   3.063  21.139  0.00  0.00    +0.000 A 
ATOM      3  C   UNL     1       0.849   3.812  20.362  0.00  0.00    +0.000 A 
ATOM      4  C   UNL     1       1.216   4.228  19.069  0.00  0.00    +0.000 A 
ATOM      5  C   UNL     1       2.415   3.770  18.569  0.00  0.00    +0.000 A 
ATOM      6  C   UNL     1       2.979   2.660  19.206  0.00  0.00    +0.000 A 
ATOM      7  C   UNL     1       2.829   2.449  20.561  0.00  0.00    +0.000 A 
ATOM      8  S   UNL     1       3.872   1.677  18.055  0.00  0.00    +0.000 S 
ATOM      9  C   UNL     1       4.150   3.200  17.217  0.00  0.00    +0.000 C 
ATOM     10  N   UNL     1       5.384   3.368  16.940  0.00  0.00    +0.000 NA
ATOM     11  C   UNL     1       5.809   4.535  17.422  0.00  0.00    +0.000 A 
ATOM     12  S   UNL     1       7.210   4.607  18.394  0.00  0.00    +0.000 S 
ATOM     13  C   UNL     1       7.216   6.316  18.237  0.00  0.00    +0.000 A 
ATOM     14  C   UNL     1       8.289   7.184  18.547  0.00  0.00    +0.000 A 
ATOM     15  C   UNL     1       8.173   8.466  18.058  0.00  0.00    +0.000 A 
ATOM     16  F   UNL     1       9.233   9.279  18.152  0.00  0.00    +0.000 F 
ATOM     17  C   UNL     1       7.019   8.907  17.413  0.00  0.00    +0.000 A 
ATOM     18  C   UNL     1       5.882   8.073  17.271  0.00  0.00    +0.000 A 
ATOM     19  C   UNL     1       5.987   6.729  17.671  0.00  0.00    +0.000 A 
ATOM     20  N   UNL     1       5.128   5.648  17.501  0.00  0.00    +0.000 N 
ATOM     21  C   UNL     1       3.670   5.568  17.318  0.00  0.00    +0.000 C 
ATOM     22  N   UNL     1       3.152   4.153  17.417  0.00  0.00    +0.000 N 
ENDROOT
TORSDOF 0
ENDMDL
MODEL 4
REMARK VINA RESULT:      -6.3      7.129      8.189
REMARK  Name = 
REMARK  0 active torsions:
REMARK  status: ('A' for Active; 'I' for Inactive)
REMARK                            x       y       z     vdW  Elec       q    Type
REMARK                         _______ _______ _______ _____ _____    ______ ____
ROOT
ATOM      1  F   UNL     1       9.334   9.250  19.363  0.00  0.00    +0.000 F 
ATOM      2  C   UNL     1       9.403  10.577  19.217  0.00  0.00    +0.000 A 
ATOM      3  C   UNL     1       9.741  11.131  17.977  0.00  0.00    +0.000 A 
ATOM      4  C   UNL     1       9.554  12.505  17.742  0.00  0.00    +0.000 A 
ATOM      5  C   UNL     1       9.146  13.283  18.802  0.00  0.00    +0.000 A 
ATOM      6  C   UNL     1       9.313  12.740  20.081  0.00  0.00    +0.000 A 
ATOM      7  C   UNL     1       9.196  11.386  20.313  0.00  0.00    +0.000 A 
ATOM      8  S   UNL     1       9.640  14.010  21.251  0.00  0.00    +0.000 S 
ATOM      9  C   UNL     1       8.663  15.017  20.188  0.00  0.00    +0.000 C 
ATOM     10  N   UNL     1       7.759  15.646  20.833  0.00  0.00    +0.000 NA
ATOM     11  C   UNL     1       6.562  15.404  20.300  0.00  0.00    +0.000 A 
ATOM     12  S   UNL     1       5.271  14.878  21.285  0.00  0.00    +0.000 S 
ATOM     13  C   UNL     1       4.181  15.174  19.992  0.00  0.00    +0.000 A 
ATOM     14  C   UNL     1       2.772  15.254  20.084  0.00  0.00    +0.000 A 
ATOM     15  C   UNL     1       2.138  15.797  18.989  0.00  0.00    +0.000 A 
ATOM     16  F   UNL     1       0.831  16.075  19.085  0.00  0.00    +0.000 F 
ATOM     17  C   UNL     1       2.830  16.124  17.824  0.00  0.00    +0.000 A 
ATOM     18  C   UNL     1       4.217  15.868  17.686  0.00  0.00    +0.000 A 
ATOM     19  C   UNL     1       4.923  15.401  18.810  0.00  0.00    +0.000 A 
ATOM     20  N   UNL     1       6.285  15.229  19.035  0.00  0.00    +0.000 N 
ATOM     21  C   UNL     1       7.411  14.985  18.119  0.00  0.00    +0.000 C 
ATOM     22  N   UNL     1       8.682  14.625  18.851  0.00  0.00    +0.000 N 
ENDROOT
TORSDOF 0
ENDMDL
MODEL 5
REMARK VINA RESULT:      -6.2      4.538      9.223
REMARK  Name = 
REMARK  0 active torsions:
REMARK  status: ('A' for Active; 'I' for Inactive)
REMARK                            x       y       z     vdW  Elec       q    Type
REMARK                         _______ _______ _______ _____ _____    ______ ____
ROOT
ATOM      1  F   UNL     1      -5.868  13.340  20.730  0.00  0.00    +0.000 F 
ATOM      2  C   UNL     1      -4.707  13.271  21.390  0.00  0.00    +0.000 A 
ATOM      3  C   UNL     1      -4.635  12.606  22.618  0.00  0.00    +0.000 A 
ATOM      4  C   UNL     1      -3.384  12.296  23.182  0.00  0.00    +0.000 A 
ATOM      5  C   UNL     1      -2.261  12.773  22.544  0.00  0.00    +0.000 A 
ATOM      6  C   UNL     1      -2.453  13.816  21.630  0.00  0.00    +0.000 A 
ATOM      7  C   UNL     1      -3.602  13.913  20.874  0.00  0.00    +0.000 A 
ATOM      8  S   UNL     1      -1.052  14.876  21.604  0.00  0.00    +0.000 S 
ATOM      9  C   UNL     1      -0.148  13.425  22.023  0.00  0.00    +0.000 C 
ATOM     10  N   UNL     1       0.860  13.260  21.258  0.00  0.00    +0.000 NA
ATOM     11  C   UNL     1       0.823  12.049  20.704  0.00  0.00    +0.000 A 
ATOM     12  S   UNL     1       0.971  11.871  19.013  0.00  0.00    +0.000 S 
ATOM     13  C   UNL     1       1.188  10.181  19.223  0.00  0.00    +0.000 A 
ATOM     14  C   UNL     1       1.680   9.271  18.257  0.00  0.00    +0.000 A 
ATOM     15  C   UNL     1       2.052   8.038  18.743  0.00  0.00    +0.000 A 
ATOM     16  F   UNL     1       2.698   7.201  17.920  0.00  0.00    +0.000 F 
ATOM     17  C   UNL     1       1.838   7.673  20.071  0.00  0.00    +0.000 A 
ATOM     18  C   UNL     1       1.178   8.535  20.981  0.00  0.00    +0.000 A 
ATOM     19  C   UNL     1       0.864   9.839  20.556  0.00  0.00    +0.000 A 
ATOM     20  N   UNL     1       0.389  10.946  21.253  0.00  0.00    +0.000 N 
ATOM     21  C   UNL     1      -0.403  11.065  22.489  0.00  0.00    +0.000 C 
ATOM     22  N   UNL     1      -0.885  12.476  22.730  0.00  0.00    +0.000 N 
ENDROOT
TORSDOF 0
ENDMDL
MODEL 6
REMARK VINA RESULT:      -6.1      4.018      5.202
REMARK  Name = 
REMARK  0 active torsions:
REMARK  status: ('A' for Active; 'I' for Inactive)
REMARK                            x       y       z     vdW  Elec       q    Type
REMARK                         _______ _______ _______ _____ _____    ______ ____
ROOT
ATOM      1  F   UNL     1       5.920   3.153  12.921  0.00  0.00    +0.000 F 
ATOM      2  C   UNL     1       5.982   4.006  13.948  0.00  0.00    +0.000 A 
ATOM      3  C   UNL     1       5.382   5.267  13.851  0.00  0.00    +0.000 A 
ATOM      4  C   UNL     1       5.206   6.057  15.002  0.00  0.00    +0.000 A 
ATOM      5  C   UNL     1       5.748   5.595  16.181  0.00  0.00    +0.000 A 
ATOM      6  C   UNL     1       6.728   4.601  16.075  0.00  0.00    +0.000 A 
ATOM      7  C   UNL     1       6.692   3.652  15.074  0.00  0.00    +0.000 A 
ATOM      8  S   UNL     1       7.903   4.755  17.373  0.00  0.00    +0.000 S 
ATOM      9  C   UNL     1       6.556   5.410  18.296  0.00  0.00    +0.000 C 
ATOM     10  N   UNL     1       6.443   4.844  19.434  0.00  0.00    +0.000 NA
ATOM     11  C   UNL     1       5.209   4.365  19.589  0.00  0.00    +0.000 A 
ATOM     12  S   UNL     1       4.967   2.739  20.048  0.00  0.00    +0.000 S 
ATOM     13  C   UNL     1       3.314   3.084  20.354  0.00  0.00    +0.000 A 
ATOM     14  C   UNL     1       2.407   2.275  21.077  0.00  0.00    +0.000 A 
ATOM     15  C   UNL     1       1.233   2.891  21.451  0.00  0.00    +0.000 A 
ATOM     16  F   UNL     1       0.418   2.245  22.295  0.00  0.00    +0.000 F 
ATOM     17  C   UNL     1       0.912   4.181  21.032  0.00  0.00    +0.000 A 
ATOM     18  C   UNL     1       1.755   4.910  20.157  0.00  0.00    +0.000 A 
ATOM     19  C   UNL     1       3.007   4.360  19.824  0.00  0.00    +0.000 A 
ATOM     20  N   UNL     1       4.099   4.896  19.150  0.00  0.00    +0.000 N 
ATOM     21  C   UNL     1       4.206   5.966  18.144  0.00  0.00    +0.000 C 
ATOM     22  N   UNL     1       5.580   6.034  17.520  0.00  0.00    +0.000 N 
ENDROOT
TORSDOF 0
ENDMDL
MODEL 7
REMARK VINA RESULT:      -6.1      3.938      6.793
REMARK  Name = 
REMARK  0 active torsions:
REMARK  status: ('A' for Active; 'I' for Inactive)
REMARK                            x       y       z     vdW  Elec       q    Type
REMARK                         _______ _______ _______ _____ _____    ______ ____
ROOT
ATOM      1  F   UNL     1       4.794  14.932  21.290  0.00  0.00    +0.000 F 
ATOM      2  C   UNL     1       3.798  14.426  20.556  0.00  0.00    +0.000 A 
ATOM      3  C   UNL     1       3.841  14.506  19.160  0.00  0.00    +0.000 A 
ATOM      4  C   UNL     1       2.950  13.749  18.380  0.00  0.00    +0.000 A 
ATOM      5  C   UNL     1       1.974  13.035  19.039  0.00  0.00    +0.000 A 
ATOM      6  C   UNL     1       1.710  13.405  20.363  0.00  0.00    +0.000 A 
ATOM      7  C   UNL     1       2.704  13.880  21.193  0.00  0.00    +0.000 A 
ATOM      8  S   UNL     1       0.017  13.142  20.750  0.00  0.00    +0.000 S 
ATOM      9  C   UNL     1       0.117  11.839  19.572  0.00  0.00    +0.000 C 
ATOM     10  N   UNL     1      -0.349  10.746  20.036  0.00  0.00    +0.000 NA
ATOM     11  C   UNL     1       0.556   9.775  19.922  0.00  0.00    +0.000 A 
ATOM     12  S   UNL     1       0.976   8.825  21.277  0.00  0.00    +0.000 S 
ATOM     13  C   UNL     1       1.791   7.727  20.238  0.00  0.00    +0.000 A 
ATOM     14  C   UNL     1       2.217   6.419  20.567  0.00  0.00    +0.000 A 
ATOM     15  C   UNL     1       2.568   5.625  19.499  0.00  0.00    +0.000 A 
ATOM     16  F   UNL     1       2.798   4.325  19.723  0.00  0.00    +0.000 F 
ATOM     17  C   UNL     1       2.620   6.122  18.197  0.00  0.00    +0.000 A 
ATOM     18  C   UNL     1       2.362   7.485  17.911  0.00  0.00    +0.000 A 
ATOM     19  C   UNL     1       1.910   8.312  18.956  0.00  0.00    +0.000 A 
ATOM     20  N   UNL     1       1.417   9.613  18.953  0.00  0.00    +0.000 N 
ATOM     21  C   UNL     1       1.631  10.744  18.036  0.00  0.00    +0.000 C 
ATOM     22  N   UNL     1       1.073  12.039  18.577  0.00  0.00    +0.000 N 
ENDROOT
TORSDOF 0
ENDMDL
MODEL 8
REMARK VINA RESULT:      -6.0      8.093      9.166
REMARK  Name = 
REMARK  0 active torsions:
REMARK  status: ('A' for Active; 'I' for Inactive)
REMARK                            x       y       z     vdW  Elec       q    Type
REMARK                         _______ _______ _______ _____ _____    ______ ____
ROOT
ATOM      1  F   UNL     1      12.210  11.167  19.436  0.00  0.00    +0.000 F 
ATOM      2  C   UNL     1      11.745  12.347  19.014  0.00  0.00    +0.000 A 
ATOM      3  C   UNL     1      11.629  12.608  17.644  0.00  0.00    +0.000 A 
ATOM      4  C   UNL     1      10.898  13.723  17.196  0.00  0.00    +0.000 A 
ATOM      5  C   UNL     1      10.415  14.593  18.148  0.00  0.00    +0.000 A 
ATOM      6  C   UNL     1      10.993  14.516  19.421  0.00  0.00    +0.000 A 
ATOM      7  C   UNL     1      11.440  13.320  19.941  0.00  0.00    +0.000 A 
ATOM      8  S   UNL     1      11.013  16.098  20.185  0.00  0.00    +0.000 S 
ATOM      9  C   UNL     1       9.560  16.395  19.237  0.00  0.00    +0.000 C 
ATOM     10  N   UNL     1       8.611  16.852  19.957  0.00  0.00    +0.000 NA
ATOM     11  C   UNL     1       7.522  16.098  19.817  0.00  0.00    +0.000 A 
ATOM     12  S   UNL     1       6.718  15.483  21.192  0.00  0.00    +0.000 S 
ATOM     13  C   UNL     1       5.391  15.035  20.199  0.00  0.00    +0.000 A 
ATOM     14  C   UNL     1       4.095  14.679  20.639  0.00  0.00    +0.000 A 
ATOM     15  C   UNL     1       3.124  14.657  19.664  0.00  0.00    +0.000 A 
ATOM     16  F   UNL     1       1.847  14.514  20.043  0.00  0.00    +0.000 F 
ATOM     17  C   UNL     1       3.428  14.847  18.317  0.00  0.00    +0.000 A 
ATOM     18  C   UNL     1       4.762  15.024  17.874  0.00  0.00    +0.000 A 
ATOM     19  C   UNL     1       5.775  15.147  18.842  0.00  0.00    +0.000 A 
ATOM     20  N   UNL     1       7.118  15.495  18.731  0.00  0.00    +0.000 N 
ATOM     21  C   UNL     1       8.076  15.379  17.619  0.00  0.00    +0.000 C 
ATOM     22  N   UNL     1       9.494  15.669  18.048  0.00  0.00    +0.000 N 
ENDROOT
TORSDOF 0
ENDMDL
MODEL 9
REMARK VINA RESULT:      -5.9      6.167      8.661
REMARK  Name = 
REMARK  0 active torsions:
REMARK  status: ('A' for Active; 'I' for Inactive)
REMARK                            x       y       z     vdW  Elec       q    Type
REMARK                         _______ _______ _______ _____ _____    ______ ____
ROOT
ATOM      1  F   UNL     1      -4.141  11.920  17.213  0.00  0.00    +0.000 F 
ATOM      2  C   UNL     1      -3.045  11.465  17.829  0.00  0.00    +0.000 A 
ATOM      3  C   UNL     1      -2.263  10.472  17.230  0.00  0.00    +0.000 A 
ATOM      4  C   UNL     1      -0.981  10.183  17.730  0.00  0.00    +0.000 A 
ATOM      5  C   UNL     1      -0.588  10.823  18.885  0.00  0.00    +0.000 A 
ATOM      6  C   UNL     1      -1.601  11.401  19.659  0.00  0.00    +0.000 A 
ATOM      7  C   UNL     1      -2.732  11.943  19.083  0.00  0.00    +0.000 A 
ATOM      8  S   UNL     1      -1.183  11.343  21.364  0.00  0.00    +0.000 S 
ATOM      9  C   UNL     1       0.479  11.440  20.793  0.00  0.00    +0.000 C 
ATOM     10  N   UNL     1       1.134  12.351  21.400  0.00  0.00    +0.000 NA
ATOM     11  C   UNL     1       1.680  13.189  20.521  0.00  0.00    +0.000 A 
ATOM     12  S   UNL     1       1.444  14.873  20.673  0.00  0.00    +0.000 S 
ATOM     13  C   UNL     1       2.673  15.139  19.505  0.00  0.00    +0.000 A 
ATOM     14  C   UNL     1       3.328  16.364  19.239  0.00  0.00    +0.000 A 
ATOM     15  C   UNL     1       4.476  16.269  18.485  0.00  0.00    +0.000 A 
ATOM     16  F   UNL     1       5.243  17.360  18.357  0.00  0.00    +0.000 F 
ATOM     17  C   UNL     1       4.889  15.064  17.919  0.00  0.00    +0.000 A 
ATOM     18  C   UNL     1       4.121  13.881  18.047  0.00  0.00    +0.000 A 
ATOM     19  C   UNL     1       2.990  13.907  18.885  0.00  0.00    +0.000 A 
ATOM     20  N   UNL     1       2.159  12.890  19.342  0.00  0.00    +0.000 N 
ATOM     21  C   UNL     1       1.821  11.570  18.785  0.00  0.00    +0.000 C 
ATOM     22  N   UNL     1       0.679  10.909  19.520  0.00  0.00    +0.000 N 
ENDROOT
TORSDOF 0
ENDMDL
