MODEL 1
REMARK VINA RESULT:      -6.8      0.000      0.000
REMARK  Name = 
REMARK  3 active torsions:
REMARK  status: ('A' for Active; 'I' for Inactive)
REMARK    1  A    between atoms: C_1  and  C_2
REMARK    2  A    between atoms: C_8  and  O_9
REMARK    3  A    between atoms: C_10  and  N_11
REMARK                            x       y       z     vdW  Elec       q    Type
REMARK                         _______ _______ _______ _____ _____    ______ ____
ROOT
ATOM      1  C   UNL     1       6.873   4.827  14.733  0.00  0.00    +0.000 C 
ATOM      2  C   UNL     1       5.764   5.018  15.726  0.00  0.00    +0.000 A 
ATOM      3  C   UNL     1       5.405   6.294  16.172  0.00  0.00    +0.000 A 
ATOM      4  C   UNL     1       4.383   6.453  17.106  0.00  0.00    +0.000 A 
ATOM      5  C   UNL     1       3.736   5.332  17.619  0.00  0.00    +0.000 A 
ATOM      6  C   UNL     1       4.058   4.044  17.176  0.00  0.00    +0.000 A 
ATOM      7  C   UNL     1       5.075   3.901  16.220  0.00  0.00    +0.000 A 
ATOM      8  C   UNL     1       3.370   2.824  17.746  0.00  0.00    +0.000 C 
ATOM      9  C   UNL     1       3.620   2.660  19.278  0.00  0.00    +0.000 C 
ATOM     10  C   UNL     1       2.848   3.677  20.139  0.00  0.00    +0.000 C 
ATOM     11  C   UNL     1       3.161   5.141  19.844  0.00  0.00    +0.000 C 
ATOM     12  O   UNL     1       2.732   5.523  18.530  0.00  0.00    +0.000 OA
ENDROOT
BRANCH   9  13
ATOM     13  N   UNL     1       5.050   2.653  19.656  0.00  0.00    +0.000 NA
ATOM     14  H   UNL     1       5.588   3.173  18.960  0.00  0.00    +0.000 HD
ATOM     15  H   UNL     1       5.404   1.697  19.595  0.00  0.00    +0.000 HD
ENDBRANCH   9  13
BRANCH   8  16
ATOM     16  O   UNL     1       1.971   2.852  17.465  0.00  0.00    +0.000 OA
ATOM     17  H   UNL     1       1.505   2.743  18.316  0.00  0.00    +0.000 HD
ENDBRANCH   8  16
TORSDOF 2
ENDMDL
MODEL 2
REMARK VINA RESULT:      -6.6      0.926      1.119
REMARK  Name = 
REMARK  3 active torsions:
REMARK  status: ('A' for Active; 'I' for Inactive)
REMARK    1  A    between atoms: C_1  and  C_2
REMARK    2  A    between atoms: C_8  and  O_9
REMARK    3  A    between atoms: C_10  and  N_11
REMARK                            x       y       z     vdW  Elec       q    Type
REMARK                         _______ _______ _______ _____ _____    ______ ____
ROOT
ATOM      1  C   UNL     1       5.963   5.748  15.448  0.00  0.00    +0.000 C 
ATOM      2  C   UNL     1       4.880   5.458  16.445  0.00  0.00    +0.000 A 
ATOM      3  C   UNL     1       4.211   6.493  17.107  0.00  0.00    +0.000 A 
ATOM      4  C   UNL     1       3.217   6.206  18.041  0.00  0.00    +0.000 A 
ATOM      5  C   UNL     1       2.909   4.881  18.337  0.00  0.00    +0.000 A 
ATOM      6  C   UNL     1       3.545   3.824  17.676  0.00  0.00    +0.000 A 
ATOM      7  C   UNL     1       4.529   4.128  16.723  0.00  0.00    +0.000 A 
ATOM      8  C   UNL     1       3.226   2.384  18.011  0.00  0.00    +0.000 C 
ATOM      9  C   UNL     1       3.565   2.027  19.491  0.00  0.00    +0.000 C 
ATOM     10  C   UNL     1       2.582   2.634  20.510  0.00  0.00    +0.000 C 
ATOM     11  C   UNL     1       2.485   4.157  20.485  0.00  0.00    +0.000 C 
ATOM     12  O   UNL     1       1.924   4.635  19.255  0.00  0.00    +0.000 OA
ENDROOT
BRANCH   9  13
ATOM     13  N   UNL     1       4.958   2.337  19.880  0.00  0.00    +0.000 NA
ATOM     14  H   UNL     1       5.507   1.474  19.892  0.00  0.00    +0.000 HD
ATOM     15  H   UNL     1       4.968   2.663  20.848  0.00  0.00    +0.000 HD
ENDBRANCH   9  13
BRANCH   8  16
ATOM     16  O   UNL     1       1.861   2.086  17.721  0.00  0.00    +0.000 OA
ATOM     17  H   UNL     1       1.852   1.547  16.906  0.00  0.00    +0.000 HD
ENDBRANCH   8  16
TORSDOF 2
ENDMDL
MODEL 3
REMARK VINA RESULT:      -6.5      1.429      1.570
REMARK  Name = 
REMARK  3 active torsions:
REMARK  status: ('A' for Active; 'I' for Inactive)
REMARK    1  A    between atoms: C_1  and  C_2
REMARK    2  A    between atoms: C_8  and  O_9
REMARK    3  A    between atoms: C_10  and  N_11
REMARK                            x       y       z     vdW  Elec       q    Type
REMARK                         _______ _______ _______ _____ _____    ______ ____
ROOT
ATOM      1  C   UNL     1       7.076   4.770  15.631  0.00  0.00    +0.000 C 
ATOM      2  C   UNL     1       6.037   4.722  16.712  0.00  0.00    +0.000 A 
ATOM      3  C   UNL     1       6.230   5.384  17.930  0.00  0.00    +0.000 A 
ATOM      4  C   UNL     1       5.262   5.319  18.929  0.00  0.00    +0.000 A 
ATOM      5  C   UNL     1       4.109   4.565  18.726  0.00  0.00    +0.000 A 
ATOM      6  C   UNL     1       3.877   3.909  17.512  0.00  0.00    +0.000 A 
ATOM      7  C   UNL     1       4.851   4.002  16.506  0.00  0.00    +0.000 A 
ATOM      8  C   UNL     1       2.635   3.074  17.296  0.00  0.00    +0.000 C 
ATOM      9  C   UNL     1       2.549   1.868  18.281  0.00  0.00    +0.000 C 
ATOM     10  C   UNL     1       2.200   2.277  19.724  0.00  0.00    +0.000 C 
ATOM     11  C   UNL     1       3.181   3.247  20.375  0.00  0.00    +0.000 C 
ATOM     12  O   UNL     1       3.176   4.526  19.727  0.00  0.00    +0.000 OA
ENDROOT
BRANCH   9  13
ATOM     13  N   UNL     1       3.746   0.999  18.273  0.00  0.00    +0.000 NA
ATOM     14  H   UNL     1       3.954   0.716  17.313  0.00  0.00    +0.000 HD
ATOM     15  H   UNL     1       3.527   0.127  18.758  0.00  0.00    +0.000 HD
ENDBRANCH   9  13
BRANCH   8  16
ATOM     16  O   UNL     1       1.461   3.880  17.383  0.00  0.00    +0.000 OA
ATOM     17  H   UNL     1       1.578   4.476  18.147  0.00  0.00    +0.000 HD
ENDBRANCH   8  16
TORSDOF 2
ENDMDL
MODEL 4
REMARK VINA RESULT:      -6.4      2.030      2.442
REMARK  Name = 
REMARK  3 active torsions:
REMARK  status: ('A' for Active; 'I' for Inactive)
REMARK    1  A    between atoms: C_1  and  C_2
REMARK    2  A    between atoms: C_8  and  O_9
REMARK    3  A    between atoms: C_10  and  N_11
REMARK                            x       y       z     vdW  Elec       q    Type
REMARK                         _______ _______ _______ _____ _____    ______ ____
ROOT
ATOM      1  C   UNL     1       7.779   6.894  18.179  0.00  0.00    +0.000 C 
ATOM      2  C   UNL     1       6.595   6.031  17.852  0.00  0.00    +0.000 A 
ATOM      3  C   UNL     1       5.963   6.113  16.606  0.00  0.00    +0.000 A 
ATOM      4  C   UNL     1       4.856   5.315  16.323  0.00  0.00    +0.000 A 
ATOM      5  C   UNL     1       4.359   4.453  17.297  0.00  0.00    +0.000 A 
ATOM      6  C   UNL     1       4.983   4.333  18.544  0.00  0.00    +0.000 A 
ATOM      7  C   UNL     1       6.109   5.127  18.808  0.00  0.00    +0.000 A 
ATOM      8  C   UNL     1       4.433   3.412  19.610  0.00  0.00    +0.000 C 
ATOM      9  C   UNL     1       2.993   3.811  20.059  0.00  0.00    +0.000 C 
ATOM     10  C   UNL     1       1.910   3.485  19.013  0.00  0.00    +0.000 C 
ATOM     11  C   UNL     1       2.101   4.157  17.656  0.00  0.00    +0.000 C 
ATOM     12  O   UNL     1       3.274   3.679  16.984  0.00  0.00    +0.000 OA
ENDROOT
BRANCH   9  13
ATOM     13  N   UNL     1       2.869   5.218  20.498  0.00  0.00    +0.000 NA
ATOM     14  H   UNL     1       3.588   5.782  20.039  0.00  0.00    +0.000 HD
ATOM     15  H   UNL     1       3.091   5.276  21.493  0.00  0.00    +0.000 HD
ENDBRANCH   9  13
BRANCH   8  16
ATOM     16  O   UNL     1       4.465   2.054  19.173  0.00  0.00    +0.000 OA
ATOM     17  H   UNL     1       3.923   2.000  18.363  0.00  0.00    +0.000 HD
ENDBRANCH   8  16
TORSDOF 2
ENDMDL
MODEL 5
REMARK VINA RESULT:      -6.3      2.185      4.134
REMARK  Name = 
REMARK  3 active torsions:
REMARK  status: ('A' for Active; 'I' for Inactive)
REMARK    1  A    between atoms: C_1  and  C_2
REMARK    2  A    between atoms: C_8  and  O_9
REMARK    3  A    between atoms: C_10  and  N_11
REMARK                            x       y       z     vdW  Elec       q    Type
REMARK                         _______ _______ _______ _____ _____    ______ ____
ROOT
ATOM      1  C   UNL     1       1.455   2.091  18.826  0.00  0.00    +0.000 C 
ATOM      2  C   UNL     1       2.259   3.334  18.580  0.00  0.00    +0.000 A 
ATOM      3  C   UNL     1       1.646   4.518  18.155  0.00  0.00    +0.000 A 
ATOM      4  C   UNL     1       2.408   5.660  17.918  0.00  0.00    +0.000 A 
ATOM      5  C   UNL     1       3.791   5.613  18.076  0.00  0.00    +0.000 A 
ATOM      6  C   UNL     1       4.430   4.450  18.521  0.00  0.00    +0.000 A 
ATOM      7  C   UNL     1       3.648   3.314  18.776  0.00  0.00    +0.000 A 
ATOM      8  C   UNL     1       5.933   4.391  18.674  0.00  0.00    +0.000 C 
ATOM      9  C   UNL     1       6.680   4.617  17.323  0.00  0.00    +0.000 C 
ATOM     10  C   UNL     1       6.641   6.077  16.836  0.00  0.00    +0.000 C 
ATOM     11  C   UNL     1       5.243   6.646  16.613  0.00  0.00    +0.000 C 
ATOM     12  O   UNL     1       4.509   6.754  17.840  0.00  0.00    +0.000 OA
ENDROOT
BRANCH   9  13
ATOM     13  N   UNL     1       6.250   3.707  16.240  0.00  0.00    +0.000 NA
ATOM     14  H   UNL     1       6.885   3.802  15.444  0.00  0.00    +0.000 HD
ATOM     15  H   UNL     1       5.344   4.016  15.887  0.00  0.00    +0.000 HD
ENDBRANCH   9  13
BRANCH   8  16
ATOM     16  O   UNL     1       6.380   5.323  19.658  0.00  0.00    +0.000 OA
ATOM     17  H   UNL     1       6.749   4.804  20.399  0.00  0.00    +0.000 HD
ENDBRANCH   8  16
TORSDOF 2
ENDMDL
MODEL 6
REMARK VINA RESULT:      -6.3      1.127      1.308
REMARK  Name = 
REMARK  3 active torsions:
REMARK  status: ('A' for Active; 'I' for Inactive)
REMARK    1  A    between atoms: C_1  and  C_2
REMARK    2  A    between atoms: C_8  and  O_9
REMARK    3  A    between atoms: C_10  and  N_11
REMARK                            x       y       z     vdW  Elec       q    Type
REMARK                         _______ _______ _______ _____ _____    ______ ____
ROOT
ATOM      1  C   UNL     1       5.963   4.142  15.544  0.00  0.00    +0.000 C 
ATOM      2  C   UNL     1       4.867   4.504  16.503  0.00  0.00    +0.000 A 
ATOM      3  C   UNL     1       4.659   5.831  16.896  0.00  0.00    +0.000 A 
ATOM      4  C   UNL     1       3.646   6.148  17.799  0.00  0.00    +0.000 A 
ATOM      5  C   UNL     1       2.857   5.135  18.336  0.00  0.00    +0.000 A 
ATOM      6  C   UNL     1       3.027   3.801  17.946  0.00  0.00    +0.000 A 
ATOM      7  C   UNL     1       4.037   3.499  17.020  0.00  0.00    +0.000 A 
ATOM      8  C   UNL     1       2.184   2.696  18.543  0.00  0.00    +0.000 C 
ATOM      9  C   UNL     1       2.382   2.561  20.084  0.00  0.00    +0.000 C 
ATOM     10  C   UNL     1       1.725   3.697  20.890  0.00  0.00    +0.000 C 
ATOM     11  C   UNL     1       2.221   5.099  20.552  0.00  0.00    +0.000 C 
ATOM     12  O   UNL     1       1.867   5.481  19.215  0.00  0.00    +0.000 OA
ENDROOT
BRANCH   9  13
ATOM     13  N   UNL     1       3.793   2.394  20.496  0.00  0.00    +0.000 NA
ATOM     14  H   UNL     1       4.340   3.192  20.166  0.00  0.00    +0.000 HD
ATOM     15  H   UNL     1       4.188   1.589  20.008  0.00  0.00    +0.000 HD
ENDBRANCH   9  13
BRANCH   8  16
ATOM     16  O   UNL     1       0.805   2.883  18.227  0.00  0.00    +0.000 OA
ATOM     17  H   UNL     1       0.654   2.480  17.351  0.00  0.00    +0.000 HD
ENDBRANCH   8  16
TORSDOF 2
ENDMDL
MODEL 7
REMARK VINA RESULT:      -6.3      2.468      4.384
REMARK  Name = 
REMARK  3 active torsions:
REMARK  status: ('A' for Active; 'I' for Inactive)
REMARK    1  A    between atoms: C_1  and  C_2
REMARK    2  A    between atoms: C_8  and  O_9
REMARK    3  A    between atoms: C_10  and  N_11
REMARK                            x       y       z     vdW  Elec       q    Type
REMARK                         _______ _______ _______ _____ _____    ______ ____
ROOT
ATOM      1  C   UNL     1       0.699   2.445  18.611  0.00  0.00    +0.000 C 
ATOM      2  C   UNL     1       2.141   2.840  18.736  0.00  0.00    +0.000 A 
ATOM      3  C   UNL     1       2.826   2.700  19.949  0.00  0.00    +0.000 A 
ATOM      4  C   UNL     1       4.161   3.085  20.052  0.00  0.00    +0.000 A 
ATOM      5  C   UNL     1       4.808   3.639  18.951  0.00  0.00    +0.000 A 
ATOM      6  C   UNL     1       4.157   3.771  17.719  0.00  0.00    +0.000 A 
ATOM      7  C   UNL     1       2.819   3.360  17.623  0.00  0.00    +0.000 A 
ATOM      8  C   UNL     1       4.851   4.390  16.527  0.00  0.00    +0.000 C 
ATOM      9  C   UNL     1       5.264   5.873  16.781  0.00  0.00    +0.000 C 
ATOM     10  C   UNL     1       6.460   6.023  17.739  0.00  0.00    +0.000 C 
ATOM     11  C   UNL     1       6.251   5.429  19.129  0.00  0.00    +0.000 C 
ATOM     12  O   UNL     1       6.122   4.001  19.085  0.00  0.00    +0.000 OA
ENDROOT
BRANCH   9  13
ATOM     13  N   UNL     1       4.148   6.741  17.219  0.00  0.00    +0.000 NA
ATOM     14  H   UNL     1       3.273   6.395  16.821  0.00  0.00    +0.000 HD
ATOM     15  H   UNL     1       4.269   7.668  16.811  0.00  0.00    +0.000 HD
ENDBRANCH   9  13
BRANCH   8  16
ATOM     16  O   UNL     1       5.982   3.613  16.138  0.00  0.00    +0.000 OA
ATOM     17  H   UNL     1       6.003   2.827  16.718  0.00  0.00    +0.000 HD
ENDBRANCH   8  16
TORSDOF 2
ENDMDL
MODEL 8
REMARK VINA RESULT:      -6.2      2.025      4.539
REMARK  Name = 
REMARK  3 active torsions:
REMARK  status: ('A' for Active; 'I' for Inactive)
REMARK    1  A    between atoms: C_1  and  C_2
REMARK    2  A    between atoms: C_8  and  O_9
REMARK    3  A    between atoms: C_10  and  N_11
REMARK                            x       y       z     vdW  Elec       q    Type
REMARK                         _______ _______ _______ _____ _____    ______ ____
ROOT
ATOM      1  C   UNL     1       2.441   4.721  20.771  0.00  0.00    +0.000 C 
ATOM      2  C   UNL     1       3.040   4.634  19.398  0.00  0.00    +0.000 A 
ATOM      3  C   UNL     1       2.533   3.746  18.443  0.00  0.00    +0.000 A 
ATOM      4  C   UNL     1       3.111   3.667  17.177  0.00  0.00    +0.000 A 
ATOM      5  C   UNL     1       4.218   4.454  16.872  0.00  0.00    +0.000 A 
ATOM      6  C   UNL     1       4.734   5.367  17.799  0.00  0.00    +0.000 A 
ATOM      7  C   UNL     1       4.130   5.451  19.062  0.00  0.00    +0.000 A 
ATOM      8  C   UNL     1       5.949   6.209  17.478  0.00  0.00    +0.000 C 
ATOM      9  C   UNL     1       7.218   5.345  17.204  0.00  0.00    +0.000 C 
ATOM     10  C   UNL     1       7.184   4.615  15.848  0.00  0.00    +0.000 C 
ATOM     11  C   UNL     1       6.010   3.659  15.659  0.00  0.00    +0.000 C 
ATOM     12  O   UNL     1       4.757   4.356  15.618  0.00  0.00    +0.000 OA
ENDROOT
BRANCH   9  13
ATOM     13  N   UNL     1       7.541   4.392  18.288  0.00  0.00    +0.000 NA
ATOM     14  H   UNL     1       6.713   4.244  18.869  0.00  0.00    +0.000 HD
ATOM     15  H   UNL     1       8.224   4.820  18.914  0.00  0.00    +0.000 HD
ENDBRANCH   9  13
BRANCH   8  16
ATOM     16  O   UNL     1       5.686   7.079  16.378  0.00  0.00    +0.000 OA
ATOM     17  H   UNL     1       6.076   6.665  15.584  0.00  0.00    +0.000 HD
ENDBRANCH   8  16
TORSDOF 2
ENDMDL
MODEL 9
REMARK VINA RESULT:      -6.2      1.563      4.608
REMARK  Name = 
REMARK  3 active torsions:
REMARK  status: ('A' for Active; 'I' for Inactive)
REMARK    1  A    between atoms: C_1  and  C_2
REMARK    2  A    between atoms: C_8  and  O_9
REMARK    3  A    between atoms: C_10  and  N_11
REMARK                            x       y       z     vdW  Elec       q    Type
REMARK                         _______ _______ _______ _____ _____    ______ ____
ROOT
ATOM      1  C   UNL     1       1.466   2.577  21.584  0.00  0.00    +0.000 C 
ATOM      2  C   UNL     1       2.030   2.945  20.244  0.00  0.00    +0.000 A 
ATOM      3  C   UNL     1       1.909   2.084  19.148  0.00  0.00    +0.000 A 
ATOM      4  C   UNL     1       2.451   2.434  17.913  0.00  0.00    +0.000 A 
ATOM      5  C   UNL     1       3.144   3.635  17.777  0.00  0.00    +0.000 A 
ATOM      6  C   UNL     1       3.263   4.527  18.849  0.00  0.00    +0.000 A 
ATOM      7  C   UNL     1       2.694   4.171  20.081  0.00  0.00    +0.000 A 
ATOM      8  C   UNL     1       4.031   5.822  18.710  0.00  0.00    +0.000 C 
ATOM      9  C   UNL     1       5.537   5.589  18.376  0.00  0.00    +0.000 C 
ATOM     10  C   UNL     1       5.780   5.120  16.929  0.00  0.00    +0.000 C 
ATOM     11  C   UNL     1       5.087   3.815  16.549  0.00  0.00    +0.000 C 
ATOM     12  O   UNL     1       3.659   3.951  16.549  0.00  0.00    +0.000 OA
ENDROOT
BRANCH   9  13
ATOM     13  N   UNL     1       6.232   4.693  19.326  0.00  0.00    +0.000 NA
ATOM     14  H   UNL     1       6.961   4.174  18.832  0.00  0.00    +0.000 HD
ATOM     15  H   UNL     1       5.578   3.978  19.646  0.00  0.00    +0.000 HD
ENDBRANCH   9  13
BRANCH   8  16
ATOM     16  O   UNL     1       3.425   6.669  17.736  0.00  0.00    +0.000 OA
ATOM     17  H   UNL     1       4.096   6.841  17.047  0.00  0.00    +0.000 HD
ENDBRANCH   8  16
TORSDOF 2
ENDMDL
