MODEL 1
REMARK VINA RESULT:      -8.1      0.000      0.000
REMARK  Name = 
REMARK  7 active torsions:
REMARK  status: ('A' for Active; 'I' for Inactive)
REMARK    1  A    between atoms: C_2  and  O_3
REMARK    2  A    between atoms: C_2  and  C_4
REMARK    3  A    between atoms: N_6  and  C_7
REMARK    4  A    between atoms: C_7  and  C_8
REMARK    5  A    between atoms: C_11  and  C_12
REMARK    6  A    between atoms: C_15  and  C_16
REMARK    7  A    between atoms: C_19  and  C_20
REMARK                            x       y       z     vdW  Elec       q    Type
REMARK                         _______ _______ _______ _____ _____    ______ ____
ROOT
ATOM      1  C   UNL     1       2.780   6.186  18.472  0.00  0.00    +0.000 A 
ATOM      2  C   UNL     1       2.589   7.500  18.024  0.00  0.00    +0.000 A 
ATOM      3  C   UNL     1       2.020   8.461  18.864  0.00  0.00    +0.000 A 
ATOM      4  C   UNL     1       1.629   8.121  20.165  0.00  0.00    +0.000 A 
ATOM      5  C   UNL     1       1.830   6.807  20.613  0.00  0.00    +0.000 A 
ATOM      6  C   UNL     1       2.397   5.848  19.776  0.00  0.00    +0.000 A 
ENDROOT
BRANCH   4   7
ATOM      7  C   UNL     1       1.002   9.090  21.051  0.00  0.00    +0.000 A 
ATOM      8  N   UNL     1       1.458   9.419  22.270  0.00  0.00    +0.000 NA
ATOM      9  O   UNL     1       0.559  10.397  22.701  0.00  0.00    +0.000 OA
ATOM     10  C   UNL     1      -0.352  10.558  21.698  0.00  0.00    +0.000 A 
ATOM     11  N   UNL     1      -0.128   9.777  20.669  0.00  0.00    +0.000 NA
BRANCH  10  12
ATOM     12  C   UNL     1      -1.403  11.544  21.887  0.00  0.00    +0.000 A 
ATOM     13  C   UNL     1      -1.877  12.337  20.841  0.00  0.00    +0.000 A 
ATOM     14  C   UNL     1      -2.900  13.265  21.065  0.00  0.00    +0.000 A 
ATOM     15  C   UNL     1      -3.500  13.432  22.328  0.00  0.00    +0.000 A 
ATOM     16  C   UNL     1      -2.990  12.639  23.370  0.00  0.00    +0.000 A 
ATOM     17  C   UNL     1      -1.966  11.711  23.158  0.00  0.00    +0.000 A 
BRANCH  15  18
ATOM     18  C   UNL     1      -4.692  14.447  22.563  0.00  0.00    +0.000 C 
ATOM     19  C   UNL     1      -6.107  14.063  22.039  0.00  0.00    +0.000 C 
ATOM     20  C   UNL     1      -6.695  14.731  23.292  0.00  0.00    +0.000 C 
ATOM     21  C   UNL     1      -5.340  14.494  23.979  0.00  0.00    +0.000 C 
ENDBRANCH  15  18
ENDBRANCH  10  12
ENDBRANCH   4   7
BRANCH   1  22
ATOM     22  C   UNL     1       3.426   5.145  17.584  0.00  0.00    +0.000 C 
BRANCH  22  25
ATOM     23  C   UNL     1       5.462   4.788  15.538  0.00  0.00    +0.000 C 
ATOM     24  C   UNL     1       5.540   4.091  16.907  0.00  0.00    +0.000 C 
ATOM     25  N   UNL     1       4.894   5.263  17.539  0.00  0.00    +0.000 NA
ATOM     26  C   UNL     1       5.313   6.083  16.371  0.00  0.00    +0.000 C 
BRANCH  23  28
ATOM     27  O   UNL     1       7.640   5.398  14.562  0.00  0.00    +0.000 OA
ATOM     28  C   UNL     1       6.670   4.648  14.600  0.00  0.00    +0.000 C 
BRANCH  28  29
ATOM     29  O   UNL     1       6.582   3.595  13.744  0.00  0.00    +0.000 OA
ATOM     30  H   UNL     1       5.972   2.893  14.043  0.00  0.00    +0.000 HD
ENDBRANCH  28  29
ENDBRANCH  23  28
ENDBRANCH  22  25
ENDBRANCH   1  22
TORSDOF 7
ENDMDL
MODEL 2
REMARK VINA RESULT:      -8.1      0.983      1.215
REMARK  Name = 
REMARK  7 active torsions:
REMARK  status: ('A' for Active; 'I' for Inactive)
REMARK    1  A    between atoms: C_2  and  O_3
REMARK    2  A    between atoms: C_2  and  C_4
REMARK    3  A    between atoms: N_6  and  C_7
REMARK    4  A    between atoms: C_7  and  C_8
REMARK    5  A    between atoms: C_11  and  C_12
REMARK    6  A    between atoms: C_15  and  C_16
REMARK    7  A    between atoms: C_19  and  C_20
REMARK                            x       y       z     vdW  Elec       q    Type
REMARK                         _______ _______ _______ _____ _____    ______ ____
ROOT
ATOM      1  C   UNL     1       2.463   5.874  18.687  0.00  0.00    +0.000 A 
ATOM      2  C   UNL     1       2.405   7.201  18.241  0.00  0.00    +0.000 A 
ATOM      3  C   UNL     1       1.933   8.213  19.081  0.00  0.00    +0.000 A 
ATOM      4  C   UNL     1       1.506   7.912  20.380  0.00  0.00    +0.000 A 
ATOM      5  C   UNL     1       1.574   6.584  20.827  0.00  0.00    +0.000 A 
ATOM      6  C   UNL     1       2.044   5.574  19.990  0.00  0.00    +0.000 A 
ENDROOT
BRANCH   4   7
ATOM      7  C   UNL     1       0.977   8.938  21.267  0.00  0.00    +0.000 A 
ATOM      8  N   UNL     1       1.471   9.230  22.481  0.00  0.00    +0.000 NA
ATOM      9  O   UNL     1       0.668  10.287  22.913  0.00  0.00    +0.000 OA
ATOM     10  C   UNL     1      -0.233  10.526  21.916  0.00  0.00    +0.000 A 
ATOM     11  N   UNL     1      -0.089   9.723  20.889  0.00  0.00    +0.000 NA
BRANCH  10  12
ATOM     12  C   UNL     1      -1.188  11.603  22.109  0.00  0.00    +0.000 A 
ATOM     13  C   UNL     1      -1.280  12.683  21.229  0.00  0.00    +0.000 A 
ATOM     14  C   UNL     1      -2.224  13.693  21.445  0.00  0.00    +0.000 A 
ATOM     15  C   UNL     1      -3.120  13.664  22.530  0.00  0.00    +0.000 A 
ATOM     16  C   UNL     1      -2.993  12.580  23.416  0.00  0.00    +0.000 A 
ATOM     17  C   UNL     1      -2.052  11.567  23.211  0.00  0.00    +0.000 A 
BRANCH  15  18
ATOM     18  C   UNL     1      -4.220  14.784  22.741  0.00  0.00    +0.000 C 
ATOM     19  C   UNL     1      -5.231  14.618  23.914  0.00  0.00    +0.000 C 
ATOM     20  C   UNL     1      -5.165  16.140  24.117  0.00  0.00    +0.000 C 
ATOM     21  C   UNL     1      -3.786  16.109  23.437  0.00  0.00    +0.000 C 
ENDBRANCH  15  18
ENDBRANCH  10  12
ENDBRANCH   4   7
BRANCH   1  22
ATOM     22  C   UNL     1       3.003   4.775  17.799  0.00  0.00    +0.000 C 
BRANCH  22  25
ATOM     23  C   UNL     1       5.702   4.822  16.714  0.00  0.00    +0.000 C 
ATOM     24  C   UNL     1       5.026   3.523  17.185  0.00  0.00    +0.000 C 
ATOM     25  N   UNL     1       4.317   4.275  18.243  0.00  0.00    +0.000 NA
ATOM     26  C   UNL     1       5.344   5.344  18.126  0.00  0.00    +0.000 C 
BRANCH  23  28
ATOM     27  O   UNL     1       8.072   4.195  16.942  0.00  0.00    +0.000 OA
ATOM     28  C   UNL     1       7.180   4.747  16.307  0.00  0.00    +0.000 C 
BRANCH  28  29
ATOM     29  O   UNL     1       7.462   5.391  15.143  0.00  0.00    +0.000 OA
ATOM     30  H   UNL     1       8.415   5.424  14.931  0.00  0.00    +0.000 HD
ENDBRANCH  28  29
ENDBRANCH  23  28
ENDBRANCH  22  25
ENDBRANCH   1  22
TORSDOF 7
ENDMDL
MODEL 3
REMARK VINA RESULT:      -8.1      2.803     12.067
REMARK  Name = 
REMARK  7 active torsions:
REMARK  status: ('A' for Active; 'I' for Inactive)
REMARK    1  A    between atoms: C_2  and  O_3
REMARK    2  A    between atoms: C_2  and  C_4
REMARK    3  A    between atoms: N_6  and  C_7
REMARK    4  A    between atoms: C_7  and  C_8
REMARK    5  A    between atoms: C_11  and  C_12
REMARK    6  A    between atoms: C_15  and  C_16
REMARK    7  A    between atoms: C_19  and  C_20
REMARK                            x       y       z     vdW  Elec       q    Type
REMARK                         _______ _______ _______ _____ _____    ______ ____
ROOT
ATOM      1  C   UNL     1      -0.307  11.004  21.098  0.00  0.00    +0.000 A 
ATOM      2  C   UNL     1       0.169  10.100  22.058  0.00  0.00    +0.000 A 
ATOM      3  C   UNL     1       0.908   8.979  21.673  0.00  0.00    +0.000 A 
ATOM      4  C   UNL     1       1.178   8.741  20.320  0.00  0.00    +0.000 A 
ATOM      5  C   UNL     1       0.710   9.652  19.363  0.00  0.00    +0.000 A 
ATOM      6  C   UNL     1      -0.028  10.771  19.745  0.00  0.00    +0.000 A 
ENDROOT
BRANCH   4   7
ATOM      7  C   UNL     1       1.916   7.565  19.884  0.00  0.00    +0.000 A 
ATOM      8  N   UNL     1       1.982   6.407  20.562  0.00  0.00    +0.000 NA
ATOM      9  O   UNL     1       2.758   5.590  19.737  0.00  0.00    +0.000 OA
ATOM     10  C   UNL     1       3.086   6.339  18.644  0.00  0.00    +0.000 A 
ATOM     11  N   UNL     1       2.599   7.556  18.689  0.00  0.00    +0.000 NA
BRANCH  10  12
ATOM     12  C   UNL     1       3.888   5.711  17.608  0.00  0.00    +0.000 A 
ATOM     13  C   UNL     1       3.936   4.326  17.439  0.00  0.00    +0.000 A 
ATOM     14  C   UNL     1       4.711   3.764  16.419  0.00  0.00    +0.000 A 
ATOM     15  C   UNL     1       5.455   4.552  15.521  0.00  0.00    +0.000 A 
ATOM     16  C   UNL     1       5.411   5.941  15.725  0.00  0.00    +0.000 A 
ATOM     17  C   UNL     1       4.641   6.513  16.742  0.00  0.00    +0.000 A 
BRANCH  15  18
ATOM     18  C   UNL     1       6.291   3.912  14.337  0.00  0.00    +0.000 C 
ATOM     19  C   UNL     1       5.566   3.626  12.989  0.00  0.00    +0.000 C 
ATOM     20  C   UNL     1       6.859   4.034  12.267  0.00  0.00    +0.000 C 
ATOM     21  C   UNL     1       7.227   4.850  13.518  0.00  0.00    +0.000 C 
ENDBRANCH  15  18
ENDBRANCH  10  12
ENDBRANCH   4   7
BRANCH   1  22
ATOM     22  C   UNL     1      -1.080  12.239  21.505  0.00  0.00    +0.000 C 
BRANCH  22  25
ATOM     23  C   UNL     1      -2.809  13.844  23.207  0.00  0.00    +0.000 C 
ATOM     24  C   UNL     1      -1.317  13.630  23.517  0.00  0.00    +0.000 C 
ATOM     25  N   UNL     1      -1.395  12.268  22.944  0.00  0.00    +0.000 NA
ATOM     26  C   UNL     1      -2.866  12.299  23.153  0.00  0.00    +0.000 C 
BRANCH  23  28
ATOM     27  O   UNL     1      -4.839  14.875  24.145  0.00  0.00    +0.000 OA
ATOM     28  C   UNL     1      -3.655  14.578  24.257  0.00  0.00    +0.000 C 
BRANCH  28  29
ATOM     29  O   UNL     1      -2.962  14.925  25.375  0.00  0.00    +0.000 OA
ATOM     30  H   UNL     1      -3.235  15.780  25.759  0.00  0.00    +0.000 HD
ENDBRANCH  28  29
ENDBRANCH  23  28
ENDBRANCH  22  25
ENDBRANCH   1  22
TORSDOF 7
ENDMDL
MODEL 4
REMARK VINA RESULT:      -8.1      1.443      1.686
REMARK  Name = 
REMARK  7 active torsions:
REMARK  status: ('A' for Active; 'I' for Inactive)
REMARK    1  A    between atoms: C_2  and  O_3
REMARK    2  A    between atoms: C_2  and  C_4
REMARK    3  A    between atoms: N_6  and  C_7
REMARK    4  A    between atoms: C_7  and  C_8
REMARK    5  A    between atoms: C_11  and  C_12
REMARK    6  A    between atoms: C_15  and  C_16
REMARK    7  A    between atoms: C_19  and  C_20
REMARK                            x       y       z     vdW  Elec       q    Type
REMARK                         _______ _______ _______ _____ _____    ______ ____
ROOT
ATOM      1  C   UNL     1       2.566   6.903  18.692  0.00  0.00    +0.000 A 
ATOM      2  C   UNL     1       2.338   7.935  17.771  0.00  0.00    +0.000 A 
ATOM      3  C   UNL     1       1.705   9.115  18.170  0.00  0.00    +0.000 A 
ATOM      4  C   UNL     1       1.286   9.280  19.496  0.00  0.00    +0.000 A 
ATOM      5  C   UNL     1       1.524   8.249  20.417  0.00  0.00    +0.000 A 
ATOM      6  C   UNL     1       2.154   7.072  20.020  0.00  0.00    +0.000 A 
ENDROOT
BRANCH   4   7
ATOM      7  C   UNL     1       0.594  10.483  19.934  0.00  0.00    +0.000 A 
ATOM      8  N   UNL     1       1.012  11.736  19.696  0.00  0.00    +0.000 NA
ATOM      9  O   UNL     1       0.014  12.527  20.269  0.00  0.00    +0.000 OA
ATOM     10  C   UNL     1      -0.907  11.670  20.799  0.00  0.00    +0.000 A 
ATOM     11  N   UNL     1      -0.595  10.408  20.625  0.00  0.00    +0.000 NA
BRANCH  10  12
ATOM     12  C   UNL     1      -2.073  12.243  21.449  0.00  0.00    +0.000 A 
ATOM     13  C   UNL     1      -2.963  13.082  20.777  0.00  0.00    +0.000 A 
ATOM     14  C   UNL     1      -4.081  13.602  21.439  0.00  0.00    +0.000 A 
ATOM     15  C   UNL     1      -4.366  13.300  22.783  0.00  0.00    +0.000 A 
ATOM     16  C   UNL     1      -3.443  12.473  23.446  0.00  0.00    +0.000 A 
ATOM     17  C   UNL     1      -2.322  11.950  22.796  0.00  0.00    +0.000 A 
BRANCH  15  18
ATOM     18  C   UNL     1      -5.660  13.850  23.512  0.00  0.00    +0.000 C 
ATOM     19  C   UNL     1      -6.943  14.089  22.662  0.00  0.00    +0.000 C 
ATOM     20  C   UNL     1      -7.767  13.604  23.865  0.00  0.00    +0.000 C 
ATOM     21  C   UNL     1      -6.516  12.843  24.336  0.00  0.00    +0.000 C 
ENDBRANCH  15  18
ENDBRANCH  10  12
ENDBRANCH   4   7
BRANCH   1  22
ATOM     22  C   UNL     1       3.280   5.634  18.280  0.00  0.00    +0.000 C 
BRANCH  22  25
ATOM     23  C   UNL     1       5.844   4.886  17.128  0.00  0.00    +0.000 C 
ATOM     24  C   UNL     1       5.330   4.291  18.450  0.00  0.00    +0.000 C 
ATOM     25  N   UNL     1       4.668   5.575  18.770  0.00  0.00    +0.000 NA
ATOM     26  C   UNL     1       5.585   6.249  17.813  0.00  0.00    +0.000 C 
BRANCH  23  28
ATOM     27  O   UNL     1       8.183   4.185  17.447  0.00  0.00    +0.000 OA
ATOM     28  C   UNL     1       7.276   4.535  16.700  0.00  0.00    +0.000 C 
BRANCH  28  29
ATOM     29  O   UNL     1       7.498   4.668  15.365  0.00  0.00    +0.000 OA
ATOM     30  H   UNL     1       7.856   5.540  15.109  0.00  0.00    +0.000 HD
ENDBRANCH  28  29
ENDBRANCH  23  28
ENDBRANCH  22  25
ENDBRANCH   1  22
TORSDOF 7
ENDMDL
MODEL 5
REMARK VINA RESULT:      -8.0      1.305      2.040
REMARK  Name = 
REMARK  7 active torsions:
REMARK  status: ('A' for Active; 'I' for Inactive)
REMARK    1  A    between atoms: C_2  and  O_3
REMARK    2  A    between atoms: C_2  and  C_4
REMARK    3  A    between atoms: N_6  and  C_7
REMARK    4  A    between atoms: C_7  and  C_8
REMARK    5  A    between atoms: C_11  and  C_12
REMARK    6  A    between atoms: C_15  and  C_16
REMARK    7  A    between atoms: C_19  and  C_20
REMARK                            x       y       z     vdW  Elec       q    Type
REMARK                         _______ _______ _______ _____ _____    ______ ____
ROOT
ATOM      1  C   UNL     1       2.478   6.809  18.725  0.00  0.00    +0.000 A 
ATOM      2  C   UNL     1       2.113   6.703  20.074  0.00  0.00    +0.000 A 
ATOM      3  C   UNL     1       1.517   7.780  20.735  0.00  0.00    +0.000 A 
ATOM      4  C   UNL     1       1.282   8.983  20.059  0.00  0.00    +0.000 A 
ATOM      5  C   UNL     1       1.640   9.083  18.707  0.00  0.00    +0.000 A 
ATOM      6  C   UNL     1       2.235   8.010  18.046  0.00  0.00    +0.000 A 
ENDROOT
BRANCH   4   7
ATOM      7  C   UNL     1       0.694  10.133  20.729  0.00  0.00    +0.000 A 
ATOM      8  N   UNL     1       1.370  11.235  21.095  0.00  0.00    +0.000 NA
ATOM      9  O   UNL     1       0.384  12.051  21.653  0.00  0.00    +0.000 OA
ATOM     10  C   UNL     1      -0.789  11.359  21.570  0.00  0.00    +0.000 A 
ATOM     11  N   UNL     1      -0.651  10.177  21.017  0.00  0.00    +0.000 NA
BRANCH  10  12
ATOM     12  C   UNL     1      -1.992  12.000  22.073  0.00  0.00    +0.000 A 
ATOM     13  C   UNL     1      -2.432  11.832  23.387  0.00  0.00    +0.000 A 
ATOM     14  C   UNL     1      -3.589  12.479  23.834  0.00  0.00    +0.000 A 
ATOM     15  C   UNL     1      -4.345  13.325  23.002  0.00  0.00    +0.000 A 
ATOM     16  C   UNL     1      -3.897  13.460  21.676  0.00  0.00    +0.000 A 
ATOM     17  C   UNL     1      -2.744  12.816  21.219  0.00  0.00    +0.000 A 
BRANCH  15  18
ATOM     18  C   UNL     1      -5.626  14.095  23.528  0.00  0.00    +0.000 C 
ATOM     19  C   UNL     1      -6.430  14.968  22.521  0.00  0.00    +0.000 C 
ATOM     20  C   UNL     1      -7.714  14.519  23.237  0.00  0.00    +0.000 C 
ATOM     21  C   UNL     1      -6.939  13.279  23.714  0.00  0.00    +0.000 C 
ENDBRANCH  15  18
ENDBRANCH  10  12
ENDBRANCH   4   7
BRANCH   1  22
ATOM     22  C   UNL     1       3.093   5.639  17.989  0.00  0.00    +0.000 C 
BRANCH  22  25
ATOM     23  C   UNL     1       5.859   4.856  17.543  0.00  0.00    +0.000 C 
ATOM     24  C   UNL     1       5.440   6.323  17.739  0.00  0.00    +0.000 C 
ATOM     25  N   UNL     1       4.157   6.047  17.055  0.00  0.00    +0.000 NA
ATOM     26  C   UNL     1       4.784   4.853  16.430  0.00  0.00    +0.000 C 
BRANCH  23  28
ATOM     27  O   UNL     1       7.767   4.539  16.019  0.00  0.00    +0.000 OA
ATOM     28  C   UNL     1       7.320   4.579  17.160  0.00  0.00    +0.000 C 
BRANCH  28  29
ATOM     29  O   UNL     1       8.131   4.340  18.225  0.00  0.00    +0.000 OA
ATOM     30  H   UNL     1       7.699   4.480  19.090  0.00  0.00    +0.000 HD
ENDBRANCH  28  29
ENDBRANCH  23  28
ENDBRANCH  22  25
ENDBRANCH   1  22
TORSDOF 7
ENDMDL
MODEL 6
REMARK VINA RESULT:      -8.0      0.411      1.137
REMARK  Name = 
REMARK  7 active torsions:
REMARK  status: ('A' for Active; 'I' for Inactive)
REMARK    1  A    between atoms: C_2  and  O_3
REMARK    2  A    between atoms: C_2  and  C_4
REMARK    3  A    between atoms: N_6  and  C_7
REMARK    4  A    between atoms: C_7  and  C_8
REMARK    5  A    between atoms: C_11  and  C_12
REMARK    6  A    between atoms: C_15  and  C_16
REMARK    7  A    between atoms: C_19  and  C_20
REMARK                            x       y       z     vdW  Elec       q    Type
REMARK                         _______ _______ _______ _____ _____    ______ ____
ROOT
ATOM      1  C   UNL     1       2.662   6.340  18.533  0.00  0.00    +0.000 A 
ATOM      2  C   UNL     1       2.436   7.659  18.117  0.00  0.00    +0.000 A 
ATOM      3  C   UNL     1       1.865   8.590  18.989  0.00  0.00    +0.000 A 
ATOM      4  C   UNL     1       1.505   8.214  20.289  0.00  0.00    +0.000 A 
ATOM      5  C   UNL     1       1.741   6.895  20.704  0.00  0.00    +0.000 A 
ATOM      6  C   UNL     1       2.310   5.966  19.836  0.00  0.00    +0.000 A 
ENDROOT
BRANCH   4   7
ATOM      7  C   UNL     1       0.877   9.151  21.208  0.00  0.00    +0.000 A 
ATOM      8  N   UNL     1       1.306   9.405  22.455  0.00  0.00    +0.000 NA
ATOM      9  O   UNL     1       0.418  10.381  22.912  0.00  0.00    +0.000 OA
ATOM     10  C   UNL     1      -0.461  10.616  21.895  0.00  0.00    +0.000 A 
ATOM     11  N   UNL     1      -0.226   9.884  20.833  0.00  0.00    +0.000 NA
BRANCH  10  12
ATOM     12  C   UNL     1      -1.493  11.616  22.108  0.00  0.00    +0.000 A 
ATOM     13  C   UNL     1      -2.183  11.729  23.317  0.00  0.00    +0.000 A 
ATOM     14  C   UNL     1      -3.161  12.715  23.484  0.00  0.00    +0.000 A 
ATOM     15  C   UNL     1      -3.482  13.634  22.467  0.00  0.00    +0.000 A 
ATOM     16  C   UNL     1      -2.792  13.486  21.252  0.00  0.00    +0.000 A 
ATOM     17  C   UNL     1      -1.815  12.502  21.073  0.00  0.00    +0.000 A 
BRANCH  15  18
ATOM     18  C   UNL     1      -4.554  14.780  22.680  0.00  0.00    +0.000 C 
ATOM     19  C   UNL     1      -6.045  14.374  22.871  0.00  0.00    +0.000 C 
ATOM     20  C   UNL     1      -6.175  15.526  23.879  0.00  0.00    +0.000 C 
ATOM     21  C   UNL     1      -4.655  15.430  24.092  0.00  0.00    +0.000 C 
ENDBRANCH  15  18
ENDBRANCH  10  12
ENDBRANCH   4   7
BRANCH   1  22
ATOM     22  C   UNL     1       3.311   5.332  17.610  0.00  0.00    +0.000 C 
BRANCH  22  25
ATOM     23  C   UNL     1       5.345   4.828  15.592  0.00  0.00    +0.000 C 
ATOM     24  C   UNL     1       5.445   4.265  17.021  0.00  0.00    +0.000 C 
ATOM     25  N   UNL     1       4.776   5.477  17.544  0.00  0.00    +0.000 NA
ATOM     26  C   UNL     1       5.171   6.192  16.301  0.00  0.00    +0.000 C 
BRANCH  23  28
ATOM     27  O   UNL     1       6.609   3.845  13.721  0.00  0.00    +0.000 OA
ATOM     28  C   UNL     1       6.551   4.627  14.664  0.00  0.00    +0.000 C 
BRANCH  28  29
ATOM     29  O   UNL     1       7.626   5.395  14.986  0.00  0.00    +0.000 OA
ATOM     30  H   UNL     1       8.455   4.889  15.093  0.00  0.00    +0.000 HD
ENDBRANCH  28  29
ENDBRANCH  23  28
ENDBRANCH  22  25
ENDBRANCH   1  22
TORSDOF 7
ENDMDL
MODEL 7
REMARK VINA RESULT:      -8.0      1.111      1.334
REMARK  Name = 
REMARK  7 active torsions:
REMARK  status: ('A' for Active; 'I' for Inactive)
REMARK    1  A    between atoms: C_2  and  O_3
REMARK    2  A    between atoms: C_2  and  C_4
REMARK    3  A    between atoms: N_6  and  C_7
REMARK    4  A    between atoms: C_7  and  C_8
REMARK    5  A    between atoms: C_11  and  C_12
REMARK    6  A    between atoms: C_15  and  C_16
REMARK    7  A    between atoms: C_19  and  C_20
REMARK                            x       y       z     vdW  Elec       q    Type
REMARK                         _______ _______ _______ _____ _____    ______ ____
ROOT
ATOM      1  C   UNL     1       2.623   7.130  18.374  0.00  0.00    +0.000 A 
ATOM      2  C   UNL     1       2.346   8.288  17.634  0.00  0.00    +0.000 A 
ATOM      3  C   UNL     1       1.729   9.386  18.237  0.00  0.00    +0.000 A 
ATOM      4  C   UNL     1       1.373   9.342  19.591  0.00  0.00    +0.000 A 
ATOM      5  C   UNL     1       1.661   8.187  20.332  0.00  0.00    +0.000 A 
ATOM      6  C   UNL     1       2.276   7.090  19.731  0.00  0.00    +0.000 A 
ENDROOT
BRANCH   4   7
ATOM      7  C   UNL     1       0.699  10.457  20.239  0.00  0.00    +0.000 A 
ATOM      8  N   UNL     1       1.262  11.648  20.497  0.00  0.00    +0.000 NA
ATOM      9  O   UNL     1       0.225  12.380  21.080  0.00  0.00    +0.000 OA
ATOM     10  C   UNL     1      -0.861  11.554  21.118  0.00  0.00    +0.000 A 
ATOM     11  N   UNL     1      -0.621  10.364  20.621  0.00  0.00    +0.000 NA
BRANCH  10  12
ATOM     12  C   UNL     1      -2.097  12.083  21.671  0.00  0.00    +0.000 A 
ATOM     13  C   UNL     1      -3.082  12.664  20.871  0.00  0.00    +0.000 A 
ATOM     14  C   UNL     1      -4.263  13.149  21.443  0.00  0.00    +0.000 A 
ATOM     15  C   UNL     1      -4.518  13.064  22.825  0.00  0.00    +0.000 A 
ATOM     16  C   UNL     1      -3.502  12.497  23.613  0.00  0.00    +0.000 A 
ATOM     17  C   UNL     1      -2.317  12.012  23.052  0.00  0.00    +0.000 A 
BRANCH  15  18
ATOM     18  C   UNL     1      -5.878  13.568  23.461  0.00  0.00    +0.000 C 
ATOM     19  C   UNL     1      -5.994  15.066  23.870  0.00  0.00    +0.000 C 
ATOM     20  C   UNL     1      -7.457  15.026  23.404  0.00  0.00    +0.000 C 
ATOM     21  C   UNL     1      -7.072  13.843  22.499  0.00  0.00    +0.000 C 
ENDBRANCH  15  18
ENDBRANCH  10  12
ENDBRANCH   4   7
BRANCH   1  22
ATOM     22  C   UNL     1       3.321   5.947  17.741  0.00  0.00    +0.000 C 
BRANCH  22  25
ATOM     23  C   UNL     1       5.352   5.040  15.867  0.00  0.00    +0.000 C 
ATOM     24  C   UNL     1       5.509   4.885  17.390  0.00  0.00    +0.000 C 
ATOM     25  N   UNL     1       4.773   6.152  17.593  0.00  0.00    +0.000 NA
ATOM     26  C   UNL     1       5.103   6.531  16.194  0.00  0.00    +0.000 C 
BRANCH  23  28
ATOM     27  O   UNL     1       7.593   5.311  14.880  0.00  0.00    +0.000 OA
ATOM     28  C   UNL     1       6.555   4.667  14.988  0.00  0.00    +0.000 C 
BRANCH  28  29
ATOM     29  O   UNL     1       6.378   3.524  14.272  0.00  0.00    +0.000 OA
ATOM     30  H   UNL     1       6.085   3.675  13.353  0.00  0.00    +0.000 HD
ENDBRANCH  28  29
ENDBRANCH  23  28
ENDBRANCH  22  25
ENDBRANCH   1  22
TORSDOF 7
ENDMDL
MODEL 8
REMARK VINA RESULT:      -8.0      2.833     11.855
REMARK  Name = 
REMARK  7 active torsions:
REMARK  status: ('A' for Active; 'I' for Inactive)
REMARK    1  A    between atoms: C_2  and  O_3
REMARK    2  A    between atoms: C_2  and  C_4
REMARK    3  A    between atoms: N_6  and  C_7
REMARK    4  A    between atoms: C_7  and  C_8
REMARK    5  A    between atoms: C_11  and  C_12
REMARK    6  A    between atoms: C_15  and  C_16
REMARK    7  A    between atoms: C_19  and  C_20
REMARK                            x       y       z     vdW  Elec       q    Type
REMARK                         _______ _______ _______ _____ _____    ______ ____
ROOT
ATOM      1  C   UNL     1      -0.425  11.142  22.120  0.00  0.00    +0.000 A 
ATOM      2  C   UNL     1       0.024  11.103  20.793  0.00  0.00    +0.000 A 
ATOM      3  C   UNL     1       0.609   9.946  20.274  0.00  0.00    +0.000 A 
ATOM      4  C   UNL     1       0.762   8.809  21.077  0.00  0.00    +0.000 A 
ATOM      5  C   UNL     1       0.303   8.847  22.402  0.00  0.00    +0.000 A 
ATOM      6  C   UNL     1      -0.281  10.001  22.921  0.00  0.00    +0.000 A 
ENDROOT
BRANCH   4   7
ATOM      7  C   UNL     1       1.399   7.600  20.577  0.00  0.00    +0.000 A 
ATOM      8  N   UNL     1       1.248   6.378  21.110  0.00  0.00    +0.000 NA
ATOM      9  O   UNL     1       2.010   5.560  20.273  0.00  0.00    +0.000 OA
ATOM     10  C   UNL     1       2.547   6.374  19.317  0.00  0.00    +0.000 A 
ATOM     11  N   UNL     1       2.207   7.632  19.463  0.00  0.00    +0.000 NA
BRANCH  10  12
ATOM     12  C   UNL     1       3.381   5.763  18.296  0.00  0.00    +0.000 A 
ATOM     13  C   UNL     1       3.327   4.397  18.010  0.00  0.00    +0.000 A 
ATOM     14  C   UNL     1       4.139   3.852  17.009  0.00  0.00    +0.000 A 
ATOM     15  C   UNL     1       5.022   4.640  16.247  0.00  0.00    +0.000 A 
ATOM     16  C   UNL     1       5.076   6.006  16.569  0.00  0.00    +0.000 A 
ATOM     17  C   UNL     1       4.272   6.561  17.569  0.00  0.00    +0.000 A 
BRANCH  15  18
ATOM     18  C   UNL     1       5.901   4.026  15.081  0.00  0.00    +0.000 C 
ATOM     19  C   UNL     1       5.330   4.046  13.633  0.00  0.00    +0.000 C 
ATOM     20  C   UNL     1       6.756   4.317  13.129  0.00  0.00    +0.000 C 
ATOM     21  C   UNL     1       7.073   4.887  14.523  0.00  0.00    +0.000 C 
ENDBRANCH  15  18
ENDBRANCH  10  12
ENDBRANCH   4   7
BRANCH   1  22
ATOM     22  C   UNL     1      -1.091  12.378  22.683  0.00  0.00    +0.000 C 
BRANCH  22  25
ATOM     23  C   UNL     1      -3.615  13.777  23.046  0.00  0.00    +0.000 C 
ATOM     24  C   UNL     1      -3.487  12.527  22.160  0.00  0.00    +0.000 C 
ATOM     25  N   UNL     1      -2.116  12.935  21.783  0.00  0.00    +0.000 NA
ATOM     26  C   UNL     1      -2.455  14.326  22.182  0.00  0.00    +0.000 C 
BRANCH  23  28
ATOM     27  O   UNL     1      -5.641  14.757  22.046  0.00  0.00    +0.000 OA
ATOM     28  C   UNL     1      -4.959  14.520  23.037  0.00  0.00    +0.000 C 
BRANCH  28  29
ATOM     29  O   UNL     1      -5.358  14.949  24.264  0.00  0.00    +0.000 OA
ATOM     30  H   UNL     1      -6.272  15.292  24.285  0.00  0.00    +0.000 HD
ENDBRANCH  28  29
ENDBRANCH  23  28
ENDBRANCH  22  25
ENDBRANCH   1  22
TORSDOF 7
ENDMDL
MODEL 9
REMARK VINA RESULT:      -8.0      2.068      3.170
REMARK  Name = 
REMARK  7 active torsions:
REMARK  status: ('A' for Active; 'I' for Inactive)
REMARK    1  A    between atoms: C_2  and  O_3
REMARK    2  A    between atoms: C_2  and  C_4
REMARK    3  A    between atoms: N_6  and  C_7
REMARK    4  A    between atoms: C_7  and  C_8
REMARK    5  A    between atoms: C_11  and  C_12
REMARK    6  A    between atoms: C_15  and  C_16
REMARK    7  A    between atoms: C_19  and  C_20
REMARK                            x       y       z     vdW  Elec       q    Type
REMARK                         _______ _______ _______ _____ _____    ______ ____
ROOT
ATOM      1  C   UNL     1       5.334   5.547  17.144  0.00  0.00    +0.000 A 
ATOM      2  C   UNL     1       4.648   6.735  16.856  0.00  0.00    +0.000 A 
ATOM      3  C   UNL     1       3.663   7.214  17.724  0.00  0.00    +0.000 A 
ATOM      4  C   UNL     1       3.344   6.508  18.891  0.00  0.00    +0.000 A 
ATOM      5  C   UNL     1       4.039   5.325  19.181  0.00  0.00    +0.000 A 
ATOM      6  C   UNL     1       5.022   4.846  18.316  0.00  0.00    +0.000 A 
ENDROOT
BRANCH   4   7
ATOM      7  C   UNL     1       2.300   6.963  19.797  0.00  0.00    +0.000 A 
ATOM      8  N   UNL     1       1.705   6.198  20.725  0.00  0.00    +0.000 NA
ATOM      9  O   UNL     1       0.820   7.076  21.353  0.00  0.00    +0.000 OA
ATOM     10  C   UNL     1       0.968   8.286  20.737  0.00  0.00    +0.000 A 
ATOM     11  N   UNL     1       1.858   8.266  19.774  0.00  0.00    +0.000 NA
BRANCH  10  12
ATOM     12  C   UNL     1       0.162   9.395  21.217  0.00  0.00    +0.000 A 
ATOM     13  C   UNL     1      -0.131   9.571  22.571  0.00  0.00    +0.000 A 
ATOM     14  C   UNL     1      -0.901  10.662  22.992  0.00  0.00    +0.000 A 
ATOM     15  C   UNL     1      -1.395  11.624  22.091  0.00  0.00    +0.000 A 
ATOM     16  C   UNL     1      -1.108  11.412  20.732  0.00  0.00    +0.000 A 
ATOM     17  C   UNL     1      -0.343  10.325  20.301  0.00  0.00    +0.000 A 
BRANCH  15  18
ATOM     18  C   UNL     1      -2.222  12.884  22.579  0.00  0.00    +0.000 C 
ATOM     19  C   UNL     1      -3.419  12.654  23.548  0.00  0.00    +0.000 C 
ATOM     20  C   UNL     1      -3.033  13.964  24.252  0.00  0.00    +0.000 C 
ATOM     21  C   UNL     1      -1.608  13.764  23.708  0.00  0.00    +0.000 C 
ENDBRANCH  15  18
ENDBRANCH  10  12
ENDBRANCH   4   7
BRANCH   1  22
ATOM     22  C   UNL     1       6.426   5.036  16.230  0.00  0.00    +0.000 C 
BRANCH  22  25
ATOM     23  C   UNL     1       6.029   3.657  13.700  0.00  0.00    +0.000 C 
ATOM     24  C   UNL     1       7.123   4.721  13.895  0.00  0.00    +0.000 C 
ATOM     25  N   UNL     1       6.241   5.455  14.829  0.00  0.00    +0.000 NA
ATOM     26  C   UNL     1       5.076   4.754  14.228  0.00  0.00    +0.000 C 
BRANCH  23  28
ATOM     27  O   UNL     1       4.795   3.239  11.610  0.00  0.00    +0.000 OA
ATOM     28  C   UNL     1       5.814   3.111  12.281  0.00  0.00    +0.000 C 
BRANCH  28  29
ATOM     29  O   UNL     1       6.874   2.413  11.794  0.00  0.00    +0.000 OA
ATOM     30  H   UNL     1       7.028   2.544  10.838  0.00  0.00    +0.000 HD
ENDBRANCH  28  29
ENDBRANCH  23  28
ENDBRANCH  22  25
ENDBRANCH   1  22
TORSDOF 7
ENDMDL
