MODEL 1
REMARK VINA RESULT:      -7.1      0.000      0.000
REMARK  Name = 
REMARK  8 active torsions:
REMARK  status: ('A' for Active; 'I' for Inactive)
REMARK    1  A    between atoms: C_1  and  C_2
REMARK    2  A    between atoms: C_2  and  C_3
REMARK    3  A    between atoms: C_3  and  C_4
REMARK    4  A    between atoms: C_3  and  S_6
REMARK    5  A    between atoms: C_4  and  C_5
REMARK    6  A    between atoms: S_6  and  N_9
REMARK    7  A    between atoms: C_10  and  C_12
REMARK    8  A    between atoms: N_20  and  C_21
REMARK                            x       y       z     vdW  Elec       q    Type
REMARK                         _______ _______ _______ _____ _____    ______ ____
ROOT
ATOM      1  N   UNL     1       4.231   6.226  18.538  0.00  0.00    +0.000 N 
ATOM      2  C   UNL     1       3.122   6.214  19.399  0.00  0.00    +0.000 C 
ATOM      3  O   UNL     1       2.807   5.265  20.103  0.00  0.00    +0.000 OA
ATOM      4  H   UNL     1       4.567   7.103  18.145  0.00  0.00    +0.000 HD
ENDROOT
BRANCH   2   5
ATOM      5  C   UNL     1       2.269   7.430  19.372  0.00  0.00    +0.000 A 
ATOM      6  C   UNL     1       2.161   8.153  18.171  0.00  0.00    +0.000 A 
ATOM      7  C   UNL     1       1.411   9.337  18.092  0.00  0.00    +0.000 A 
ATOM      8  C   UNL     1       0.793   9.768  19.271  0.00  0.00    +0.000 A 
ATOM      9  C   UNL     1       0.890   9.069  20.472  0.00  0.00    +0.000 A 
ATOM     10  C   UNL     1       1.626   7.878  20.534  0.00  0.00    +0.000 A 
ATOM     11  N   UNL     1       0.209   9.711  21.474  0.00  0.00    +0.000 NA
ATOM     12  C   UNL     1      -0.304  10.781  20.911  0.00  0.00    +0.000 A 
ATOM     13  N   UNL     1       0.017  10.857  19.586  0.00  0.00    +0.000 N 
ATOM     14  C   UNL     1      -0.398  11.903  18.684  0.00  0.00    +0.000 C 
ENDBRANCH   2   5
BRANCH   1  15
ATOM     15  S   UNL     1       5.375   5.019  18.427  0.00  0.00    +0.000 S 
ATOM     16  O   UNL     1       4.768   3.817  17.911  0.00  0.00    +0.000 OA
ATOM     17  O   UNL     1       6.011   5.011  19.732  0.00  0.00    +0.000 OA
BRANCH  15  18
ATOM     18  C   UNL     1       6.571   5.682  17.211  0.00  0.00    +0.000 C 
BRANCH  18  20
ATOM     19  C   UNL     1       7.726   7.976  17.578  0.00  0.00    +0.000 C 
ATOM     20  C   UNL     1       7.657   6.500  17.941  0.00  0.00    +0.000 C 
ENDBRANCH  18  20
BRANCH  18  21
ATOM     21  C   UNL     1       7.112   4.548  16.314  0.00  0.00    +0.000 C 
ATOM     22  C   UNL     1       6.925   4.752  14.816  0.00  0.00    +0.000 C 
ENDBRANCH  18  21
ENDBRANCH  15  18
ENDBRANCH   1  15
TORSDOF 5
ENDMDL
MODEL 2
REMARK VINA RESULT:      -7.1      0.668      1.727
REMARK  Name = 
REMARK  8 active torsions:
REMARK  status: ('A' for Active; 'I' for Inactive)
REMARK    1  A    between atoms: C_1  and  C_2
REMARK    2  A    between atoms: C_2  and  C_3
REMARK    3  A    between atoms: C_3  and  C_4
REMARK    4  A    between atoms: C_3  and  S_6
REMARK    5  A    between atoms: C_4  and  C_5
REMARK    6  A    between atoms: S_6  and  N_9
REMARK    7  A    between atoms: C_10  and  C_12
REMARK    8  A    between atoms: N_20  and  C_21
REMARK                            x       y       z     vdW  Elec       q    Type
REMARK                         _______ _______ _______ _____ _____    ______ ____
ROOT
ATOM      1  N   UNL     1       4.081   5.690  18.352  0.00  0.00    +0.000 N 
ATOM      2  C   UNL     1       3.105   5.839  19.350  0.00  0.00    +0.000 C 
ATOM      3  O   UNL     1       2.807   4.970  20.158  0.00  0.00    +0.000 OA
ATOM      4  H   UNL     1       4.436   6.504  17.854  0.00  0.00    +0.000 HD
ENDROOT
BRANCH   2   5
ATOM      5  C   UNL     1       2.369   7.129  19.347  0.00  0.00    +0.000 A 
ATOM      6  C   UNL     1       2.333   7.883  18.161  0.00  0.00    +0.000 A 
ATOM      7  C   UNL     1       1.696   9.133  18.106  0.00  0.00    +0.000 A 
ATOM      8  C   UNL     1       1.115   9.595  19.291  0.00  0.00    +0.000 A 
ATOM      9  C   UNL     1       1.142   8.865  20.478  0.00  0.00    +0.000 A 
ATOM     10  C   UNL     1       1.764   7.610  20.516  0.00  0.00    +0.000 A 
ATOM     11  N   UNL     1       0.519   9.547  21.491  0.00  0.00    +0.000 NA
ATOM     12  C   UNL     1       0.109  10.670  20.950  0.00  0.00    +0.000 A 
ATOM     13  N   UNL     1       0.442  10.744  19.627  0.00  0.00    +0.000 N 
ATOM     14  C   UNL     1       0.129  11.842  18.747  0.00  0.00    +0.000 C 
ENDBRANCH   2   5
BRANCH   1  15
ATOM     15  S   UNL     1       5.086   4.372  18.180  0.00  0.00    +0.000 S 
ATOM     16  O   UNL     1       4.308   3.205  17.845  0.00  0.00    +0.000 OA
ATOM     17  O   UNL     1       5.898   4.384  19.383  0.00  0.00    +0.000 OA
BRANCH  15  18
ATOM     18  C   UNL     1       6.152   4.836  16.765  0.00  0.00    +0.000 C 
BRANCH  18  20
ATOM     19  C   UNL     1       6.502   4.350  14.241  0.00  0.00    +0.000 C 
ATOM     20  C   UNL     1       5.656   4.128  15.487  0.00  0.00    +0.000 C 
ENDBRANCH  18  20
BRANCH  18  21
ATOM     21  C   UNL     1       6.257   6.371  16.652  0.00  0.00    +0.000 C 
ATOM     22  C   UNL     1       7.391   7.010  17.444  0.00  0.00    +0.000 C 
ENDBRANCH  18  21
ENDBRANCH  15  18
ENDBRANCH   1  15
TORSDOF 5
ENDMDL
MODEL 3
REMARK VINA RESULT:      -7.0      2.415      3.698
REMARK  Name = 
REMARK  8 active torsions:
REMARK  status: ('A' for Active; 'I' for Inactive)
REMARK    1  A    between atoms: C_1  and  C_2
REMARK    2  A    between atoms: C_2  and  C_3
REMARK    3  A    between atoms: C_3  and  C_4
REMARK    4  A    between atoms: C_3  and  S_6
REMARK    5  A    between atoms: C_4  and  C_5
REMARK    6  A    between atoms: S_6  and  N_9
REMARK    7  A    between atoms: C_10  and  C_12
REMARK    8  A    between atoms: N_20  and  C_21
REMARK                            x       y       z     vdW  Elec       q    Type
REMARK                         _______ _______ _______ _____ _____    ______ ____
ROOT
ATOM      1  N   UNL     1       3.228   5.352  19.056  0.00  0.00    +0.000 N 
ATOM      2  C   UNL     1       3.400   6.548  18.341  0.00  0.00    +0.000 C 
ATOM      3  O   UNL     1       4.274   6.731  17.504  0.00  0.00    +0.000 OA
ATOM      4  H   UNL     1       2.367   5.181  19.572  0.00  0.00    +0.000 HD
ENDROOT
BRANCH   2   5
ATOM      5  C   UNL     1       2.478   7.655  18.700  0.00  0.00    +0.000 A 
ATOM      6  C   UNL     1       2.185   8.632  17.732  0.00  0.00    +0.000 A 
ATOM      7  C   UNL     1       1.361   9.730  18.024  0.00  0.00    +0.000 A 
ATOM      8  C   UNL     1       0.860   9.811  19.327  0.00  0.00    +0.000 A 
ATOM      9  C   UNL     1       1.140   8.855  20.302  0.00  0.00    +0.000 A 
ATOM     10  C   UNL     1       1.949   7.754  19.995  0.00  0.00    +0.000 A 
ATOM     11  N   UNL     1       0.543   9.177  21.495  0.00  0.00    +0.000 NA
ATOM     12  C   UNL     1      -0.097  10.300  21.268  0.00  0.00    +0.000 A 
ATOM     13  N   UNL     1       0.061  10.720  19.977  0.00  0.00    +0.000 N 
ATOM     14  C   UNL     1      -0.520  11.910  19.408  0.00  0.00    +0.000 C 
ENDBRANCH   2   5
BRANCH   1  15
ATOM     15  S   UNL     1       4.086   3.946  18.799  0.00  0.00    +0.000 S 
ATOM     16  O   UNL     1       5.424   4.089  19.318  0.00  0.00    +0.000 OA
ATOM     17  O   UNL     1       3.877   3.654  17.393  0.00  0.00    +0.000 OA
BRANCH  15  18
ATOM     18  C   UNL     1       3.167   2.706  19.784  0.00  0.00    +0.000 C 
BRANCH  18  20
ATOM     19  C   UNL     1       1.727   2.483  21.930  0.00  0.00    +0.000 C 
ATOM     20  C   UNL     1       2.435   3.406  20.948  0.00  0.00    +0.000 C 
ENDBRANCH  18  20
BRANCH  18  21
ATOM     21  C   UNL     1       2.259   1.858  18.869  0.00  0.00    +0.000 C 
ATOM     22  C   UNL     1       0.859   2.411  18.640  0.00  0.00    +0.000 C 
ENDBRANCH  18  21
ENDBRANCH  15  18
ENDBRANCH   1  15
TORSDOF 5
ENDMDL
MODEL 4
REMARK VINA RESULT:      -6.9      0.899      1.677
REMARK  Name = 
REMARK  8 active torsions:
REMARK  status: ('A' for Active; 'I' for Inactive)
REMARK    1  A    between atoms: C_1  and  C_2
REMARK    2  A    between atoms: C_2  and  C_3
REMARK    3  A    between atoms: C_3  and  C_4
REMARK    4  A    between atoms: C_3  and  S_6
REMARK    5  A    between atoms: C_4  and  C_5
REMARK    6  A    between atoms: S_6  and  N_9
REMARK    7  A    between atoms: C_10  and  C_12
REMARK    8  A    between atoms: N_20  and  C_21
REMARK                            x       y       z     vdW  Elec       q    Type
REMARK                         _______ _______ _______ _____ _____    ______ ____
ROOT
ATOM      1  N   UNL     1       4.043   5.718  18.465  0.00  0.00    +0.000 N 
ATOM      2  C   UNL     1       3.042   5.693  19.449  0.00  0.00    +0.000 C 
ATOM      3  O   UNL     1       2.708   4.692  20.067  0.00  0.00    +0.000 OA
ATOM      4  H   UNL     1       4.426   6.604  18.143  0.00  0.00    +0.000 HD
ENDROOT
BRANCH   2   5
ATOM      5  C   UNL     1       2.328   6.975  19.677  0.00  0.00    +0.000 A 
ATOM      6  C   UNL     1       1.666   7.172  20.902  0.00  0.00    +0.000 A 
ATOM      7  C   UNL     1       0.932   8.340  21.160  0.00  0.00    +0.000 A 
ATOM      8  C   UNL     1       0.880   9.289  20.134  0.00  0.00    +0.000 A 
ATOM      9  C   UNL     1       1.526   9.113  18.912  0.00  0.00    +0.000 A 
ATOM     10  C   UNL     1       2.271   7.951  18.672  0.00  0.00    +0.000 A 
ATOM     11  N   UNL     1       1.304  10.179  18.078  0.00  0.00    +0.000 NA
ATOM     12  C   UNL     1       0.543  11.001  18.763  0.00  0.00    +0.000 A 
ATOM     13  N   UNL     1       0.264  10.510  20.008  0.00  0.00    +0.000 N 
ATOM     14  C   UNL     1      -0.536  11.173  21.007  0.00  0.00    +0.000 C 
ENDBRANCH   2   5
BRANCH   1  15
ATOM     15  S   UNL     1       5.031   4.436  18.066  0.00  0.00    +0.000 S 
ATOM     16  O   UNL     1       4.252   3.395  17.444  0.00  0.00    +0.000 OA
ATOM     17  O   UNL     1       5.769   4.162  19.286  0.00  0.00    +0.000 OA
BRANCH  15  18
ATOM     18  C   UNL     1       6.189   5.159  16.847  0.00  0.00    +0.000 C 
BRANCH  18  20
ATOM     19  C   UNL     1       7.496   7.295  17.528  0.00  0.00    +0.000 C 
ATOM     20  C   UNL     1       7.398   5.777  17.580  0.00  0.00    +0.000 C 
ENDBRANCH  18  20
BRANCH  18  21
ATOM     21  C   UNL     1       6.553   4.118  15.767  0.00  0.00    +0.000 C 
ATOM     22  C   UNL     1       5.896   4.327  14.409  0.00  0.00    +0.000 C 
ENDBRANCH  18  21
ENDBRANCH  15  18
ENDBRANCH   1  15
TORSDOF 5
ENDMDL
MODEL 5
REMARK VINA RESULT:      -6.9      0.904      2.346
REMARK  Name = 
REMARK  8 active torsions:
REMARK  status: ('A' for Active; 'I' for Inactive)
REMARK    1  A    between atoms: C_1  and  C_2
REMARK    2  A    between atoms: C_2  and  C_3
REMARK    3  A    between atoms: C_3  and  C_4
REMARK    4  A    between atoms: C_3  and  S_6
REMARK    5  A    between atoms: C_4  and  C_5
REMARK    6  A    between atoms: S_6  and  N_9
REMARK    7  A    between atoms: C_10  and  C_12
REMARK    8  A    between atoms: N_20  and  C_21
REMARK                            x       y       z     vdW  Elec       q    Type
REMARK                         _______ _______ _______ _____ _____    ______ ____
ROOT
ATOM      1  N   UNL     1       3.994   5.855  18.452  0.00  0.00    +0.000 N 
ATOM      2  C   UNL     1       3.035   5.812  19.476  0.00  0.00    +0.000 C 
ATOM      3  O   UNL     1       2.760   4.810  20.121  0.00  0.00    +0.000 OA
ATOM      4  H   UNL     1       4.333   6.748  18.102  0.00  0.00    +0.000 HD
ENDROOT
BRANCH   2   5
ATOM      5  C   UNL     1       2.288   7.074  19.715  0.00  0.00    +0.000 A 
ATOM      6  C   UNL     1       1.610   7.237  20.936  0.00  0.00    +0.000 A 
ATOM      7  C   UNL     1       0.847   8.383  21.204  0.00  0.00    +0.000 A 
ATOM      8  C   UNL     1       0.781   9.345  20.191  0.00  0.00    +0.000 A 
ATOM      9  C   UNL     1       1.443   9.202  18.973  0.00  0.00    +0.000 A 
ATOM     10  C   UNL     1       2.217   8.062  18.724  0.00  0.00    +0.000 A 
ATOM     11  N   UNL     1       1.202  10.274  18.151  0.00  0.00    +0.000 NA
ATOM     12  C   UNL     1       0.416  11.068  18.841  0.00  0.00    +0.000 A 
ATOM     13  N   UNL     1       0.137  10.553  20.076  0.00  0.00    +0.000 N 
ATOM     14  C   UNL     1      -0.688  11.183  21.076  0.00  0.00    +0.000 C 
ENDBRANCH   2   5
BRANCH   1  15
ATOM     15  S   UNL     1       5.008   4.600  18.031  0.00  0.00    +0.000 S 
ATOM     16  O   UNL     1       4.238   3.520  17.465  0.00  0.00    +0.000 OA
ATOM     17  O   UNL     1       5.810   4.377  19.220  0.00  0.00    +0.000 OA
BRANCH  15  18
ATOM     18  C   UNL     1       6.081   5.338  16.745  0.00  0.00    +0.000 C 
BRANCH  18  20
ATOM     19  C   UNL     1       6.356   3.990  14.546  0.00  0.00    +0.000 C 
ATOM     20  C   UNL     1       5.533   4.989  15.346  0.00  0.00    +0.000 C 
ENDBRANCH  18  20
BRANCH  18  21
ATOM     21  C   UNL     1       6.271   6.847  17.005  0.00  0.00    +0.000 C 
ATOM     22  C   UNL     1       7.599   7.241  17.639  0.00  0.00    +0.000 C 
ENDBRANCH  18  21
ENDBRANCH  15  18
ENDBRANCH   1  15
TORSDOF 5
ENDMDL
MODEL 6
REMARK VINA RESULT:      -6.8      1.170      2.252
REMARK  Name = 
REMARK  8 active torsions:
REMARK  status: ('A' for Active; 'I' for Inactive)
REMARK    1  A    between atoms: C_1  and  C_2
REMARK    2  A    between atoms: C_2  and  C_3
REMARK    3  A    between atoms: C_3  and  C_4
REMARK    4  A    between atoms: C_3  and  S_6
REMARK    5  A    between atoms: C_4  and  C_5
REMARK    6  A    between atoms: S_6  and  N_9
REMARK    7  A    between atoms: C_10  and  C_12
REMARK    8  A    between atoms: N_20  and  C_21
REMARK                            x       y       z     vdW  Elec       q    Type
REMARK                         _______ _______ _______ _____ _____    ______ ____
ROOT
ATOM      1  N   UNL     1       4.108   5.415  18.570  0.00  0.00    +0.000 N 
ATOM      2  C   UNL     1       2.919   5.428  19.317  0.00  0.00    +0.000 C 
ATOM      3  O   UNL     1       2.340   4.424  19.709  0.00  0.00    +0.000 OA
ATOM      4  H   UNL     1       4.654   6.267  18.459  0.00  0.00    +0.000 HD
ENDROOT
BRANCH   2   5
ATOM      5  C   UNL     1       2.329   6.768  19.570  0.00  0.00    +0.000 A 
ATOM      6  C   UNL     1       1.694   7.005  20.802  0.00  0.00    +0.000 A 
ATOM      7  C   UNL     1       1.075   8.232  21.084  0.00  0.00    +0.000 A 
ATOM      8  C   UNL     1       1.106   9.199  20.073  0.00  0.00    +0.000 A 
ATOM      9  C   UNL     1       1.727   8.983  18.844  0.00  0.00    +0.000 A 
ATOM     10  C   UNL     1       2.358   7.761  18.581  0.00  0.00    +0.000 A 
ATOM     11  N   UNL     1       1.601  10.079  18.028  0.00  0.00    +0.000 NA
ATOM     12  C   UNL     1       0.924  10.956  18.732  0.00  0.00    +0.000 A 
ATOM     13  N   UNL     1       0.606  10.474  19.970  0.00  0.00    +0.000 N 
ATOM     14  C   UNL     1      -0.123  11.193  20.985  0.00  0.00    +0.000 C 
ENDBRANCH   2   5
BRANCH   1  15
ATOM     15  S   UNL     1       5.000   4.055  18.208  0.00  0.00    +0.000 S 
ATOM     16  O   UNL     1       4.219   3.164  17.386  0.00  0.00    +0.000 OA
ATOM     17  O   UNL     1       5.503   3.606  19.493  0.00  0.00    +0.000 OA
BRANCH  15  18
ATOM     18  C   UNL     1       6.407   4.719  17.242  0.00  0.00    +0.000 C 
BRANCH  18  20
ATOM     19  C   UNL     1       5.322   5.834  15.166  0.00  0.00    +0.000 C 
ATOM     20  C   UNL     1       5.979   6.017  16.526  0.00  0.00    +0.000 C 
ENDBRANCH  18  20
BRANCH  18  21
ATOM     21  C   UNL     1       7.656   4.857  18.137  0.00  0.00    +0.000 C 
ATOM     22  C   UNL     1       7.824   6.207  18.823  0.00  0.00    +0.000 C 
ENDBRANCH  18  21
ENDBRANCH  15  18
ENDBRANCH   1  15
TORSDOF 5
ENDMDL
MODEL 7
REMARK VINA RESULT:      -6.8      1.022      1.032
REMARK  Name = 
REMARK  8 active torsions:
REMARK  status: ('A' for Active; 'I' for Inactive)
REMARK    1  A    between atoms: C_1  and  C_2
REMARK    2  A    between atoms: C_2  and  C_3
REMARK    3  A    between atoms: C_3  and  C_4
REMARK    4  A    between atoms: C_3  and  S_6
REMARK    5  A    between atoms: C_4  and  C_5
REMARK    6  A    between atoms: S_6  and  N_9
REMARK    7  A    between atoms: C_10  and  C_12
REMARK    8  A    between atoms: N_20  and  C_21
REMARK                            x       y       z     vdW  Elec       q    Type
REMARK                         _______ _______ _______ _____ _____    ______ ____
ROOT
ATOM      1  N   UNL     1       4.309   6.024  19.156  0.00  0.00    +0.000 N 
ATOM      2  C   UNL     1       3.052   6.201  18.557  0.00  0.00    +0.000 C 
ATOM      3  O   UNL     1       2.612   5.498  17.658  0.00  0.00    +0.000 OA
ATOM      4  H   UNL     1       4.532   6.493  20.032  0.00  0.00    +0.000 HD
ENDROOT
BRANCH   2   5
ATOM      5  C   UNL     1       2.266   7.367  19.035  0.00  0.00    +0.000 A 
ATOM      6  C   UNL     1       1.955   8.392  18.123  0.00  0.00    +0.000 A 
ATOM      7  C   UNL     1       1.258   9.543  18.522  0.00  0.00    +0.000 A 
ATOM      8  C   UNL     1       0.905   9.626  19.873  0.00  0.00    +0.000 A 
ATOM      9  C   UNL     1       1.206   8.624  20.794  0.00  0.00    +0.000 A 
ATOM     10  C   UNL     1       1.885   7.471  20.380  0.00  0.00    +0.000 A 
ATOM     11  N   UNL     1       0.766   8.958  22.049  0.00  0.00    +0.000 NA
ATOM     12  C   UNL     1       0.200  10.135  21.914  0.00  0.00    +0.000 A 
ATOM     13  N   UNL     1       0.256  10.577  20.622  0.00  0.00    +0.000 N 
ATOM     14  C   UNL     1      -0.283  11.825  20.142  0.00  0.00    +0.000 C 
ENDBRANCH   2   5
BRANCH   1  15
ATOM     15  S   UNL     1       5.352   4.762  18.847  0.00  0.00    +0.000 S 
ATOM     16  O   UNL     1       4.627   3.515  18.858  0.00  0.00    +0.000 OA
ATOM     17  O   UNL     1       6.450   4.973  19.772  0.00  0.00    +0.000 OA
BRANCH  15  18
ATOM     18  C   UNL     1       5.953   5.116  17.154  0.00  0.00    +0.000 C 
BRANCH  18  20
ATOM     19  C   UNL     1       7.462   7.211  17.412  0.00  0.00    +0.000 C 
ATOM     20  C   UNL     1       7.378   5.703  17.221  0.00  0.00    +0.000 C 
ENDBRANCH  18  20
BRANCH  18  21
ATOM     21  C   UNL     1       5.812   3.867  16.260  0.00  0.00    +0.000 C 
ATOM     22  C   UNL     1       6.057   4.094  14.774  0.00  0.00    +0.000 C 
ENDBRANCH  18  21
ENDBRANCH  15  18
ENDBRANCH   1  15
TORSDOF 5
ENDMDL
MODEL 8
REMARK VINA RESULT:      -6.7      2.915      3.744
REMARK  Name = 
REMARK  8 active torsions:
REMARK  status: ('A' for Active; 'I' for Inactive)
REMARK    1  A    between atoms: C_1  and  C_2
REMARK    2  A    between atoms: C_2  and  C_3
REMARK    3  A    between atoms: C_3  and  C_4
REMARK    4  A    between atoms: C_3  and  S_6
REMARK    5  A    between atoms: C_4  and  C_5
REMARK    6  A    between atoms: S_6  and  N_9
REMARK    7  A    between atoms: C_10  and  C_12
REMARK    8  A    between atoms: N_20  and  C_21
REMARK                            x       y       z     vdW  Elec       q    Type
REMARK                         _______ _______ _______ _____ _____    ______ ____
ROOT
ATOM      1  N   UNL     1       2.832   6.385  19.726  0.00  0.00    +0.000 N 
ATOM      2  C   UNL     1       2.474   7.554  19.036  0.00  0.00    +0.000 C 
ATOM      3  O   UNL     1       2.916   7.870  17.940  0.00  0.00    +0.000 OA
ATOM      4  H   UNL     1       2.281   6.068  20.521  0.00  0.00    +0.000 HD
ENDROOT
BRANCH   2   5
ATOM      5  C   UNL     1       1.545   8.467  19.750  0.00  0.00    +0.000 A 
ATOM      6  C   UNL     1       1.032   9.582  19.063  0.00  0.00    +0.000 A 
ATOM      7  C   UNL     1       0.189  10.509  19.694  0.00  0.00    +0.000 A 
ATOM      8  C   UNL     1      -0.102  10.277  21.043  0.00  0.00    +0.000 A 
ATOM      9  C   UNL     1       0.398   9.181  21.743  0.00  0.00    +0.000 A 
ATOM     10  C   UNL     1       1.224   8.252  21.097  0.00  0.00    +0.000 A 
ATOM     11  N   UNL     1      -0.021   9.196  23.049  0.00  0.00    +0.000 NA
ATOM     12  C   UNL     1      -0.768  10.270  23.159  0.00  0.00    +0.000 A 
ATOM     13  N   UNL     1      -0.848  10.952  21.977  0.00  0.00    +0.000 N 
ATOM     14  C   UNL     1      -1.597  12.165  21.762  0.00  0.00    +0.000 C 
ENDBRANCH   2   5
BRANCH   1  15
ATOM     15  S   UNL     1       3.803   5.172  19.123  0.00  0.00    +0.000 S 
ATOM     16  O   UNL     1       5.189   5.496  19.353  0.00  0.00    +0.000 OA
ATOM     17  O   UNL     1       3.318   4.968  17.770  0.00  0.00    +0.000 OA
BRANCH  15  18
ATOM     18  C   UNL     1       3.330   3.715  20.125  0.00  0.00    +0.000 C 
BRANCH  18  20
ATOM     19  C   UNL     1       1.199   2.832  21.314  0.00  0.00    +0.000 C 
ATOM     20  C   UNL     1       1.796   3.550  20.111  0.00  0.00    +0.000 C 
ENDBRANCH  18  20
BRANCH  18  21
ATOM     21  C   UNL     1       4.117   2.469  19.669  0.00  0.00    +0.000 C 
ATOM     22  C   UNL     1       3.446   1.631  18.588  0.00  0.00    +0.000 C 
ENDBRANCH  18  21
ENDBRANCH  15  18
ENDBRANCH   1  15
TORSDOF 5
ENDMDL
MODEL 9
REMARK VINA RESULT:      -6.6      1.590      2.180
REMARK  Name = 
REMARK  8 active torsions:
REMARK  status: ('A' for Active; 'I' for Inactive)
REMARK    1  A    between atoms: C_1  and  C_2
REMARK    2  A    between atoms: C_2  and  C_3
REMARK    3  A    between atoms: C_3  and  C_4
REMARK    4  A    between atoms: C_3  and  S_6
REMARK    5  A    between atoms: C_4  and  C_5
REMARK    6  A    between atoms: S_6  and  N_9
REMARK    7  A    between atoms: C_10  and  C_12
REMARK    8  A    between atoms: N_20  and  C_21
REMARK                            x       y       z     vdW  Elec       q    Type
REMARK                         _______ _______ _______ _____ _____    ______ ____
ROOT
ATOM      1  N   UNL     1       4.345   6.113  18.377  0.00  0.00    +0.000 N 
ATOM      2  C   UNL     1       3.314   6.118  19.330  0.00  0.00    +0.000 C 
ATOM      3  O   UNL     1       3.091   5.201  20.109  0.00  0.00    +0.000 OA
ATOM      4  H   UNL     1       4.618   6.976  17.911  0.00  0.00    +0.000 HD
ENDROOT
BRANCH   2   5
ATOM      5  C   UNL     1       2.424   7.307  19.314  0.00  0.00    +0.000 A 
ATOM      6  C   UNL     1       2.306   8.047  18.124  0.00  0.00    +0.000 A 
ATOM      7  C   UNL     1       1.521   9.208  18.056  0.00  0.00    +0.000 A 
ATOM      8  C   UNL     1       0.876   9.600  19.234  0.00  0.00    +0.000 A 
ATOM      9  C   UNL     1       0.982   8.884  20.425  0.00  0.00    +0.000 A 
ATOM     10  C   UNL     1       1.754   7.716  20.475  0.00  0.00    +0.000 A 
ATOM     11  N   UNL     1       0.270   9.488  21.430  0.00  0.00    +0.000 NA
ATOM     12  C   UNL     1      -0.270  10.550  20.878  0.00  0.00    +0.000 A 
ATOM     13  N   UNL     1       0.063  10.659  19.558  0.00  0.00    +0.000 N 
ATOM     14  C   UNL     1      -0.375  11.705  18.669  0.00  0.00    +0.000 C 
ENDBRANCH   2   5
BRANCH   1  15
ATOM     15  S   UNL     1       5.513   4.933  18.231  0.00  0.00    +0.000 S 
ATOM     16  O   UNL     1       5.540   4.123  19.423  0.00  0.00    +0.000 OA
ATOM     17  O   UNL     1       6.701   5.658  17.817  0.00  0.00    +0.000 OA
BRANCH  15  18
ATOM     18  C   UNL     1       4.928   3.935  16.813  0.00  0.00    +0.000 C 
BRANCH  18  20
ATOM     19  C   UNL     1       3.183   2.307  17.832  0.00  0.00    +0.000 C 
ATOM     20  C   UNL     1       3.444   3.564  17.015  0.00  0.00    +0.000 C 
ENDBRANCH  18  20
BRANCH  18  21
ATOM     21  C   UNL     1       5.238   4.655  15.484  0.00  0.00    +0.000 C 
ATOM     22  C   UNL     1       6.150   3.898  14.527  0.00  0.00    +0.000 C 
ENDBRANCH  18  21
ENDBRANCH  15  18
ENDBRANCH   1  15
TORSDOF 5
ENDMDL
