MODEL 1
REMARK VINA RESULT:      -7.7      0.000      0.000
REMARK  Name = 
REMARK  6 active torsions:
REMARK  status: ('A' for Active; 'I' for Inactive)
REMARK    1  A    between atoms: C_2  and  O_3
REMARK    2  A    between atoms: C_2  and  C_4
REMARK    3  A    between atoms: C_10  and  S_11
REMARK    4  A    between atoms: S_11  and  C_12
REMARK    5  A    between atoms: CA_18  and  C_19
REMARK    6  A    between atoms: C_19  and  OXT_21
REMARK                            x       y       z     vdW  Elec       q    Type
REMARK                         _______ _______ _______ _____ _____    ______ ____
ROOT
ATOM      1  C   UNL     1       2.462   6.422  19.507  0.00  0.00    +0.000 C 
ATOM      2  C   UNL     1       1.592   5.277  18.940  0.00  0.00    +0.000 C 
ATOM      3  C   UNL     1       2.196   3.892  19.315  0.00  0.00    +0.000 C 
ATOM      4  C   UNL     1       3.656   3.729  18.817  0.00  0.00    +0.000 C 
ATOM      5  C   UNL     1       3.755   3.668  17.268  0.00  0.00    +0.000 C 
ATOM      6  N   UNL     1       5.148   3.656  16.784  0.00  0.00    +0.000 NA
ATOM      7  CA  UNL     1       6.004   4.723  17.343  0.00  0.00    +0.000 C 
ATOM      8  C   UNL     1       5.954   4.706  18.880  0.00  0.00    +0.000 C 
ATOM      9  C   UNL     1       4.511   4.871  19.390  0.00  0.00    +0.000 C 
ATOM     10  C   UNL     1       3.911   6.244  19.022  0.00  0.00    +0.000 C 
ATOM     11  H   UNL     1       5.119   3.778  15.742  0.00  0.00    +0.000 HD
ENDROOT
BRANCH   7  12
ATOM     12  C   UNL     1       7.419   4.509  16.869  0.00  0.00    +0.000 C 
ATOM     13  O   UNL     1       7.724   4.773  15.715  0.00  0.00    +0.000 OA
BRANCH  12  14
ATOM     14  OXT UNL     1       8.352   4.000  17.700  0.00  0.00    +0.000 OA
ATOM     15  HXT UNL     1       8.476   4.352  18.593  0.00  0.00    +0.000 HD
ENDBRANCH  12  14
ENDBRANCH   7  12
BRANCH   1  16
ATOM     16  S   UNL     1       2.024   8.111  18.904  0.00  0.00    +0.000 S 
BRANCH  16  23
ATOM     17  C   UNL     1       0.069   9.968  19.790  0.00  0.00    +0.000 A 
ATOM     18  C   UNL     1      -0.621  10.608  20.845  0.00  0.00    +0.000 A 
ATOM     19  C   UNL     1      -0.469  10.196  22.171  0.00  0.00    +0.000 A 
ATOM     20 CL   UNL     1      -1.314  11.047  23.459  0.00  0.00    +0.000 Cl
ATOM     21  C   UNL     1       0.366   9.132  22.478  0.00  0.00    +0.000 A 
ATOM     22  C   UNL     1       1.065   8.474  21.464  0.00  0.00    +0.000 A 
ATOM     23  C   UNL     1       0.936   8.873  20.125  0.00  0.00    +0.000 A 
BRANCH  17  25
ATOM     24  O   UNL     1      -0.711   9.831  17.564  0.00  0.00    +0.000 OA
ATOM     25  C   UNL     1      -0.087  10.475  18.380  0.00  0.00    +0.000 C 
BRANCH  25  26
ATOM     26  O   UNL     1       0.439  11.653  17.974  0.00  0.00    +0.000 OA
ATOM     27  H   UNL     1      -0.054  12.411  17.639  0.00  0.00    +0.000 HD
ENDBRANCH  25  26
ENDBRANCH  17  25
ENDBRANCH  16  23
ENDBRANCH   1  16
TORSDOF 6
ENDMDL
MODEL 2
REMARK VINA RESULT:      -7.5      2.763      3.650
REMARK  Name = 
REMARK  6 active torsions:
REMARK  status: ('A' for Active; 'I' for Inactive)
REMARK    1  A    between atoms: C_2  and  O_3
REMARK    2  A    between atoms: C_2  and  C_4
REMARK    3  A    between atoms: C_10  and  S_11
REMARK    4  A    between atoms: S_11  and  C_12
REMARK    5  A    between atoms: CA_18  and  C_19
REMARK    6  A    between atoms: C_19  and  OXT_21
REMARK                            x       y       z     vdW  Elec       q    Type
REMARK                         _______ _______ _______ _____ _____    ______ ____
ROOT
ATOM      1  C   UNL     1       2.196   7.025  18.826  0.00  0.00    +0.000 C 
ATOM      2  C   UNL     1       3.492   7.657  18.267  0.00  0.00    +0.000 C 
ATOM      3  C   UNL     1       4.000   6.861  17.030  0.00  0.00    +0.000 C 
ATOM      4  C   UNL     1       4.252   5.364  17.352  0.00  0.00    +0.000 C 
ATOM      5  C   UNL     1       5.441   5.156  18.330  0.00  0.00    +0.000 C 
ATOM      6  N   UNL     1       5.596   3.751  18.751  0.00  0.00    +0.000 NA
ATOM      7  CA  UNL     1       4.360   3.119  19.256  0.00  0.00    +0.000 C 
ATOM      8  C   UNL     1       3.221   3.266  18.232  0.00  0.00    +0.000 C 
ATOM      9  C   UNL     1       2.957   4.746  17.905  0.00  0.00    +0.000 C 
ATOM     10  C   UNL     1       2.449   5.537  19.129  0.00  0.00    +0.000 C 
ATOM     11  H   UNL     1       6.307   3.732  19.523  0.00  0.00    +0.000 HD
ENDROOT
BRANCH   7  12
ATOM     12  C   UNL     1       4.633   1.661  19.521  0.00  0.00    +0.000 C 
ATOM     13  O   UNL     1       5.188   1.319  20.555  0.00  0.00    +0.000 OA
BRANCH  12  14
ATOM     14  OXT UNL     1       4.294   0.722  18.613  0.00  0.00    +0.000 OA
ATOM     15  HXT UNL     1       4.238   0.932  17.669  0.00  0.00    +0.000 HD
ENDBRANCH  12  14
ENDBRANCH   7  12
BRANCH   1  16
ATOM     16  S   UNL     1       1.638   7.692  20.454  0.00  0.00    +0.000 S 
BRANCH  16  23
ATOM     17  C   UNL     1       0.233  10.039  21.211  0.00  0.00    +0.000 A 
ATOM     18  C   UNL     1      -0.449  11.225  20.855  0.00  0.00    +0.000 A 
ATOM     19  C   UNL     1      -0.470  11.686  19.537  0.00  0.00    +0.000 A 
ATOM     20 CL   UNL     1      -1.366  13.144  19.127  0.00  0.00    +0.000 Cl
ATOM     21  C   UNL     1       0.195  10.982  18.543  0.00  0.00    +0.000 A 
ATOM     22  C   UNL     1       0.880   9.806  18.854  0.00  0.00    +0.000 A 
ATOM     23  C   UNL     1       0.909   9.318  20.170  0.00  0.00    +0.000 A 
BRANCH  17  25
ATOM     24  O   UNL     1       1.151   9.699  23.362  0.00  0.00    +0.000 OA
ATOM     25  C   UNL     1       0.191   9.553  22.637  0.00  0.00    +0.000 C 
BRANCH  25  26
ATOM     26  O   UNL     1      -0.904   8.958  23.164  0.00  0.00    +0.000 OA
ATOM     27  H   UNL     1      -1.579   9.386  23.702  0.00  0.00    +0.000 HD
ENDBRANCH  25  26
ENDBRANCH  17  25
ENDBRANCH  16  23
ENDBRANCH   1  16
TORSDOF 6
ENDMDL
MODEL 3
REMARK VINA RESULT:      -7.3      0.971      1.188
REMARK  Name = 
REMARK  6 active torsions:
REMARK  status: ('A' for Active; 'I' for Inactive)
REMARK    1  A    between atoms: C_2  and  O_3
REMARK    2  A    between atoms: C_2  and  C_4
REMARK    3  A    between atoms: C_10  and  S_11
REMARK    4  A    between atoms: S_11  and  C_12
REMARK    5  A    between atoms: CA_18  and  C_19
REMARK    6  A    between atoms: C_19  and  OXT_21
REMARK                            x       y       z     vdW  Elec       q    Type
REMARK                         _______ _______ _______ _____ _____    ______ ____
ROOT
ATOM      1  C   UNL     1       3.030   6.816  19.171  0.00  0.00    +0.000 C 
ATOM      2  C   UNL     1       2.202   5.515  19.282  0.00  0.00    +0.000 C 
ATOM      3  C   UNL     1       3.126   4.300  19.585  0.00  0.00    +0.000 C 
ATOM      4  C   UNL     1       4.234   4.119  18.514  0.00  0.00    +0.000 C 
ATOM      5  C   UNL     1       3.664   3.700  17.131  0.00  0.00    +0.000 C 
ATOM      6  N   UNL     1       4.693   3.664  16.076  0.00  0.00    +0.000 NA
ATOM      7  CA  UNL     1       5.518   4.885  15.977  0.00  0.00    +0.000 C 
ATOM      8  C   UNL     1       6.139   5.229  17.342  0.00  0.00    +0.000 C 
ATOM      9  C   UNL     1       5.052   5.417  18.414  0.00  0.00    +0.000 C 
ATOM     10  C   UNL     1       4.135   6.622  18.118  0.00  0.00    +0.000 C 
ATOM     11  H   UNL     1       4.198   3.534  15.159  0.00  0.00    +0.000 HD
ENDROOT
BRANCH   7  12
ATOM     12  C   UNL     1       6.604   4.657  14.957  0.00  0.00    +0.000 C 
ATOM     13  O   UNL     1       7.562   5.414  14.903  0.00  0.00    +0.000 OA
BRANCH  12  14
ATOM     14  OXT UNL     1       6.517   3.638  14.077  0.00  0.00    +0.000 OA
ATOM     15  HXT UNL     1       6.542   2.716  14.372  0.00  0.00    +0.000 HD
ENDBRANCH  12  14
ENDBRANCH   7  12
BRANCH   1  16
ATOM     16  S   UNL     1       2.104   8.282  18.538  0.00  0.00    +0.000 S 
BRANCH  16  23
ATOM     17  C   UNL     1       0.085   9.934  19.657  0.00  0.00    +0.000 A 
ATOM     18  C   UNL     1      -0.576  10.461  20.790  0.00  0.00    +0.000 A 
ATOM     19  C   UNL     1      -0.305   9.990  22.076  0.00  0.00    +0.000 A 
ATOM     20 CL   UNL     1      -1.119  10.701  23.464  0.00  0.00    +0.000 Cl
ATOM     21  C   UNL     1       0.624   8.977  22.265  0.00  0.00    +0.000 A 
ATOM     22  C   UNL     1       1.299   8.430  21.172  0.00  0.00    +0.000 A 
ATOM     23  C   UNL     1       1.050   8.892  19.870  0.00  0.00    +0.000 A 
BRANCH  17  25
ATOM     24  O   UNL     1      -0.860   9.872  17.492  0.00  0.00    +0.000 OA
ATOM     25  C   UNL     1      -0.204  10.504  18.292  0.00  0.00    +0.000 C 
BRANCH  25  26
ATOM     26  O   UNL     1       0.235  11.725  17.913  0.00  0.00    +0.000 OA
ATOM     27  H   UNL     1       1.022  12.174  18.242  0.00  0.00    +0.000 HD
ENDBRANCH  25  26
ENDBRANCH  17  25
ENDBRANCH  16  23
ENDBRANCH   1  16
TORSDOF 6
ENDMDL
MODEL 4
REMARK VINA RESULT:      -7.1      2.711      3.576
REMARK  Name = 
REMARK  6 active torsions:
REMARK  status: ('A' for Active; 'I' for Inactive)
REMARK    1  A    between atoms: C_2  and  O_3
REMARK    2  A    between atoms: C_2  and  C_4
REMARK    3  A    between atoms: C_10  and  S_11
REMARK    4  A    between atoms: S_11  and  C_12
REMARK    5  A    between atoms: CA_18  and  C_19
REMARK    6  A    between atoms: C_19  and  OXT_21
REMARK                            x       y       z     vdW  Elec       q    Type
REMARK                         _______ _______ _______ _____ _____    ______ ____
ROOT
ATOM      1  C   UNL     1       2.442   7.188  18.534  0.00  0.00    +0.000 C 
ATOM      2  C   UNL     1       3.789   7.714  17.986  0.00  0.00    +0.000 C 
ATOM      3  C   UNL     1       4.253   6.867  16.766  0.00  0.00    +0.000 C 
ATOM      4  C   UNL     1       4.387   5.360  17.108  0.00  0.00    +0.000 C 
ATOM      5  C   UNL     1       5.545   5.076  18.105  0.00  0.00    +0.000 C 
ATOM      6  N   UNL     1       5.588   3.668  18.544  0.00  0.00    +0.000 NA
ATOM      7  CA  UNL     1       4.302   3.137  19.039  0.00  0.00    +0.000 C 
ATOM      8  C   UNL     1       3.190   3.356  17.998  0.00  0.00    +0.000 C 
ATOM      9  C   UNL     1       3.042   4.848  17.650  0.00  0.00    +0.000 C 
ATOM     10  C   UNL     1       2.580   5.690  18.857  0.00  0.00    +0.000 C 
ATOM     11  H   UNL     1       6.286   3.606  19.326  0.00  0.00    +0.000 HD
ENDROOT
BRANCH   7  12
ATOM     12  C   UNL     1       4.461   1.666  19.325  0.00  0.00    +0.000 C 
ATOM     13  O   UNL     1       3.813   0.846  18.691  0.00  0.00    +0.000 OA
BRANCH  12  14
ATOM     14  OXT UNL     1       5.294   1.241  20.297  0.00  0.00    +0.000 OA
ATOM     15  HXT UNL     1       6.140   1.681  20.462  0.00  0.00    +0.000 HD
ENDBRANCH  12  14
ENDBRANCH   7  12
BRANCH   1  16
ATOM     16  S   UNL     1       1.915   7.915  20.147  0.00  0.00    +0.000 S 
BRANCH  16  23
ATOM     17  C   UNL     1      -0.100   9.806  20.797  0.00  0.00    +0.000 A 
ATOM     18  C   UNL     1      -1.058  10.762  20.389  0.00  0.00    +0.000 A 
ATOM     19  C   UNL     1      -1.142  11.189  19.062  0.00  0.00    +0.000 A 
ATOM     20 CL   UNL     1      -2.376  12.350  18.587  0.00  0.00    +0.000 Cl
ATOM     21  C   UNL     1      -0.269  10.681  18.111  0.00  0.00    +0.000 A 
ATOM     22  C   UNL     1       0.691   9.734  18.474  0.00  0.00    +0.000 A 
ATOM     23  C   UNL     1       0.791   9.283  19.799  0.00  0.00    +0.000 A 
BRANCH  17  25
ATOM     24  O   UNL     1      -0.774   8.414  22.584  0.00  0.00    +0.000 OA
ATOM     25  C   UNL     1      -0.075   9.339  22.229  0.00  0.00    +0.000 C 
BRANCH  25  26
ATOM     26  O   UNL     1       0.723   9.910  23.160  0.00  0.00    +0.000 OA
ATOM     27  H   UNL     1       1.189   9.452  23.869  0.00  0.00    +0.000 HD
ENDBRANCH  25  26
ENDBRANCH  17  25
ENDBRANCH  16  23
ENDBRANCH   1  16
TORSDOF 6
ENDMDL
MODEL 5
REMARK VINA RESULT:      -7.0      3.887      8.353
REMARK  Name = 
REMARK  6 active torsions:
REMARK  status: ('A' for Active; 'I' for Inactive)
REMARK    1  A    between atoms: C_2  and  O_3
REMARK    2  A    between atoms: C_2  and  C_4
REMARK    3  A    between atoms: C_10  and  S_11
REMARK    4  A    between atoms: S_11  and  C_12
REMARK    5  A    between atoms: CA_18  and  C_19
REMARK    6  A    between atoms: C_19  and  OXT_21
REMARK                            x       y       z     vdW  Elec       q    Type
REMARK                         _______ _______ _______ _____ _____    ______ ____
ROOT
ATOM      1  C   UNL     1       1.242   9.310  18.957  0.00  0.00    +0.000 C 
ATOM      2  C   UNL     1       1.509  10.751  19.449  0.00  0.00    +0.000 C 
ATOM      3  C   UNL     1       0.242  11.340  20.136  0.00  0.00    +0.000 C 
ATOM      4  C   UNL     1      -0.994  11.333  19.199  0.00  0.00    +0.000 C 
ATOM      5  C   UNL     1      -0.842  12.312  18.002  0.00  0.00    +0.000 C 
ATOM      6  N   UNL     1      -1.949  12.208  17.033  0.00  0.00    +0.000 NA
ATOM      7  CA  UNL     1      -2.241  10.833  16.578  0.00  0.00    +0.000 C 
ATOM      8  C   UNL     1      -2.472   9.903  17.781  0.00  0.00    +0.000 C 
ATOM      9  C   UNL     1      -1.251   9.895  18.718  0.00  0.00    +0.000 C 
ATOM     10  C   UNL     1       0.006   9.310  18.042  0.00  0.00    +0.000 C 
ATOM     11  H   UNL     1      -1.683  12.777  16.192  0.00  0.00    +0.000 HD
ENDROOT
BRANCH   7  12
ATOM     12  C   UNL     1      -3.468  10.862  15.703  0.00  0.00    +0.000 C 
ATOM     13  O   UNL     1      -3.359  10.758  14.491  0.00  0.00    +0.000 OA
BRANCH  12  14
ATOM     14  OXT UNL     1      -4.693  11.030  16.243  0.00  0.00    +0.000 OA
ATOM     15  HXT UNL     1      -5.056  11.913  16.403  0.00  0.00    +0.000 HD
ENDBRANCH  12  14
ENDBRANCH   7  12
BRANCH   1  16
ATOM     16  S   UNL     1       2.559   8.594  17.880  0.00  0.00    +0.000 S 
BRANCH  16  23
ATOM     17  C   UNL     1       4.154   6.253  18.060  0.00  0.00    +0.000 A 
ATOM     18  C   UNL     1       4.354   4.943  18.554  0.00  0.00    +0.000 A 
ATOM     19  C   UNL     1       3.500   4.386  19.509  0.00  0.00    +0.000 A 
ATOM     20 CL   UNL     1       3.758   2.738  20.066  0.00  0.00    +0.000 Cl
ATOM     21  C   UNL     1       2.432   5.123  20.001  0.00  0.00    +0.000 A 
ATOM     22  C   UNL     1       2.201   6.420  19.539  0.00  0.00    +0.000 A 
ATOM     23  C   UNL     1       3.040   6.999  18.574  0.00  0.00    +0.000 A 
BRANCH  17  25
ATOM     24  O   UNL     1       4.784   6.685  15.824  0.00  0.00    +0.000 OA
ATOM     25  C   UNL     1       5.072   6.797  16.996  0.00  0.00    +0.000 C 
BRANCH  25  26
ATOM     26  O   UNL     1       6.227   7.434  17.297  0.00  0.00    +0.000 OA
ATOM     27  H   UNL     1       6.772   7.941  16.685  0.00  0.00    +0.000 HD
ENDBRANCH  25  26
ENDBRANCH  17  25
ENDBRANCH  16  23
ENDBRANCH   1  16
TORSDOF 6
ENDMDL
MODEL 6
REMARK VINA RESULT:      -7.0      0.720      1.130
REMARK  Name = 
REMARK  6 active torsions:
REMARK  status: ('A' for Active; 'I' for Inactive)
REMARK    1  A    between atoms: C_2  and  O_3
REMARK    2  A    between atoms: C_2  and  C_4
REMARK    3  A    between atoms: C_10  and  S_11
REMARK    4  A    between atoms: S_11  and  C_12
REMARK    5  A    between atoms: CA_18  and  C_19
REMARK    6  A    between atoms: C_19  and  OXT_21
REMARK                            x       y       z     vdW  Elec       q    Type
REMARK                         _______ _______ _______ _____ _____    ______ ____
ROOT
ATOM      1  C   UNL     1       2.131   6.493  18.991  0.00  0.00    +0.000 C 
ATOM      2  C   UNL     1       1.549   5.619  17.856  0.00  0.00    +0.000 C 
ATOM      3  C   UNL     1       1.919   4.123  18.071  0.00  0.00    +0.000 C 
ATOM      4  C   UNL     1       3.452   3.900  18.162  0.00  0.00    +0.000 C 
ATOM      5  C   UNL     1       4.176   4.179  16.816  0.00  0.00    +0.000 C 
ATOM      6  N   UNL     1       5.645   4.107  16.932  0.00  0.00    +0.000 NA
ATOM      7  CA  UNL     1       6.216   4.909  18.033  0.00  0.00    +0.000 C 
ATOM      8  C   UNL     1       5.540   4.552  19.368  0.00  0.00    +0.000 C 
ATOM      9  C   UNL     1       4.019   4.772  19.295  0.00  0.00    +0.000 C 
ATOM     10  C   UNL     1       3.648   6.255  19.085  0.00  0.00    +0.000 C 
ATOM     11  H   UNL     1       6.047   4.463  16.030  0.00  0.00    +0.000 HD
ENDROOT
BRANCH   7  12
ATOM     12  C   UNL     1       7.697   4.638  18.114  0.00  0.00    +0.000 C 
ATOM     13  O   UNL     1       8.331   4.993  19.096  0.00  0.00    +0.000 OA
BRANCH  12  14
ATOM     14  OXT UNL     1       8.340   4.028  17.097  0.00  0.00    +0.000 OA
ATOM     15  HXT UNL     1       9.253   4.257  16.870  0.00  0.00    +0.000 HD
ENDBRANCH  12  14
ENDBRANCH   7  12
BRANCH   1  16
ATOM     16  S   UNL     1       2.011   8.315  18.717  0.00  0.00    +0.000 S 
BRANCH  16  23
ATOM     17  C   UNL     1       0.151  10.192  19.752  0.00  0.00    +0.000 A 
ATOM     18  C   UNL     1      -0.551  10.742  20.849  0.00  0.00    +0.000 A 
ATOM     19  C   UNL     1      -0.510  10.147  22.113  0.00  0.00    +0.000 A 
ATOM     20 CL   UNL     1      -1.364  10.886  23.462  0.00  0.00    +0.000 Cl
ATOM     21  C   UNL     1       0.224   8.986  22.312  0.00  0.00    +0.000 A 
ATOM     22  C   UNL     1       0.931   8.413  21.253  0.00  0.00    +0.000 A 
ATOM     23  C   UNL     1       0.912   8.996  19.976  0.00  0.00    +0.000 A 
BRANCH  17  25
ATOM     24  O   UNL     1       0.732  11.923  18.252  0.00  0.00    +0.000 OA
ATOM     25  C   UNL     1       0.116  10.892  18.418  0.00  0.00    +0.000 C 
BRANCH  25  26
ATOM     26  O   UNL     1      -0.578  10.404  17.365  0.00  0.00    +0.000 OA
ATOM     27  H   UNL     1      -0.643   9.478  17.107  0.00  0.00    +0.000 HD
ENDBRANCH  25  26
ENDBRANCH  17  25
ENDBRANCH  16  23
ENDBRANCH   1  16
TORSDOF 6
ENDMDL
MODEL 7
REMARK VINA RESULT:      -6.9      5.037      8.340
REMARK  Name = 
REMARK  6 active torsions:
REMARK  status: ('A' for Active; 'I' for Inactive)
REMARK    1  A    between atoms: C_2  and  O_3
REMARK    2  A    between atoms: C_2  and  C_4
REMARK    3  A    between atoms: C_10  and  S_11
REMARK    4  A    between atoms: S_11  and  C_12
REMARK    5  A    between atoms: CA_18  and  C_19
REMARK    6  A    between atoms: C_19  and  OXT_21
REMARK                            x       y       z     vdW  Elec       q    Type
REMARK                         _______ _______ _______ _____ _____    ______ ____
ROOT
ATOM      1  C   UNL     1      -1.329  10.517  18.991  0.00  0.00    +0.000 C 
ATOM      2  C   UNL     1      -2.209  11.764  19.237  0.00  0.00    +0.000 C 
ATOM      3  C   UNL     1      -3.704  11.447  18.941  0.00  0.00    +0.000 C 
ATOM      4  C   UNL     1      -3.924  10.935  17.493  0.00  0.00    +0.000 C 
ATOM      5  C   UNL     1      -3.652  12.030  16.425  0.00  0.00    +0.000 C 
ATOM      6  N   UNL     1      -3.721  11.513  15.045  0.00  0.00    +0.000 NA
ATOM      7  CA  UNL     1      -2.912  10.302  14.800  0.00  0.00    +0.000 C 
ATOM      8  C   UNL     1      -3.263   9.203  15.819  0.00  0.00    +0.000 C 
ATOM      9  C   UNL     1      -3.045   9.695  17.261  0.00  0.00    +0.000 C 
ATOM     10  C   UNL     1      -1.564  10.007  17.559  0.00  0.00    +0.000 C 
ATOM     11  H   UNL     1      -3.368  12.271  14.409  0.00  0.00    +0.000 HD
ENDROOT
BRANCH   7  12
ATOM     12  C   UNL     1      -3.181   9.813  13.400  0.00  0.00    +0.000 C 
ATOM     13  O   UNL     1      -4.330   9.682  13.007  0.00  0.00    +0.000 OA
BRANCH  12  14
ATOM     14  OXT UNL     1      -2.161   9.491  12.577  0.00  0.00    +0.000 OA
ATOM     15  HXT UNL     1      -2.133   9.807  11.663  0.00  0.00    +0.000 HD
ENDBRANCH  12  14
ENDBRANCH   7  12
BRANCH   1  16
ATOM     16  S   UNL     1       0.491  10.823  19.031  0.00  0.00    +0.000 S 
BRANCH  16  23
ATOM     17  C   UNL     1       1.429   8.402  20.178  0.00  0.00    +0.000 A 
ATOM     18  C   UNL     1       2.241   7.247  20.104  0.00  0.00    +0.000 A 
ATOM     19  C   UNL     1       2.924   6.910  18.933  0.00  0.00    +0.000 A 
ATOM     20 CL   UNL     1       3.959   5.488  18.895  0.00  0.00    +0.000 Cl
ATOM     21  C   UNL     1       2.808   7.710  17.805  0.00  0.00    +0.000 A 
ATOM     22  C   UNL     1       2.015   8.859  17.838  0.00  0.00    +0.000 A 
ATOM     23  C   UNL     1       1.325   9.224  19.004  0.00  0.00    +0.000 A 
BRANCH  17  25
ATOM     24  O   UNL     1      -0.396   8.405  21.680  0.00  0.00    +0.000 OA
ATOM     25  C   UNL     1       0.747   8.753  21.475  0.00  0.00    +0.000 C 
BRANCH  25  26
ATOM     26  O   UNL     1       1.373   9.446  22.454  0.00  0.00    +0.000 OA
ATOM     27  H   UNL     1       1.100  10.298  22.811  0.00  0.00    +0.000 HD
ENDBRANCH  25  26
ENDBRANCH  17  25
ENDBRANCH  16  23
ENDBRANCH   1  16
TORSDOF 6
ENDMDL
MODEL 8
REMARK VINA RESULT:      -6.8      2.734      3.784
REMARK  Name = 
REMARK  6 active torsions:
REMARK  status: ('A' for Active; 'I' for Inactive)
REMARK    1  A    between atoms: C_2  and  O_3
REMARK    2  A    between atoms: C_2  and  C_4
REMARK    3  A    between atoms: C_10  and  S_11
REMARK    4  A    between atoms: S_11  and  C_12
REMARK    5  A    between atoms: CA_18  and  C_19
REMARK    6  A    between atoms: C_19  and  OXT_21
REMARK                            x       y       z     vdW  Elec       q    Type
REMARK                         _______ _______ _______ _____ _____    ______ ____
ROOT
ATOM      1  C   UNL     1       2.326   7.623  18.297  0.00  0.00    +0.000 C 
ATOM      2  C   UNL     1       3.679   7.986  17.644  0.00  0.00    +0.000 C 
ATOM      3  C   UNL     1       4.129   6.869  16.657  0.00  0.00    +0.000 C 
ATOM      4  C   UNL     1       4.241   5.483  17.345  0.00  0.00    +0.000 C 
ATOM      5  C   UNL     1       5.396   5.424  18.382  0.00  0.00    +0.000 C 
ATOM      6  N   UNL     1       5.420   4.158  19.140  0.00  0.00    +0.000 NA
ATOM      7  CA  UNL     1       4.126   3.777  19.743  0.00  0.00    +0.000 C 
ATOM      8  C   UNL     1       3.017   3.761  18.677  0.00  0.00    +0.000 C 
ATOM      9  C   UNL     1       2.890   5.132  17.989  0.00  0.00    +0.000 C 
ATOM     10  C   UNL     1       2.441   6.240  18.963  0.00  0.00    +0.000 C 
ATOM     11  H   UNL     1       6.118   4.271  19.916  0.00  0.00    +0.000 HD
ENDROOT
BRANCH   7  12
ATOM     12  C   UNL     1       4.264   2.412  20.367  0.00  0.00    +0.000 C 
ATOM     13  O   UNL     1       3.642   2.137  21.382  0.00  0.00    +0.000 OA
BRANCH  12  14
ATOM     14  OXT UNL     1       5.093   1.492  19.830  0.00  0.00    +0.000 OA
ATOM     15  HXT UNL     1       5.763   1.044  20.367  0.00  0.00    +0.000 HD
ENDBRANCH  12  14
ENDBRANCH   7  12
BRANCH   1  16
ATOM     16  S   UNL     1       1.811   8.716  19.692  0.00  0.00    +0.000 S 
BRANCH  16  23
ATOM     17  C   UNL     1      -0.154  10.748  19.951  0.00  0.00    +0.000 A 
ATOM     18  C   UNL     1      -1.340  11.368  19.496  0.00  0.00    +0.000 A 
ATOM     19  C   UNL     1      -1.938  11.000  18.289  0.00  0.00    +0.000 A 
ATOM     20 CL   UNL     1      -3.436  11.767  17.778  0.00  0.00    +0.000 Cl
ATOM     21  C   UNL     1      -1.364  10.011  17.502  0.00  0.00    +0.000 A 
ATOM     22  C   UNL     1      -0.193   9.374  17.917  0.00  0.00    +0.000 A 
ATOM     23  C   UNL     1       0.422   9.721  19.130  0.00  0.00    +0.000 A 
BRANCH  17  25
ATOM     24  O   UNL     1       1.164  12.106  21.367  0.00  0.00    +0.000 OA
ATOM     25  C   UNL     1       0.432  11.144  21.283  0.00  0.00    +0.000 C 
BRANCH  25  26
ATOM     26  O   UNL     1       0.160  10.464  22.420  0.00  0.00    +0.000 OA
ATOM     27  H   UNL     1       0.692  10.465  23.224  0.00  0.00    +0.000 HD
ENDBRANCH  25  26
ENDBRANCH  17  25
ENDBRANCH  16  23
ENDBRANCH   1  16
TORSDOF 6
ENDMDL
MODEL 9
REMARK VINA RESULT:      -6.8      3.857      8.331
REMARK  Name = 
REMARK  6 active torsions:
REMARK  status: ('A' for Active; 'I' for Inactive)
REMARK    1  A    between atoms: C_2  and  O_3
REMARK    2  A    between atoms: C_2  and  C_4
REMARK    3  A    between atoms: C_10  and  S_11
REMARK    4  A    between atoms: S_11  and  C_12
REMARK    5  A    between atoms: CA_18  and  C_19
REMARK    6  A    between atoms: C_19  and  OXT_21
REMARK                            x       y       z     vdW  Elec       q    Type
REMARK                         _______ _______ _______ _____ _____    ______ ____
ROOT
ATOM      1  C   UNL     1       1.407   8.377  18.877  0.00  0.00    +0.000 C 
ATOM      2  C   UNL     1       1.564   8.295  20.413  0.00  0.00    +0.000 C 
ATOM      3  C   UNL     1       0.281   8.816  21.124  0.00  0.00    +0.000 C 
ATOM      4  C   UNL     1      -0.072  10.270  20.716  0.00  0.00    +0.000 C 
ATOM      5  C   UNL     1       0.971  11.303  21.227  0.00  0.00    +0.000 C 
ATOM      6  N   UNL     1       0.719  12.666  20.724  0.00  0.00    +0.000 NA
ATOM      7  CA  UNL     1       0.533  12.759  19.262  0.00  0.00    +0.000 C 
ATOM      8  C   UNL     1      -0.565  11.788  18.794  0.00  0.00    +0.000 C 
ATOM      9  C   UNL     1      -0.227  10.339  19.188  0.00  0.00    +0.000 C 
ATOM     10  C   UNL     1       1.043   9.819  18.483  0.00  0.00    +0.000 C 
ATOM     11  H   UNL     1       1.551  13.253  20.982  0.00  0.00    +0.000 HD
ENDROOT
BRANCH   7  12
ATOM     12  C   UNL     1       0.155  14.175  18.909  0.00  0.00    +0.000 C 
ATOM     13  O   UNL     1       1.023  14.993  18.643  0.00  0.00    +0.000 OA
BRANCH  12  14
ATOM     14  OXT UNL     1      -1.138  14.562  18.910  0.00  0.00    +0.000 OA
ATOM     15  HXT UNL     1      -1.703  14.427  19.684  0.00  0.00    +0.000 HD
ENDBRANCH  12  14
ENDBRANCH   7  12
BRANCH   1  16
ATOM     16  S   UNL     1       2.949   8.059  17.914  0.00  0.00    +0.000 S 
BRANCH  16  23
ATOM     17  C   UNL     1       4.329   5.688  17.184  0.00  0.00    +0.000 A 
ATOM     18  C   UNL     1       4.405   4.277  17.152  0.00  0.00    +0.000 A 
ATOM     19  C   UNL     1       3.490   3.482  17.847  0.00  0.00    +0.000 A 
ATOM     20 CL   UNL     1       3.593   1.729  17.748  0.00  0.00    +0.000 Cl
ATOM     21  C   UNL     1       2.484   4.074  18.597  0.00  0.00    +0.000 A 
ATOM     22  C   UNL     1       2.375   5.465  18.654  0.00  0.00    +0.000 A 
ATOM     23  C   UNL     1       3.277   6.285  17.958  0.00  0.00    +0.000 A 
BRANCH  17  25
ATOM     24  O   UNL     1       5.161   6.636  15.185  0.00  0.00    +0.000 OA
ATOM     25  C   UNL     1       5.308   6.506  16.381  0.00  0.00    +0.000 C 
BRANCH  25  26
ATOM     26  O   UNL     1       6.364   7.130  16.951  0.00  0.00    +0.000 OA
ATOM     27  H   UNL     1       6.324   7.881  17.553  0.00  0.00    +0.000 HD
ENDBRANCH  25  26
ENDBRANCH  17  25
ENDBRANCH  16  23
ENDBRANCH   1  16
TORSDOF 6
ENDMDL
