MODEL 1
REMARK VINA RESULT:      -7.1      0.000      0.000
REMARK  Name = 
REMARK  7 active torsions:
REMARK  status: ('A' for Active; 'I' for Inactive)
REMARK    1  A    between atoms: C_1  and  O_2
REMARK    2  A    between atoms: O_2  and  C_3
REMARK    3  A    between atoms: C_8  and  C_9
REMARK    4  A    between atoms: C_9  and  C_10
REMARK    5  A    between atoms: N_12  and  C_13
REMARK    6  A    between atoms: C_13  and  C_14
REMARK    7  A    between atoms: C_17  and  C_18
REMARK                            x       y       z     vdW  Elec       q    Type
REMARK                         _______ _______ _______ _____ _____    ______ ____
ROOT
ATOM      1  C   UNL     1       3.798   3.514  17.571  0.00  0.00    +0.000 C 
ATOM      2  O   UNL     1       4.474   2.884  18.383  0.00  0.00    +0.000 OA
ATOM      3  N   UNL     1       4.321   3.970  16.382  0.00  0.00    +0.000 N 
ATOM      4  H   UNL     1       3.752   4.433  15.682  0.00  0.00    +0.000 HD
ENDROOT
BRANCH   1   5
ATOM      5  C   UNL     1       2.350   3.875  17.852  0.00  0.00    +0.000 C 
BRANCH   5  11
ATOM      6  C   UNL     1       2.245   7.564  18.851  0.00  0.00    +0.000 A 
ATOM      7  C   UNL     1       1.847   7.495  20.182  0.00  0.00    +0.000 A 
ATOM      8  C   UNL     1       1.607   6.254  20.776  0.00  0.00    +0.000 A 
ATOM      9  C   UNL     1       1.768   5.071  20.045  0.00  0.00    +0.000 A 
ATOM     10 BR   UNL     1       1.377   3.443  20.943  0.00  0.00    +0.000 Br
ATOM     11  C   UNL     1       2.177   5.112  18.706  0.00  0.00    +0.000 A 
ATOM     12  C   UNL     1       2.424   6.377  18.129  0.00  0.00    +0.000 A 
BRANCH   6  14
ATOM     13  C   UNL     1       1.484   9.728  18.209  0.00  0.00    +0.000 C 
ATOM     14  O   UNL     1       2.481   8.714  18.144  0.00  0.00    +0.000 OA
ENDBRANCH   6  14
ENDBRANCH   5  11
ENDBRANCH   1   5
BRANCH   3  15
ATOM     15  C   UNL     1       5.733   3.766  16.109  0.00  0.00    +0.000 C 
BRANCH  15  16
ATOM     16  C   UNL     1       6.585   4.936  16.468  0.00  0.00    +0.000 A 
ATOM     17  N   UNL     1       7.242   5.621  15.519  0.00  0.00    +0.000 NA
ATOM     18  O   UNL     1       7.891   6.625  16.232  0.00  0.00    +0.000 OA
ATOM     19  C   UNL     1       7.558   6.445  17.545  0.00  0.00    +0.000 A 
ATOM     20  C   UNL     1       8.129   7.414  18.499  0.00  0.00    +0.000 C 
ATOM     21  N   UNL     1       6.766   5.414  17.749  0.00  0.00    +0.000 NA
ENDBRANCH  15  16
ENDBRANCH   3  15
TORSDOF 5
ENDMDL
MODEL 2
REMARK VINA RESULT:      -7.1      1.488      2.232
REMARK  Name = 
REMARK  7 active torsions:
REMARK  status: ('A' for Active; 'I' for Inactive)
REMARK    1  A    between atoms: C_1  and  O_2
REMARK    2  A    between atoms: O_2  and  C_3
REMARK    3  A    between atoms: C_8  and  C_9
REMARK    4  A    between atoms: C_9  and  C_10
REMARK    5  A    between atoms: N_12  and  C_13
REMARK    6  A    between atoms: C_13  and  C_14
REMARK    7  A    between atoms: C_17  and  C_18
REMARK                            x       y       z     vdW  Elec       q    Type
REMARK                         _______ _______ _______ _____ _____    ______ ____
ROOT
ATOM      1  C   UNL     1       3.748   3.538  17.434  0.00  0.00    +0.000 C 
ATOM      2  O   UNL     1       4.118   2.386  17.658  0.00  0.00    +0.000 OA
ATOM      3  N   UNL     1       4.615   4.510  16.989  0.00  0.00    +0.000 N 
ATOM      4  H   UNL     1       4.303   5.443  16.743  0.00  0.00    +0.000 HD
ENDROOT
BRANCH   1   5
ATOM      5  C   UNL     1       2.316   3.976  17.683  0.00  0.00    +0.000 C 
BRANCH   5  11
ATOM      6  C   UNL     1       2.271   7.600  18.902  0.00  0.00    +0.000 A 
ATOM      7  C   UNL     1       1.932   7.452  20.244  0.00  0.00    +0.000 A 
ATOM      8  C   UNL     1       1.715   6.178  20.774  0.00  0.00    +0.000 A 
ATOM      9  C   UNL     1       1.838   5.040  19.967  0.00  0.00    +0.000 A 
ATOM     10 BR   UNL     1       1.481   3.363  20.784  0.00  0.00    +0.000 Br
ATOM     11  C   UNL     1       2.187   5.160  18.616  0.00  0.00    +0.000 A 
ATOM     12  C   UNL     1       2.412   6.457  18.104  0.00  0.00    +0.000 A 
BRANCH   6  14
ATOM     13  C   UNL     1       1.330   9.579  17.969  0.00  0.00    +0.000 C 
ATOM     14  O   UNL     1       2.479   8.789  18.256  0.00  0.00    +0.000 OA
ENDBRANCH   6  14
ENDBRANCH   5  11
ENDBRANCH   1   5
BRANCH   3  15
ATOM     15  C   UNL     1       6.025   4.187  16.851  0.00  0.00    +0.000 C 
BRANCH  15  16
ATOM     16  C   UNL     1       6.577   4.493  15.500  0.00  0.00    +0.000 A 
ATOM     17  N   UNL     1       7.460   5.490  15.331  0.00  0.00    +0.000 NA
ATOM     18  O   UNL     1       7.745   5.446  13.970  0.00  0.00    +0.000 OA
ATOM     19  C   UNL     1       7.002   4.423  13.451  0.00  0.00    +0.000 A 
ATOM     20  C   UNL     1       7.153   4.179  12.004  0.00  0.00    +0.000 C 
ATOM     21  N   UNL     1       6.257   3.810  14.346  0.00  0.00    +0.000 NA
ENDBRANCH  15  16
ENDBRANCH   3  15
TORSDOF 5
ENDMDL
MODEL 3
REMARK VINA RESULT:      -7.0      1.222      1.417
REMARK  Name = 
REMARK  7 active torsions:
REMARK  status: ('A' for Active; 'I' for Inactive)
REMARK    1  A    between atoms: C_1  and  O_2
REMARK    2  A    between atoms: O_2  and  C_3
REMARK    3  A    between atoms: C_8  and  C_9
REMARK    4  A    between atoms: C_9  and  C_10
REMARK    5  A    between atoms: N_12  and  C_13
REMARK    6  A    between atoms: C_13  and  C_14
REMARK    7  A    between atoms: C_17  and  C_18
REMARK                            x       y       z     vdW  Elec       q    Type
REMARK                         _______ _______ _______ _____ _____    ______ ____
ROOT
ATOM      1  C   UNL     1       4.660   4.235  17.103  0.00  0.00    +0.000 C 
ATOM      2  O   UNL     1       4.888   4.374  15.903  0.00  0.00    +0.000 OA
ATOM      3  N   UNL     1       5.656   4.315  18.050  0.00  0.00    +0.000 N 
ATOM      4  H   UNL     1       5.463   4.265  19.044  0.00  0.00    +0.000 HD
ENDROOT
BRANCH   1   5
ATOM      5  C   UNL     1       3.268   3.913  17.616  0.00  0.00    +0.000 C 
BRANCH   5  11
ATOM      6  C   UNL     1       2.207   7.286  19.071  0.00  0.00    +0.000 A 
ATOM      7  C   UNL     1       1.683   6.919  20.306  0.00  0.00    +0.000 A 
ATOM      8  C   UNL     1       1.666   5.575  20.687  0.00  0.00    +0.000 A 
ATOM      9  C   UNL     1       2.177   4.587  19.837  0.00  0.00    +0.000 A 
ATOM     10 BR   UNL     1       2.066   2.789  20.442  0.00  0.00    +0.000 Br
ATOM     11  C   UNL     1       2.719   4.930  18.592  0.00  0.00    +0.000 A 
ATOM     12  C   UNL     1       2.735   6.295  18.232  0.00  0.00    +0.000 A 
BRANCH   6  14
ATOM     13  C   UNL     1       1.249   9.465  19.006  0.00  0.00    +0.000 C 
ATOM     14  O   UNL     1       2.255   8.558  18.567  0.00  0.00    +0.000 OA
ENDBRANCH   6  14
ENDBRANCH   5  11
ENDBRANCH   1   5
BRANCH   3  15
ATOM     15  C   UNL     1       7.030   4.497  17.615  0.00  0.00    +0.000 C 
BRANCH  15  16
ATOM     16  C   UNL     1       7.457   5.924  17.569  0.00  0.00    +0.000 A 
ATOM     17  N   UNL     1       7.376   6.627  16.428  0.00  0.00    +0.000 NA
ATOM     18  O   UNL     1       7.836   7.889  16.789  0.00  0.00    +0.000 OA
ATOM     19  C   UNL     1       8.151   7.822  18.117  0.00  0.00    +0.000 A 
ATOM     20  C   UNL     1       8.656   9.065  18.729  0.00  0.00    +0.000 C 
ATOM     21  N   UNL     1       7.948   6.634  18.644  0.00  0.00    +0.000 NA
ENDBRANCH  15  16
ENDBRANCH   3  15
TORSDOF 5
ENDMDL
MODEL 4
REMARK VINA RESULT:      -7.0      1.122      1.343
REMARK  Name = 
REMARK  7 active torsions:
REMARK  status: ('A' for Active; 'I' for Inactive)
REMARK    1  A    between atoms: C_1  and  O_2
REMARK    2  A    between atoms: O_2  and  C_3
REMARK    3  A    between atoms: C_8  and  C_9
REMARK    4  A    between atoms: C_9  and  C_10
REMARK    5  A    between atoms: N_12  and  C_13
REMARK    6  A    between atoms: C_13  and  C_14
REMARK    7  A    between atoms: C_17  and  C_18
REMARK                            x       y       z     vdW  Elec       q    Type
REMARK                         _______ _______ _______ _____ _____    ______ ____
ROOT
ATOM      1  C   UNL     1       4.413   4.049  17.349  0.00  0.00    +0.000 C 
ATOM      2  O   UNL     1       5.073   3.345  18.112  0.00  0.00    +0.000 OA
ATOM      3  N   UNL     1       5.001   4.800  16.356  0.00  0.00    +0.000 N 
ATOM      4  H   UNL     1       4.457   5.331  15.685  0.00  0.00    +0.000 HD
ENDROOT
BRANCH   1   5
ATOM      5  C   UNL     1       2.906   4.175  17.486  0.00  0.00    +0.000 C 
BRANCH   5  11
ATOM      6  C   UNL     1       1.985   7.305  19.479  0.00  0.00    +0.000 A 
ATOM      7  C   UNL     1       1.609   6.770  20.706  0.00  0.00    +0.000 A 
ATOM      8  C   UNL     1       1.648   5.388  20.907  0.00  0.00    +0.000 A 
ATOM      9  C   UNL     1       2.068   4.530  19.883  0.00  0.00    +0.000 A 
ATOM     10 BR   UNL     1       2.044   2.668  20.256  0.00  0.00    +0.000 Br
ATOM     11  C   UNL     1       2.462   5.044  18.642  0.00  0.00    +0.000 A 
ATOM     12  C   UNL     1       2.424   6.445  18.464  0.00  0.00    +0.000 A 
BRANCH   6  14
ATOM     13  C   UNL     1       2.012   8.951  17.757  0.00  0.00    +0.000 C 
ATOM     14  O   UNL     1       1.963   8.633  19.144  0.00  0.00    +0.000 OA
ENDBRANCH   6  14
ENDBRANCH   5  11
ENDBRANCH   1   5
BRANCH   3  15
ATOM     15  C   UNL     1       6.449   4.822  16.252  0.00  0.00    +0.000 C 
BRANCH  15  16
ATOM     16  C   UNL     1       7.091   5.886  17.076  0.00  0.00    +0.000 A 
ATOM     17  N   UNL     1       7.671   5.588  18.249  0.00  0.00    +0.000 NA
ATOM     18  O   UNL     1       8.160   6.813  18.692  0.00  0.00    +0.000 OA
ATOM     19  C   UNL     1       7.825   7.732  17.738  0.00  0.00    +0.000 A 
ATOM     20  C   UNL     1       8.258   9.118  17.991  0.00  0.00    +0.000 C 
ATOM     21  N   UNL     1       7.157   7.218  16.727  0.00  0.00    +0.000 NA
ENDBRANCH  15  16
ENDBRANCH   3  15
TORSDOF 5
ENDMDL
MODEL 5
REMARK VINA RESULT:      -6.9      1.676      2.016
REMARK  Name = 
REMARK  7 active torsions:
REMARK  status: ('A' for Active; 'I' for Inactive)
REMARK    1  A    between atoms: C_1  and  O_2
REMARK    2  A    between atoms: O_2  and  C_3
REMARK    3  A    between atoms: C_8  and  C_9
REMARK    4  A    between atoms: C_9  and  C_10
REMARK    5  A    between atoms: N_12  and  C_13
REMARK    6  A    between atoms: C_13  and  C_14
REMARK    7  A    between atoms: C_17  and  C_18
REMARK                            x       y       z     vdW  Elec       q    Type
REMARK                         _______ _______ _______ _____ _____    ______ ____
ROOT
ATOM      1  C   UNL     1       4.626   4.475  16.676  0.00  0.00    +0.000 C 
ATOM      2  O   UNL     1       4.777   5.227  15.715  0.00  0.00    +0.000 OA
ATOM      3  N   UNL     1       5.689   4.037  17.434  0.00  0.00    +0.000 N 
ATOM      4  H   UNL     1       5.564   3.469  18.265  0.00  0.00    +0.000 HD
ENDROOT
BRANCH   1   5
ATOM      5  C   UNL     1       3.259   3.937  17.060  0.00  0.00    +0.000 C 
BRANCH   5  11
ATOM      6  C   UNL     1       2.186   6.551  19.635  0.00  0.00    +0.000 A 
ATOM      7  C   UNL     1       1.641   5.762  20.642  0.00  0.00    +0.000 A 
ATOM      8  C   UNL     1       1.613   4.372  20.503  0.00  0.00    +0.000 A 
ATOM      9  C   UNL     1       2.135   3.760  19.357  0.00  0.00    +0.000 A 
ATOM     10 BR   UNL     1       2.008   1.867  19.259  0.00  0.00    +0.000 Br
ATOM     11  C   UNL     1       2.698   4.531  18.333  0.00  0.00    +0.000 A 
ATOM     12  C   UNL     1       2.724   5.933  18.499  0.00  0.00    +0.000 A 
BRANCH   6  14
ATOM     13  C   UNL     1       1.314   8.608  20.462  0.00  0.00    +0.000 C 
ATOM     14  O   UNL     1       2.245   7.919  19.634  0.00  0.00    +0.000 OA
ENDBRANCH   6  14
ENDBRANCH   5  11
ENDBRANCH   1   5
BRANCH   3  15
ATOM     15  C   UNL     1       7.037   4.414  17.044  0.00  0.00    +0.000 C 
BRANCH  15  16
ATOM     16  C   UNL     1       7.485   5.711  17.625  0.00  0.00    +0.000 A 
ATOM     17  N   UNL     1       7.988   5.767  18.869  0.00  0.00    +0.000 NA
ATOM     18  O   UNL     1       8.302   7.112  19.034  0.00  0.00    +0.000 OA
ATOM     19  C   UNL     1       7.956   7.737  17.869  0.00  0.00    +0.000 A 
ATOM     20  C   UNL     1       8.214   9.187  17.808  0.00  0.00    +0.000 C 
ATOM     21  N   UNL     1       7.439   6.925  16.972  0.00  0.00    +0.000 NA
ENDBRANCH  15  16
ENDBRANCH   3  15
TORSDOF 5
ENDMDL
MODEL 6
REMARK VINA RESULT:      -6.9      1.239      1.496
REMARK  Name = 
REMARK  7 active torsions:
REMARK  status: ('A' for Active; 'I' for Inactive)
REMARK    1  A    between atoms: C_1  and  O_2
REMARK    2  A    between atoms: O_2  and  C_3
REMARK    3  A    between atoms: C_8  and  C_9
REMARK    4  A    between atoms: C_9  and  C_10
REMARK    5  A    between atoms: N_12  and  C_13
REMARK    6  A    between atoms: C_13  and  C_14
REMARK    7  A    between atoms: C_17  and  C_18
REMARK                            x       y       z     vdW  Elec       q    Type
REMARK                         _______ _______ _______ _____ _____    ______ ____
ROOT
ATOM      1  C   UNL     1       4.373   4.331  17.921  0.00  0.00    +0.000 C 
ATOM      2  O   UNL     1       4.979   3.716  18.797  0.00  0.00    +0.000 OA
ATOM      3  N   UNL     1       5.021   4.898  16.846  0.00  0.00    +0.000 N 
ATOM      4  H   UNL     1       4.520   5.350  16.090  0.00  0.00    +0.000 HD
ENDROOT
BRANCH   1   5
ATOM      5  C   UNL     1       2.873   4.549  17.995  0.00  0.00    +0.000 C 
BRANCH   5  11
ATOM      6  C   UNL     1       2.052   8.258  18.426  0.00  0.00    +0.000 A 
ATOM      7  C   UNL     1       1.693   8.324  19.768  0.00  0.00    +0.000 A 
ATOM      8  C   UNL     1       1.712   7.169  20.554  0.00  0.00    +0.000 A 
ATOM      9  C   UNL     1       2.094   5.939  20.004  0.00  0.00    +0.000 A 
ATOM     10 BR   UNL     1       2.045   4.429  21.155  0.00  0.00    +0.000 Br
ATOM     11  C   UNL     1       2.470   5.848  18.658  0.00  0.00    +0.000 A 
ATOM     12  C   UNL     1       2.453   7.030  17.885  0.00  0.00    +0.000 A 
BRANCH   6  14
ATOM     13  C   UNL     1       2.086  10.617  18.097  0.00  0.00    +0.000 C 
ATOM     14  O   UNL     1       2.046   9.306  17.544  0.00  0.00    +0.000 OA
ENDBRANCH   6  14
ENDBRANCH   5  11
ENDBRANCH   1   5
BRANCH   3  15
ATOM     15  C   UNL     1       6.471   4.833  16.782  0.00  0.00    +0.000 C 
BRANCH  15  16
ATOM     16  C   UNL     1       7.148   5.995  17.425  0.00  0.00    +0.000 A 
ATOM     17  N   UNL     1       7.820   5.844  18.578  0.00  0.00    +0.000 NA
ATOM     18  O   UNL     1       8.314   7.118  18.837  0.00  0.00    +0.000 OA
ATOM     19  C   UNL     1       7.891   7.914  17.811  0.00  0.00    +0.000 A 
ATOM     20  C   UNL     1       8.312   9.326  17.868  0.00  0.00    +0.000 C 
ATOM     21  N   UNL     1       7.161   7.278  16.920  0.00  0.00    +0.000 NA
ENDBRANCH  15  16
ENDBRANCH   3  15
TORSDOF 5
ENDMDL
MODEL 7
REMARK VINA RESULT:      -6.8      2.119      3.989
REMARK  Name = 
REMARK  7 active torsions:
REMARK  status: ('A' for Active; 'I' for Inactive)
REMARK    1  A    between atoms: C_1  and  O_2
REMARK    2  A    between atoms: O_2  and  C_3
REMARK    3  A    between atoms: C_8  and  C_9
REMARK    4  A    between atoms: C_9  and  C_10
REMARK    5  A    between atoms: N_12  and  C_13
REMARK    6  A    between atoms: C_13  and  C_14
REMARK    7  A    between atoms: C_17  and  C_18
REMARK                            x       y       z     vdW  Elec       q    Type
REMARK                         _______ _______ _______ _____ _____    ______ ____
ROOT
ATOM      1  C   UNL     1       4.598   6.351  17.609  0.00  0.00    +0.000 C 
ATOM      2  O   UNL     1       5.316   7.286  17.259  0.00  0.00    +0.000 OA
ATOM      3  N   UNL     1       5.074   5.062  17.708  0.00  0.00    +0.000 N 
ATOM      4  H   UNL     1       4.503   4.300  18.056  0.00  0.00    +0.000 HD
ENDROOT
BRANCH   1   5
ATOM      5  C   UNL     1       3.122   6.548  17.906  0.00  0.00    +0.000 C 
BRANCH   5  11
ATOM      6  C   UNL     1       2.098   3.110  19.229  0.00  0.00    +0.000 A 
ATOM      7  C   UNL     1       1.500   3.431  20.443  0.00  0.00    +0.000 A 
ATOM      8  C   UNL     1       1.418   4.765  20.852  0.00  0.00    +0.000 A 
ATOM      9  C   UNL     1       1.931   5.789  20.047  0.00  0.00    +0.000 A 
ATOM     10 BR   UNL     1       1.800   7.561  20.720  0.00  0.00    +0.000 Br
ATOM     11  C   UNL     1       2.530   5.494  18.815  0.00  0.00    +0.000 A 
ATOM     12  C   UNL     1       2.592   4.141  18.418  0.00  0.00    +0.000 A 
BRANCH   6  14
ATOM     13  C   UNL     1       3.505   1.569  18.082  0.00  0.00    +0.000 C 
ATOM     14  O   UNL     1       2.268   1.847  18.730  0.00  0.00    +0.000 OA
ENDBRANCH   6  14
ENDBRANCH   5  11
ENDBRANCH   1   5
BRANCH   3  15
ATOM     15  C   UNL     1       6.444   4.785  17.316  0.00  0.00    +0.000 C 
BRANCH  15  16
ATOM     16  C   UNL     1       6.640   4.714  15.840  0.00  0.00    +0.000 A 
ATOM     17  N   UNL     1       7.459   5.575  15.215  0.00  0.00    +0.000 NA
ATOM     18  O   UNL     1       7.391   5.182  13.883  0.00  0.00    +0.000 OA
ATOM     19  C   UNL     1       6.536   4.118  13.835  0.00  0.00    +0.000 A 
ATOM     20  C   UNL     1       6.316   3.519  12.506  0.00  0.00    +0.000 C 
ATOM     21  N   UNL     1       6.036   3.794  15.009  0.00  0.00    +0.000 NA
ENDBRANCH  15  16
ENDBRANCH   3  15
TORSDOF 5
ENDMDL
MODEL 8
REMARK VINA RESULT:      -6.8      2.529      4.190
REMARK  Name = 
REMARK  7 active torsions:
REMARK  status: ('A' for Active; 'I' for Inactive)
REMARK    1  A    between atoms: C_1  and  O_2
REMARK    2  A    between atoms: O_2  and  C_3
REMARK    3  A    between atoms: C_8  and  C_9
REMARK    4  A    between atoms: C_9  and  C_10
REMARK    5  A    between atoms: N_12  and  C_13
REMARK    6  A    between atoms: C_13  and  C_14
REMARK    7  A    between atoms: C_17  and  C_18
REMARK                            x       y       z     vdW  Elec       q    Type
REMARK                         _______ _______ _______ _____ _____    ______ ____
ROOT
ATOM      1  C   UNL     1       5.208   5.535  17.967  0.00  0.00    +0.000 C 
ATOM      2  O   UNL     1       5.828   4.748  18.680  0.00  0.00    +0.000 OA
ATOM      3  N   UNL     1       5.647   5.882  16.709  0.00  0.00    +0.000 N 
ATOM      4  H   UNL     1       5.107   6.480  16.093  0.00  0.00    +0.000 HD
ENDROOT
BRANCH   1   5
ATOM      5  C   UNL     1       3.940   6.217  18.449  0.00  0.00    +0.000 C 
BRANCH   5  11
ATOM      6  C   UNL     1       2.177   2.983  19.472  0.00  0.00    +0.000 A 
ATOM      7  C   UNL     1       1.212   3.445  20.362  0.00  0.00    +0.000 A 
ATOM      8  C   UNL     1       1.118   4.810  20.643  0.00  0.00    +0.000 A 
ATOM      9  C   UNL     1       1.985   5.725  20.033  0.00  0.00    +0.000 A 
ATOM     10 BR   UNL     1       1.790   7.551  20.520  0.00  0.00    +0.000 Br
ATOM     11  C   UNL     1       2.958   5.287  19.127  0.00  0.00    +0.000 A 
ATOM     12  C   UNL     1       3.029   3.905  18.850  0.00  0.00    +0.000 A 
BRANCH   6  14
ATOM     13  C   UNL     1       3.538   1.392  18.337  0.00  0.00    +0.000 C 
ATOM     14  O   UNL     1       2.394   1.673  19.136  0.00  0.00    +0.000 OA
ENDBRANCH   6  14
ENDBRANCH   5  11
ENDBRANCH   1   5
BRANCH   3  15
ATOM     15  C   UNL     1       6.918   5.361  16.237  0.00  0.00    +0.000 C 
BRANCH  15  16
ATOM     16  C   UNL     1       6.882   4.893  14.822  0.00  0.00    +0.000 A 
ATOM     17  N   UNL     1       7.747   5.378  13.918  0.00  0.00    +0.000 NA
ATOM     18  O   UNL     1       7.417   4.696  12.751  0.00  0.00    +0.000 OA
ATOM     19  C   UNL     1       6.381   3.864  13.068  0.00  0.00    +0.000 A 
ATOM     20  C   UNL     1       5.865   3.021  11.974  0.00  0.00    +0.000 C 
ATOM     21  N   UNL     1       6.005   3.952  14.326  0.00  0.00    +0.000 NA
ENDBRANCH  15  16
ENDBRANCH   3  15
TORSDOF 5
ENDMDL
MODEL 9
REMARK VINA RESULT:      -6.7      1.891      2.740
REMARK  Name = 
REMARK  7 active torsions:
REMARK  status: ('A' for Active; 'I' for Inactive)
REMARK    1  A    between atoms: C_1  and  O_2
REMARK    2  A    between atoms: O_2  and  C_3
REMARK    3  A    between atoms: C_8  and  C_9
REMARK    4  A    between atoms: C_9  and  C_10
REMARK    5  A    between atoms: N_12  and  C_13
REMARK    6  A    between atoms: C_13  and  C_14
REMARK    7  A    between atoms: C_17  and  C_18
REMARK                            x       y       z     vdW  Elec       q    Type
REMARK                         _______ _______ _______ _____ _____    ______ ____
ROOT
ATOM      1  C   UNL     1       4.381   5.728  17.544  0.00  0.00    +0.000 C 
ATOM      2  O   UNL     1       4.886   6.821  17.293  0.00  0.00    +0.000 OA
ATOM      3  N   UNL     1       5.118   4.564  17.534  0.00  0.00    +0.000 N 
ATOM      4  H   UNL     1       4.721   3.670  17.802  0.00  0.00    +0.000 HD
ENDROOT
BRANCH   1   5
ATOM      5  C   UNL     1       2.898   5.583  17.834  0.00  0.00    +0.000 C 
BRANCH   5  11
ATOM      6  C   UNL     1       1.588   8.953  19.077  0.00  0.00    +0.000 A 
ATOM      7  C   UNL     1       1.279   8.674  20.404  0.00  0.00    +0.000 A 
ATOM      8  C   UNL     1       1.491   7.392  20.917  0.00  0.00    +0.000 A 
ATOM      9  C   UNL     1       2.017   6.378  20.107  0.00  0.00    +0.000 A 
ATOM     10 BR   UNL     1       2.226   4.664  20.899  0.00  0.00    +0.000 Br
ATOM     11  C   UNL     1       2.346   6.635  18.770  0.00  0.00    +0.000 A 
ATOM     12  C   UNL     1       2.134   7.940  18.276  0.00  0.00    +0.000 A 
BRANCH   6  14
ATOM     13  C   UNL     1       0.142  10.792  18.633  0.00  0.00    +0.000 C 
ATOM     14  O   UNL     1       1.401  10.154  18.446  0.00  0.00    +0.000 OA
ENDBRANCH   6  14
ENDBRANCH   5  11
ENDBRANCH   1   5
BRANCH   3  15
ATOM     15  C   UNL     1       6.515   4.618  17.141  0.00  0.00    +0.000 C 
BRANCH  15  16
ATOM     16  C   UNL     1       6.721   4.622  15.665  0.00  0.00    +0.000 A 
ATOM     17  N   UNL     1       7.522   5.531  15.088  0.00  0.00    +0.000 NA
ATOM     18  O   UNL     1       7.471   5.200  13.737  0.00  0.00    +0.000 OA
ATOM     19  C   UNL     1       6.641   4.120  13.633  0.00  0.00    +0.000 A 
ATOM     20  C   UNL     1       6.442   3.581  12.276  0.00  0.00    +0.000 C 
ATOM     21  N   UNL     1       6.142   3.730  14.787  0.00  0.00    +0.000 NA
ENDBRANCH  15  16
ENDBRANCH   3  15
TORSDOF 5
ENDMDL
