MODEL 1
REMARK VINA RESULT:      -7.5      0.000      0.000
REMARK  Name = 
REMARK  6 active torsions:
REMARK  status: ('A' for Active; 'I' for Inactive)
REMARK    1  A    between atoms: C_2  and  C_3
REMARK    2  A    between atoms: C_2  and  C_15
REMARK    3  A    between atoms: C_3  and  C_4
REMARK    4  A    between atoms: C_4  and  C_5
REMARK    5  A    between atoms: C_4  and  C_8
REMARK    6  A    between atoms: C_5  and  O_7
REMARK                            x       y       z     vdW  Elec       q    Type
REMARK                         _______ _______ _______ _____ _____    ______ ____
ROOT
ATOM      1  C   UNL     1       6.247   4.312  15.997  0.00  0.00    +0.000 C 
ENDROOT
BRANCH   1   2
ATOM      2  C   UNL     1       6.906   5.352  16.903  0.00  0.00    +0.000 A 
ATOM      3  C   UNL     1       6.896   6.708  16.534  0.00  0.00    +0.000 A 
ATOM      4  C   UNL     1       7.502   7.672  17.346  0.00  0.00    +0.000 A 
ATOM      5  C   UNL     1       8.120   7.285  18.527  0.00  0.00    +0.000 A 
ATOM      6  F   UNL     1       8.699   8.209  19.303  0.00  0.00    +0.000 F 
ATOM      7  C   UNL     1       8.140   5.953  18.917  0.00  0.00    +0.000 A 
ATOM      8  C   UNL     1       7.537   4.989  18.107  0.00  0.00    +0.000 A 
ENDBRANCH   1   2
BRANCH   1   9
ATOM      9  C   UNL     1       6.797   4.335  14.567  0.00  0.00    +0.000 C 
ATOM     10  O   UNL     1       7.605   5.147  14.137  0.00  0.00    +0.000 OA
BRANCH   9  11
ATOM     11  O   UNL     1       6.238   3.404  13.756  0.00  0.00    +0.000 OA
ATOM     12  H   UNL     1       6.411   3.550  12.796  0.00  0.00    +0.000 HD
ENDBRANCH   9  11
ENDBRANCH   1   9
BRANCH   1  13
ATOM     13  C   UNL     1       4.719   4.503  15.953  0.00  0.00    +0.000 C 
BRANCH  13  15
ATOM     14  O   UNL     1       4.072   2.868  17.570  0.00  0.00    +0.000 OA
ATOM     15  C   UNL     1       4.081   4.063  17.258  0.00  0.00    +0.000 C 
BRANCH  15  16
ATOM     16  C   UNL     1       3.438   5.070  18.160  0.00  0.00    +0.000 A 
ATOM     17  C   UNL     1       2.878   4.617  19.365  0.00  0.00    +0.000 A 
ATOM     18  C   UNL     1       2.230   5.506  20.229  0.00  0.00    +0.000 A 
ATOM     19  C   UNL     1       2.134   6.853  19.891  0.00  0.00    +0.000 A 
ATOM     20 CL   UNL     1       1.327   7.948  20.944  0.00  0.00    +0.000 Cl
ATOM     21  C   UNL     1       2.689   7.317  18.701  0.00  0.00    +0.000 A 
ATOM     22  C   UNL     1       3.346   6.430  17.838  0.00  0.00    +0.000 A 
ENDBRANCH  15  16
ENDBRANCH  13  15
ENDBRANCH   1  13
TORSDOF 6
ENDMDL
MODEL 2
REMARK VINA RESULT:      -7.5      2.941      4.048
REMARK  Name = 
REMARK  6 active torsions:
REMARK  status: ('A' for Active; 'I' for Inactive)
REMARK    1  A    between atoms: C_2  and  C_3
REMARK    2  A    between atoms: C_2  and  C_15
REMARK    3  A    between atoms: C_3  and  C_4
REMARK    4  A    between atoms: C_4  and  C_5
REMARK    5  A    between atoms: C_4  and  C_8
REMARK    6  A    between atoms: C_5  and  O_7
REMARK                            x       y       z     vdW  Elec       q    Type
REMARK                         _______ _______ _______ _____ _____    ______ ____
ROOT
ATOM      1  C   UNL     1       4.186   3.831  18.994  0.00  0.00    +0.000 C 
ENDROOT
BRANCH   1   2
ATOM      2  C   UNL     1       5.102   4.152  17.813  0.00  0.00    +0.000 A 
ATOM      3  C   UNL     1       4.610   4.052  16.500  0.00  0.00    +0.000 A 
ATOM      4  C   UNL     1       5.435   4.334  15.407  0.00  0.00    +0.000 A 
ATOM      5  C   UNL     1       6.753   4.714  15.621  0.00  0.00    +0.000 A 
ATOM      6  F   UNL     1       7.541   4.983  14.574  0.00  0.00    +0.000 F 
ATOM      7  C   UNL     1       7.262   4.824  16.908  0.00  0.00    +0.000 A 
ATOM      8  C   UNL     1       6.440   4.542  18.001  0.00  0.00    +0.000 A 
ENDBRANCH   1   2
BRANCH   1   9
ATOM      9  C   UNL     1       4.062   2.327  19.259  0.00  0.00    +0.000 C 
ATOM     10  O   UNL     1       3.107   1.633  18.937  0.00  0.00    +0.000 OA
BRANCH   9  11
ATOM     11  O   UNL     1       5.090   1.816  19.979  0.00  0.00    +0.000 OA
ATOM     12  H   UNL     1       5.096   0.830  20.029  0.00  0.00    +0.000 HD
ENDBRANCH   9  11
ENDBRANCH   1   9
BRANCH   1  13
ATOM     13  C   UNL     1       2.781   4.425  18.786  0.00  0.00    +0.000 C 
BRANCH  13  15
ATOM     14  O   UNL     1       2.392   5.027  21.064  0.00  0.00    +0.000 OA
ATOM     15  C   UNL     1       2.439   5.409  19.890  0.00  0.00    +0.000 C 
BRANCH  15  16
ATOM     16  C   UNL     1       2.134   6.837  19.561  0.00  0.00    +0.000 A 
ATOM     17  C   UNL     1       1.524   7.627  20.548  0.00  0.00    +0.000 A 
ATOM     18  C   UNL     1       1.180   8.957  20.284  0.00  0.00    +0.000 A 
ATOM     19  C   UNL     1       1.440   9.503  19.030  0.00  0.00    +0.000 A 
ATOM     20 CL   UNL     1       1.007  11.134  18.697  0.00  0.00    +0.000 Cl
ATOM     21  C   UNL     1       2.047   8.732  18.043  0.00  0.00    +0.000 A 
ATOM     22  C   UNL     1       2.401   7.402  18.308  0.00  0.00    +0.000 A 
ENDBRANCH  15  16
ENDBRANCH  13  15
ENDBRANCH   1  13
TORSDOF 6
ENDMDL
MODEL 3
REMARK VINA RESULT:      -7.4      2.884      4.065
REMARK  Name = 
REMARK  6 active torsions:
REMARK  status: ('A' for Active; 'I' for Inactive)
REMARK    1  A    between atoms: C_2  and  C_3
REMARK    2  A    between atoms: C_2  and  C_15
REMARK    3  A    between atoms: C_3  and  C_4
REMARK    4  A    between atoms: C_4  and  C_5
REMARK    5  A    between atoms: C_4  and  C_8
REMARK    6  A    between atoms: C_5  and  O_7
REMARK                            x       y       z     vdW  Elec       q    Type
REMARK                         _______ _______ _______ _____ _____    ______ ____
ROOT
ATOM      1  C   UNL     1       4.280   3.709  19.023  0.00  0.00    +0.000 C 
ENDROOT
BRANCH   1   2
ATOM      2  C   UNL     1       5.149   4.109  17.832  0.00  0.00    +0.000 A 
ATOM      3  C   UNL     1       4.632   4.020  16.528  0.00  0.00    +0.000 A 
ATOM      4  C   UNL     1       5.416   4.373  15.425  0.00  0.00    +0.000 A 
ATOM      5  C   UNL     1       6.718   4.814  15.620  0.00  0.00    +0.000 A 
ATOM      6  F   UNL     1       7.466   5.151  14.563  0.00  0.00    +0.000 F 
ATOM      7  C   UNL     1       7.251   4.914  16.898  0.00  0.00    +0.000 A 
ATOM      8  C   UNL     1       6.471   4.561  18.000  0.00  0.00    +0.000 A 
ENDBRANCH   1   2
BRANCH   1   9
ATOM      9  C   UNL     1       4.255   2.196  19.261  0.00  0.00    +0.000 C 
ATOM     10  O   UNL     1       3.486   1.412  18.722  0.00  0.00    +0.000 OA
BRANCH   9  11
ATOM     11  O   UNL     1       5.126   1.782  20.214  0.00  0.00    +0.000 OA
ATOM     12  H   UNL     1       4.703   1.567  21.080  0.00  0.00    +0.000 HD
ENDBRANCH   9  11
ENDBRANCH   1   9
BRANCH   1  13
ATOM     13  C   UNL     1       2.836   4.217  18.853  0.00  0.00    +0.000 C 
BRANCH  13  15
ATOM     14  O   UNL     1       2.423   4.776  21.138  0.00  0.00    +0.000 OA
ATOM     15  C   UNL     1       2.463   5.175  19.970  0.00  0.00    +0.000 C 
BRANCH  15  16
ATOM     16  C   UNL     1       2.119   6.598  19.659  0.00  0.00    +0.000 A 
ATOM     17  C   UNL     1       2.425   7.089  18.380  0.00  0.00    +0.000 A 
ATOM     18  C   UNL     1       2.163   8.422  18.046  0.00  0.00    +0.000 A 
ATOM     19  C   UNL     1       1.597   9.273  18.990  0.00  0.00    +0.000 A 
ATOM     20 CL   UNL     1       1.283  10.916  18.589  0.00  0.00    +0.000 Cl
ATOM     21  C   UNL     1       1.284   8.799  20.262  0.00  0.00    +0.000 A 
ATOM     22  C   UNL     1       1.538   7.462  20.596  0.00  0.00    +0.000 A 
ENDBRANCH  15  16
ENDBRANCH  13  15
ENDBRANCH   1  13
TORSDOF 6
ENDMDL
MODEL 4
REMARK VINA RESULT:      -7.4      2.809      4.084
REMARK  Name = 
REMARK  6 active torsions:
REMARK  status: ('A' for Active; 'I' for Inactive)
REMARK    1  A    between atoms: C_2  and  C_3
REMARK    2  A    between atoms: C_2  and  C_15
REMARK    3  A    between atoms: C_3  and  C_4
REMARK    4  A    between atoms: C_4  and  C_5
REMARK    5  A    between atoms: C_4  and  C_8
REMARK    6  A    between atoms: C_5  and  O_7
REMARK                            x       y       z     vdW  Elec       q    Type
REMARK                         _______ _______ _______ _____ _____    ______ ____
ROOT
ATOM      1  C   UNL     1       4.395   3.923  19.022  0.00  0.00    +0.000 C 
ENDROOT
BRANCH   1   2
ATOM      2  C   UNL     1       5.226   4.226  17.775  0.00  0.00    +0.000 A 
ATOM      3  C   UNL     1       6.614   4.416  17.890  0.00  0.00    +0.000 A 
ATOM      4  C   UNL     1       7.389   4.703  16.762  0.00  0.00    +0.000 A 
ATOM      5  C   UNL     1       6.781   4.801  15.517  0.00  0.00    +0.000 A 
ATOM      6  F   UNL     1       7.525   5.076  14.440  0.00  0.00    +0.000 F 
ATOM      7  C   UNL     1       5.413   4.613  15.377  0.00  0.00    +0.000 A 
ATOM      8  C   UNL     1       4.637   4.328  16.502  0.00  0.00    +0.000 A 
ENDBRANCH   1   2
BRANCH   1   9
ATOM      9  C   UNL     1       4.456   2.448  19.433  0.00  0.00    +0.000 C 
ATOM     10  O   UNL     1       4.943   2.027  20.473  0.00  0.00    +0.000 OA
BRANCH   9  11
ATOM     11  O   UNL     1       3.987   1.601  18.484  0.00  0.00    +0.000 OA
ATOM     12  H   UNL     1       3.235   1.962  17.957  0.00  0.00    +0.000 HD
ENDBRANCH   9  11
ENDBRANCH   1   9
BRANCH   1  13
ATOM     13  C   UNL     1       2.924   4.331  18.821  0.00  0.00    +0.000 C 
BRANCH  13  15
ATOM     14  O   UNL     1       2.363   4.808  21.093  0.00  0.00    +0.000 OA
ATOM     15  C   UNL     1       2.457   5.243  19.941  0.00  0.00    +0.000 C 
BRANCH  15  16
ATOM     16  C   UNL     1       2.086   6.664  19.651  0.00  0.00    +0.000 A 
ATOM     17  C   UNL     1       2.331   7.162  18.361  0.00  0.00    +0.000 A 
ATOM     18  C   UNL     1       2.041   8.493  18.044  0.00  0.00    +0.000 A 
ATOM     19  C   UNL     1       1.508   9.336  19.016  0.00  0.00    +0.000 A 
ATOM     20 CL   UNL     1       1.162  10.976  18.635  0.00  0.00    +0.000 Cl
ATOM     21  C   UNL     1       1.257   8.854  20.298  0.00  0.00    +0.000 A 
ATOM     22  C   UNL     1       1.538   7.519  20.616  0.00  0.00    +0.000 A 
ENDBRANCH  15  16
ENDBRANCH  13  15
ENDBRANCH   1  13
TORSDOF 6
ENDMDL
MODEL 5
REMARK VINA RESULT:      -7.3      3.647      5.676
REMARK  Name = 
REMARK  6 active torsions:
REMARK  status: ('A' for Active; 'I' for Inactive)
REMARK    1  A    between atoms: C_2  and  C_3
REMARK    2  A    between atoms: C_2  and  C_15
REMARK    3  A    between atoms: C_3  and  C_4
REMARK    4  A    between atoms: C_4  and  C_5
REMARK    5  A    between atoms: C_4  and  C_8
REMARK    6  A    between atoms: C_5  and  O_7
REMARK                            x       y       z     vdW  Elec       q    Type
REMARK                         _______ _______ _______ _____ _____    ______ ____
ROOT
ATOM      1  C   UNL     1       2.809   5.925  18.013  0.00  0.00    +0.000 C 
ENDROOT
BRANCH   1   2
ATOM      2  C   UNL     1       2.274   4.959  19.069  0.00  0.00    +0.000 A 
ATOM      3  C   UNL     1       2.746   5.036  20.391  0.00  0.00    +0.000 A 
ATOM      4  C   UNL     1       2.274   4.155  21.369  0.00  0.00    +0.000 A 
ATOM      5  C   UNL     1       1.331   3.194  21.030  0.00  0.00    +0.000 A 
ATOM      6  F   UNL     1       0.881   2.352  21.967  0.00  0.00    +0.000 F 
ATOM      7  C   UNL     1       0.845   3.100  19.733  0.00  0.00    +0.000 A 
ATOM      8  C   UNL     1       1.316   3.977  18.755  0.00  0.00    +0.000 A 
ENDBRANCH   1   2
BRANCH   1   9
ATOM      9  C   UNL     1       4.013   5.363  17.249  0.00  0.00    +0.000 C 
ATOM     10  O   UNL     1       4.418   4.211  17.323  0.00  0.00    +0.000 OA
BRANCH   9  11
ATOM     11  O   UNL     1       4.676   6.295  16.521  0.00  0.00    +0.000 OA
ATOM     12  H   UNL     1       4.907   6.002  15.607  0.00  0.00    +0.000 HD
ENDBRANCH   9  11
ENDBRANCH   1   9
BRANCH   1  13
ATOM     13  C   UNL     1       3.196   7.277  18.641  0.00  0.00    +0.000 C 
BRANCH  13  15
ATOM     14  O   UNL     1       1.886   8.708  17.249  0.00  0.00    +0.000 OA
ATOM     15  C   UNL     1       2.117   8.316  18.397  0.00  0.00    +0.000 C 
BRANCH  15  16
ATOM     16  C   UNL     1       1.347   8.888  19.546  0.00  0.00    +0.000 A 
ATOM     17  C   UNL     1       1.482   8.276  20.803  0.00  0.00    +0.000 A 
ATOM     18  C   UNL     1       0.757   8.743  21.904  0.00  0.00    +0.000 A 
ATOM     19  C   UNL     1      -0.111   9.822  21.754  0.00  0.00    +0.000 A 
ATOM     20 CL   UNL     1      -1.014  10.391  23.103  0.00  0.00    +0.000 Cl
ATOM     21  C   UNL     1      -0.251  10.441  20.515  0.00  0.00    +0.000 A 
ATOM     22  C   UNL     1       0.481   9.980  19.412  0.00  0.00    +0.000 A 
ENDBRANCH  15  16
ENDBRANCH  13  15
ENDBRANCH   1  13
TORSDOF 6
ENDMDL
MODEL 6
REMARK VINA RESULT:      -7.3      3.633      5.676
REMARK  Name = 
REMARK  6 active torsions:
REMARK  status: ('A' for Active; 'I' for Inactive)
REMARK    1  A    between atoms: C_2  and  C_3
REMARK    2  A    between atoms: C_2  and  C_15
REMARK    3  A    between atoms: C_3  and  C_4
REMARK    4  A    between atoms: C_4  and  C_5
REMARK    5  A    between atoms: C_4  and  C_8
REMARK    6  A    between atoms: C_5  and  O_7
REMARK                            x       y       z     vdW  Elec       q    Type
REMARK                         _______ _______ _______ _____ _____    ______ ____
ROOT
ATOM      1  C   UNL     1       2.848   5.874  17.968  0.00  0.00    +0.000 C 
ENDROOT
BRANCH   1   2
ATOM      2  C   UNL     1       2.335   4.933  19.057  0.00  0.00    +0.000 A 
ATOM      3  C   UNL     1       1.345   3.983  18.752  0.00  0.00    +0.000 A 
ATOM      4  C   UNL     1       0.857   3.119  19.738  0.00  0.00    +0.000 A 
ATOM      5  C   UNL     1       1.356   3.203  21.031  0.00  0.00    +0.000 A 
ATOM      6  F   UNL     1       0.888   2.376  21.973  0.00  0.00    +0.000 F 
ATOM      7  C   UNL     1       2.336   4.129  21.358  0.00  0.00    +0.000 A 
ATOM      8  C   UNL     1       2.823   4.993  20.376  0.00  0.00    +0.000 A 
ENDBRANCH   1   2
BRANCH   1   9
ATOM      9  C   UNL     1       4.009   5.278  17.165  0.00  0.00    +0.000 C 
ATOM     10  O   UNL     1       4.297   4.090  17.121  0.00  0.00    +0.000 OA
BRANCH   9  11
ATOM     11  O   UNL     1       4.778   6.210  16.551  0.00  0.00    +0.000 OA
ATOM     12  H   UNL     1       4.504   7.141  16.731  0.00  0.00    +0.000 HD
ENDBRANCH   9  11
ENDBRANCH   1   9
BRANCH   1  13
ATOM     13  C   UNL     1       3.287   7.225  18.562  0.00  0.00    +0.000 C 
BRANCH  13  15
ATOM     14  O   UNL     1       2.011   8.751  17.239  0.00  0.00    +0.000 OA
ATOM     15  C   UNL     1       2.212   8.279  18.362  0.00  0.00    +0.000 C 
BRANCH  15  16
ATOM     16  C   UNL     1       1.409   8.768  19.527  0.00  0.00    +0.000 A 
ATOM     17  C   UNL     1       0.572   9.879  19.334  0.00  0.00    +0.000 A 
ATOM     18  C   UNL     1      -0.172  10.403  20.396  0.00  0.00    +0.000 A 
ATOM     19  C   UNL     1      -0.080   9.824  21.659  0.00  0.00    +0.000 A 
ATOM     20 CL   UNL     1      -0.983  10.474  22.970  0.00  0.00    +0.000 Cl
ATOM     21  C   UNL     1       0.744   8.720  21.864  0.00  0.00    +0.000 A 
ATOM     22  C   UNL     1       1.483   8.187  20.800  0.00  0.00    +0.000 A 
ENDBRANCH  15  16
ENDBRANCH  13  15
ENDBRANCH   1  13
TORSDOF 6
ENDMDL
MODEL 7
REMARK VINA RESULT:      -7.3      2.441      3.560
REMARK  Name = 
REMARK  6 active torsions:
REMARK  status: ('A' for Active; 'I' for Inactive)
REMARK    1  A    between atoms: C_2  and  C_3
REMARK    2  A    between atoms: C_2  and  C_15
REMARK    3  A    between atoms: C_3  and  C_4
REMARK    4  A    between atoms: C_4  and  C_5
REMARK    5  A    between atoms: C_4  and  C_8
REMARK    6  A    between atoms: C_5  and  O_7
REMARK                            x       y       z     vdW  Elec       q    Type
REMARK                         _______ _______ _______ _____ _____    ______ ____
ROOT
ATOM      1  C   UNL     1       4.201   4.360  19.284  0.00  0.00    +0.000 C 
ENDROOT
BRANCH   1   2
ATOM      2  C   UNL     1       5.283   5.267  18.700  0.00  0.00    +0.000 A 
ATOM      3  C   UNL     1       5.020   6.006  17.533  0.00  0.00    +0.000 A 
ATOM      4  C   UNL     1       6.001   6.835  16.979  0.00  0.00    +0.000 A 
ATOM      5  C   UNL     1       7.246   6.927  17.587  0.00  0.00    +0.000 A 
ATOM      6  F   UNL     1       8.183   7.720  17.055  0.00  0.00    +0.000 F 
ATOM      7  C   UNL     1       7.529   6.211  18.742  0.00  0.00    +0.000 A 
ATOM      8  C   UNL     1       6.552   5.382  19.295  0.00  0.00    +0.000 A 
ENDBRANCH   1   2
BRANCH   1   9
ATOM      9  C   UNL     1       4.348   2.899  18.845  0.00  0.00    +0.000 C 
ATOM     10  O   UNL     1       3.830   2.408  17.852  0.00  0.00    +0.000 OA
BRANCH   9  11
ATOM     11  O   UNL     1       5.054   2.139  19.718  0.00  0.00    +0.000 OA
ATOM     12  H   UNL     1       4.671   2.109  20.627  0.00  0.00    +0.000 HD
ENDBRANCH   9  11
ENDBRANCH   1   9
BRANCH   1  13
ATOM     13  C   UNL     1       2.793   4.860  18.909  0.00  0.00    +0.000 C 
BRANCH  13  15
ATOM     14  O   UNL     1       2.038   5.386  21.113  0.00  0.00    +0.000 OA
ATOM     15  C   UNL     1       2.252   5.801  19.970  0.00  0.00    +0.000 C 
BRANCH  15  16
ATOM     16  C   UNL     1       1.954   7.229  19.630  0.00  0.00    +0.000 A 
ATOM     17  C   UNL     1       1.366   8.035  20.619  0.00  0.00    +0.000 A 
ATOM     18  C   UNL     1       1.030   9.365  20.347  0.00  0.00    +0.000 A 
ATOM     19  C   UNL     1       1.274   9.896  19.083  0.00  0.00    +0.000 A 
ATOM     20 CL   UNL     1       0.850  11.527  18.739  0.00  0.00    +0.000 Cl
ATOM     21  C   UNL     1       1.860   9.109  18.094  0.00  0.00    +0.000 A 
ATOM     22  C   UNL     1       2.206   7.779  18.367  0.00  0.00    +0.000 A 
ENDBRANCH  15  16
ENDBRANCH  13  15
ENDBRANCH   1  13
TORSDOF 6
ENDMDL
MODEL 8
REMARK VINA RESULT:      -7.3      0.610      1.605
REMARK  Name = 
REMARK  6 active torsions:
REMARK  status: ('A' for Active; 'I' for Inactive)
REMARK    1  A    between atoms: C_2  and  C_3
REMARK    2  A    between atoms: C_2  and  C_15
REMARK    3  A    between atoms: C_3  and  C_4
REMARK    4  A    between atoms: C_4  and  C_5
REMARK    5  A    between atoms: C_4  and  C_8
REMARK    6  A    between atoms: C_5  and  O_7
REMARK                            x       y       z     vdW  Elec       q    Type
REMARK                         _______ _______ _______ _____ _____    ______ ____
ROOT
ATOM      1  C   UNL     1       5.734   4.037  16.043  0.00  0.00    +0.000 C 
ENDROOT
BRANCH   1   2
ATOM      2  C   UNL     1       6.503   5.082  16.850  0.00  0.00    +0.000 A 
ATOM      3  C   UNL     1       7.328   4.677  17.914  0.00  0.00    +0.000 A 
ATOM      4  C   UNL     1       8.032   5.619  18.669  0.00  0.00    +0.000 A 
ATOM      5  C   UNL     1       7.914   6.969  18.366  0.00  0.00    +0.000 A 
ATOM      6  F   UNL     1       8.588   7.870  19.090  0.00  0.00    +0.000 F 
ATOM      7  C   UNL     1       7.108   7.396  17.319  0.00  0.00    +0.000 A 
ATOM      8  C   UNL     1       6.404   6.456  16.564  0.00  0.00    +0.000 A 
ENDBRANCH   1   2
BRANCH   1   9
ATOM      9  C   UNL     1       6.056   4.087  14.546  0.00  0.00    +0.000 C 
ATOM     10  O   UNL     1       7.178   4.195  14.071  0.00  0.00    +0.000 OA
BRANCH   9  11
ATOM     11  O   UNL     1       4.955   4.089  13.754  0.00  0.00    +0.000 OA
ATOM     12  H   UNL     1       4.110   4.241  14.240  0.00  0.00    +0.000 HD
ENDBRANCH   9  11
ENDBRANCH   1   9
BRANCH   1  13
ATOM     13  C   UNL     1       4.214   4.192  16.238  0.00  0.00    +0.000 C 
BRANCH  13  15
ATOM     14  O   UNL     1       4.020   2.686  18.082  0.00  0.00    +0.000 OA
ATOM     15  C   UNL     1       3.809   3.826  17.654  0.00  0.00    +0.000 C 
BRANCH  15  16
ATOM     16  C   UNL     1       3.132   4.833  18.530  0.00  0.00    +0.000 A 
ATOM     17  C   UNL     1       3.105   6.170  18.101  0.00  0.00    +0.000 A 
ATOM     18  C   UNL     1       2.521   7.162  18.896  0.00  0.00    +0.000 A 
ATOM     19  C   UNL     1       1.964   6.824  20.127  0.00  0.00    +0.000 A 
ATOM     20 CL   UNL     1       1.256   8.041  21.114  0.00  0.00    +0.000 Cl
ATOM     21  C   UNL     1       1.981   5.501  20.563  0.00  0.00    +0.000 A 
ATOM     22  C   UNL     1       2.558   4.505  19.764  0.00  0.00    +0.000 A 
ENDBRANCH  15  16
ENDBRANCH  13  15
ENDBRANCH   1  13
TORSDOF 6
ENDMDL
MODEL 9
REMARK VINA RESULT:      -7.3      2.962      3.994
REMARK  Name = 
REMARK  6 active torsions:
REMARK  status: ('A' for Active; 'I' for Inactive)
REMARK    1  A    between atoms: C_2  and  C_3
REMARK    2  A    between atoms: C_2  and  C_15
REMARK    3  A    between atoms: C_3  and  C_4
REMARK    4  A    between atoms: C_4  and  C_5
REMARK    5  A    between atoms: C_4  and  C_8
REMARK    6  A    between atoms: C_5  and  O_7
REMARK                            x       y       z     vdW  Elec       q    Type
REMARK                         _______ _______ _______ _____ _____    ______ ____
ROOT
ATOM      1  C   UNL     1       5.065   5.427  18.007  0.00  0.00    +0.000 C 
ENDROOT
BRANCH   1   2
ATOM      2  C   UNL     1       5.611   5.088  16.620  0.00  0.00    +0.000 A 
ATOM      3  C   UNL     1       4.810   4.381  15.707  0.00  0.00    +0.000 A 
ATOM      4  C   UNL     1       5.296   4.055  14.437  0.00  0.00    +0.000 A 
ATOM      5  C   UNL     1       6.583   4.433  14.076  0.00  0.00    +0.000 A 
ATOM      6  F   UNL     1       7.046   4.119  12.860  0.00  0.00    +0.000 F 
ATOM      7  C   UNL     1       7.392   5.135  14.958  0.00  0.00    +0.000 A 
ATOM      8  C   UNL     1       6.910   5.460  16.227  0.00  0.00    +0.000 A 
ENDBRANCH   1   2
BRANCH   1   9
ATOM      9  C   UNL     1       5.850   4.752  19.137  0.00  0.00    +0.000 C 
ATOM     10  O   UNL     1       6.758   5.272  19.771  0.00  0.00    +0.000 OA
BRANCH   9  11
ATOM     11  O   UNL     1       5.510   3.454  19.333  0.00  0.00    +0.000 OA
ATOM     12  H   UNL     1       5.566   3.161  20.274  0.00  0.00    +0.000 HD
ENDBRANCH   9  11
ENDBRANCH   1   9
BRANCH   1  13
ATOM     13  C   UNL     1       3.578   5.044  18.127  0.00  0.00    +0.000 C 
BRANCH  13  15
ATOM     14  O   UNL     1       2.890   5.113  20.413  0.00  0.00    +0.000 OA
ATOM     15  C   UNL     1       2.943   5.711  19.334  0.00  0.00    +0.000 C 
BRANCH  15  16
ATOM     16  C   UNL     1       2.357   7.083  19.216  0.00  0.00    +0.000 A 
ATOM     17  C   UNL     1       1.774   7.654  20.359  0.00  0.00    +0.000 A 
ATOM     18  C   UNL     1       1.177   8.917  20.299  0.00  0.00    +0.000 A 
ATOM     19  C   UNL     1       1.154   9.615  19.094  0.00  0.00    +0.000 A 
ATOM     20 CL   UNL     1       0.409  11.164  19.012  0.00  0.00    +0.000 Cl
ATOM     21  C   UNL     1       1.732   9.063  17.954  0.00  0.00    +0.000 A 
ATOM     22  C   UNL     1       2.338   7.801  18.014  0.00  0.00    +0.000 A 
ENDBRANCH  15  16
ENDBRANCH  13  15
ENDBRANCH   1  13
TORSDOF 6
ENDMDL
