MODEL 1
REMARK VINA RESULT:      -8.7      0.000      0.000
REMARK  Name = 
REMARK  8 active torsions:
REMARK  status: ('A' for Active; 'I' for Inactive)
REMARK    1  A    between atoms: C_1  and  O_2
REMARK    2  A    between atoms: O_2  and  C_3
REMARK    3  A    between atoms: C_10  and  C_11
REMARK    4  A    between atoms: C_11  and  S_12
REMARK    5  A    between atoms: S_12  and  C_13
REMARK    6  A    between atoms: C_15  and  C_16
REMARK    7  A    between atoms: N_23  and  C_24
REMARK    8  A    between atoms: C_27  and  C_28
REMARK                            x       y       z     vdW  Elec       q    Type
REMARK                         _______ _______ _______ _____ _____    ______ ____
ROOT
ATOM      1  C   UNL     1       3.343   3.274  19.556  0.00  0.00    +0.000 A 
ATOM      2  C   UNL     1       2.587   2.987  20.703  0.00  0.00    +0.000 A 
ATOM      3  C   UNL     1       1.771   3.958  21.285  0.00  0.00    +0.000 A 
ATOM      4  C   UNL     1       1.705   5.231  20.729  0.00  0.00    +0.000 A 
ATOM      5  C   UNL     1       2.469   5.536  19.599  0.00  0.00    +0.000 A 
ATOM      6  C   UNL     1       3.309   4.568  18.993  0.00  0.00    +0.000 A 
ATOM      7  N   UNL     1       4.104   4.890  17.842  0.00  0.00    +0.000 NA
ATOM      8  C   UNL     1       4.054   6.101  17.341  0.00  0.00    +0.000 A 
ATOM      9  N   UNL     1       3.225   7.091  17.897  0.00  0.00    +0.000 N 
ATOM     10  N   UNL     1       3.092   8.356  17.425  0.00  0.00    +0.000 NA
ATOM     11  C   UNL     1       2.203   8.921  18.256  0.00  0.00    +0.000 A 
ATOM     12  C   UNL     1       1.774  10.330  18.084  0.00  0.00    +0.000 C 
ATOM     13  C   UNL     1       1.765   8.026  19.255  0.00  0.00    +0.000 A 
ATOM     14  C   UNL     1       2.432   6.856  18.997  0.00  0.00    +0.000 A 
ENDROOT
BRANCH   1  16
ATOM     15  C   UNL     1       3.530   1.206  18.407  0.00  0.00    +0.000 C 
ATOM     16  O   UNL     1       4.172   2.350  18.962  0.00  0.00    +0.000 OA
ENDBRANCH   1  16
BRANCH   8  17
ATOM     17  C   UNL     1       4.894   6.538  16.159  0.00  0.00    +0.000 C 
BRANCH  17  18
ATOM     18  S   UNL     1       6.559   5.831  16.352  0.00  0.00    +0.000 S 
BRANCH  18  19
ATOM     19  C   UNL     1       7.381   6.979  17.360  0.00  0.00    +0.000 A 
ATOM     20  N   UNL     1       7.554   8.266  17.144  0.00  0.00    +0.000 NA
ATOM     21  C   UNL     1       8.290   8.725  18.224  0.00  0.00    +0.000 A 
ATOM     22  C   UNL     1       8.531   7.697  19.111  0.00  0.00    +0.000 A 
ATOM     23  N   UNL     1       7.949   6.594  18.549  0.00  0.00    +0.000 N 
ATOM     24  C   UNL     1       7.938   5.280  19.144  0.00  0.00    +0.000 C 
BRANCH  21  25
ATOM     25  C   UNL     1       8.722  10.101  18.416  0.00  0.00    +0.000 A 
ATOM     26  C   UNL     1       8.282  11.101  17.540  0.00  0.00    +0.000 A 
ATOM     27  C   UNL     1       8.679  12.430  17.722  0.00  0.00    +0.000 A 
ATOM     28  C   UNL     1       9.526  12.772  18.777  0.00  0.00    +0.000 A 
ATOM     29  C   UNL     1       9.971  11.789  19.655  0.00  0.00    +0.000 A 
ATOM     30  C   UNL     1       9.568  10.462  19.478  0.00  0.00    +0.000 A 
ENDBRANCH  21  25
ENDBRANCH  18  19
ENDBRANCH  17  18
ENDBRANCH   8  17
TORSDOF 5
ENDMDL
MODEL 2
REMARK VINA RESULT:      -8.1      3.557      8.091
REMARK  Name = 
REMARK  8 active torsions:
REMARK  status: ('A' for Active; 'I' for Inactive)
REMARK    1  A    between atoms: C_1  and  O_2
REMARK    2  A    between atoms: O_2  and  C_3
REMARK    3  A    between atoms: C_10  and  C_11
REMARK    4  A    between atoms: C_11  and  S_12
REMARK    5  A    between atoms: S_12  and  C_13
REMARK    6  A    between atoms: C_15  and  C_16
REMARK    7  A    between atoms: N_23  and  C_24
REMARK    8  A    between atoms: C_27  and  C_28
REMARK                            x       y       z     vdW  Elec       q    Type
REMARK                         _______ _______ _______ _____ _____    ______ ____
ROOT
ATOM      1  C   UNL     1       6.228   6.368  16.551  0.00  0.00    +0.000 A 
ATOM      2  C   UNL     1       7.030   5.478  15.819  0.00  0.00    +0.000 A 
ATOM      3  C   UNL     1       6.652   4.146  15.650  0.00  0.00    +0.000 A 
ATOM      4  C   UNL     1       5.469   3.684  16.216  0.00  0.00    +0.000 A 
ATOM      5  C   UNL     1       4.672   4.555  16.965  0.00  0.00    +0.000 A 
ATOM      6  C   UNL     1       5.037   5.911  17.155  0.00  0.00    +0.000 A 
ATOM      7  N   UNL     1       4.223   6.797  17.938  0.00  0.00    +0.000 NA
ATOM      8  C   UNL     1       3.121   6.346  18.488  0.00  0.00    +0.000 A 
ATOM      9  N   UNL     1       2.710   5.013  18.317  0.00  0.00    +0.000 N 
ATOM     10  N   UNL     1       1.573   4.474  18.825  0.00  0.00    +0.000 NA
ATOM     11  C   UNL     1       1.598   3.202  18.399  0.00  0.00    +0.000 A 
ATOM     12  C   UNL     1       0.514   2.251  18.745  0.00  0.00    +0.000 C 
ATOM     13  C   UNL     1       2.741   2.924  17.620  0.00  0.00    +0.000 A 
ATOM     14  C   UNL     1       3.434   4.106  17.577  0.00  0.00    +0.000 A 
ENDROOT
BRANCH   1  16
ATOM     15  C   UNL     1       7.744   7.905  17.537  0.00  0.00    +0.000 C 
ATOM     16  O   UNL     1       6.574   7.684  16.755  0.00  0.00    +0.000 OA
ENDBRANCH   1  16
BRANCH   8  17
ATOM     17  C   UNL     1       2.231   7.199  19.367  0.00  0.00    +0.000 C 
BRANCH  17  18
ATOM     18  S   UNL     1       2.461   8.940  18.892  0.00  0.00    +0.000 S 
BRANCH  18  19
ATOM     19  C   UNL     1       0.852   9.586  18.896  0.00  0.00    +0.000 A 
ATOM     20  N   UNL     1       0.024   9.698  17.878  0.00  0.00    +0.000 NA
ATOM     21  C   UNL     1      -1.115  10.295  18.393  0.00  0.00    +0.000 A 
ATOM     22  C   UNL     1      -0.970  10.514  19.747  0.00  0.00    +0.000 A 
ATOM     23  N   UNL     1       0.284  10.060  20.052  0.00  0.00    +0.000 N 
ATOM     24  C   UNL     1       0.862  10.074  21.374  0.00  0.00    +0.000 C 
BRANCH  21  25
ATOM     25  C   UNL     1      -2.309  10.619  17.626  0.00  0.00    +0.000 A 
ATOM     26  C   UNL     1      -3.290  11.452  18.177  0.00  0.00    +0.000 A 
ATOM     27  C   UNL     1      -4.435  11.782  17.445  0.00  0.00    +0.000 A 
ATOM     28  C   UNL     1      -4.616  11.274  16.157  0.00  0.00    +0.000 A 
ATOM     29  C   UNL     1      -3.650  10.445  15.598  0.00  0.00    +0.000 A 
ATOM     30  C   UNL     1      -2.501  10.122  16.326  0.00  0.00    +0.000 A 
ENDBRANCH  21  25
ENDBRANCH  18  19
ENDBRANCH  17  18
ENDBRANCH   8  17
TORSDOF 5
ENDMDL
MODEL 3
REMARK VINA RESULT:      -8.0      3.694      7.704
REMARK  Name = 
REMARK  8 active torsions:
REMARK  status: ('A' for Active; 'I' for Inactive)
REMARK    1  A    between atoms: C_1  and  O_2
REMARK    2  A    between atoms: O_2  and  C_3
REMARK    3  A    between atoms: C_10  and  C_11
REMARK    4  A    between atoms: C_11  and  S_12
REMARK    5  A    between atoms: S_12  and  C_13
REMARK    6  A    between atoms: C_15  and  C_16
REMARK    7  A    between atoms: N_23  and  C_24
REMARK    8  A    between atoms: C_27  and  C_28
REMARK                            x       y       z     vdW  Elec       q    Type
REMARK                         _______ _______ _______ _____ _____    ______ ____
ROOT
ATOM      1  C   UNL     1       6.375   6.415  16.593  0.00  0.00    +0.000 A 
ATOM      2  C   UNL     1       7.193   5.431  16.015  0.00  0.00    +0.000 A 
ATOM      3  C   UNL     1       6.782   4.099  15.961  0.00  0.00    +0.000 A 
ATOM      4  C   UNL     1       5.549   3.732  16.489  0.00  0.00    +0.000 A 
ATOM      5  C   UNL     1       4.734   4.699  17.086  0.00  0.00    +0.000 A 
ATOM      6  C   UNL     1       5.132   6.058  17.158  0.00  0.00    +0.000 A 
ATOM      7  N   UNL     1       4.299   7.044  17.786  0.00  0.00    +0.000 NA
ATOM      8  C   UNL     1       3.149   6.683  18.303  0.00  0.00    +0.000 A 
ATOM      9  N   UNL     1       2.705   5.351  18.244  0.00  0.00    +0.000 N 
ATOM     10  N   UNL     1       1.519   4.900  18.727  0.00  0.00    +0.000 NA
ATOM     11  C   UNL     1       1.529   3.589  18.439  0.00  0.00    +0.000 A 
ATOM     12  C   UNL     1       0.393   2.710  18.807  0.00  0.00    +0.000 C 
ATOM     13  C   UNL     1       2.711   3.200  17.773  0.00  0.00    +0.000 A 
ATOM     14  C   UNL     1       3.445   4.351  17.655  0.00  0.00    +0.000 A 
ENDROOT
BRANCH   1  16
ATOM     15  C   UNL     1       7.808   8.021  17.593  0.00  0.00    +0.000 C 
ATOM     16  O   UNL     1       6.751   7.736  16.681  0.00  0.00    +0.000 OA
ENDBRANCH   1  16
BRANCH   8  17
ATOM     17  C   UNL     1       2.232   7.649  19.025  0.00  0.00    +0.000 C 
BRANCH  17  18
ATOM     18  S   UNL     1       1.622   8.865  17.817  0.00  0.00    +0.000 S 
BRANCH  18  19
ATOM     19  C   UNL     1       0.942  10.120  18.802  0.00  0.00    +0.000 A 
ATOM     20  N   UNL     1      -0.076  10.033  19.632  0.00  0.00    +0.000 NA
ATOM     21  C   UNL     1      -0.239  11.308  20.150  0.00  0.00    +0.000 A 
ATOM     22  C   UNL     1       0.720  12.158  19.640  0.00  0.00    +0.000 A 
ATOM     23  N   UNL     1       1.462  11.390  18.784  0.00  0.00    +0.000 N 
ATOM     24  C   UNL     1       2.597  11.866  18.031  0.00  0.00    +0.000 C 
BRANCH  21  25
ATOM     25  C   UNL     1      -1.254  11.692  21.119  0.00  0.00    +0.000 A 
ATOM     26  C   UNL     1      -2.383  12.407  20.703  0.00  0.00    +0.000 A 
ATOM     27  C   UNL     1      -3.373  12.770  21.622  0.00  0.00    +0.000 A 
ATOM     28  C   UNL     1      -3.239  12.430  22.970  0.00  0.00    +0.000 A 
ATOM     29  C   UNL     1      -2.122  11.721  23.397  0.00  0.00    +0.000 A 
ATOM     30  C   UNL     1      -1.137  11.350  22.477  0.00  0.00    +0.000 A 
ENDBRANCH  21  25
ENDBRANCH  18  19
ENDBRANCH  17  18
ENDBRANCH   8  17
TORSDOF 5
ENDMDL
MODEL 4
REMARK VINA RESULT:      -7.9      6.163      9.512
REMARK  Name = 
REMARK  8 active torsions:
REMARK  status: ('A' for Active; 'I' for Inactive)
REMARK    1  A    between atoms: C_1  and  O_2
REMARK    2  A    between atoms: O_2  and  C_3
REMARK    3  A    between atoms: C_10  and  C_11
REMARK    4  A    between atoms: C_11  and  S_12
REMARK    5  A    between atoms: S_12  and  C_13
REMARK    6  A    between atoms: C_15  and  C_16
REMARK    7  A    between atoms: N_23  and  C_24
REMARK    8  A    between atoms: C_27  and  C_28
REMARK                            x       y       z     vdW  Elec       q    Type
REMARK                         _______ _______ _______ _____ _____    ______ ____
ROOT
ATOM      1  C   UNL     1      -4.637  12.997  21.549  0.00  0.00    +0.000 A 
ATOM      2  C   UNL     1      -6.036  13.079  21.627  0.00  0.00    +0.000 A 
ATOM      3  C   UNL     1      -6.837  12.689  20.553  0.00  0.00    +0.000 A 
ATOM      4  C   UNL     1      -6.249  12.219  19.384  0.00  0.00    +0.000 A 
ATOM      5  C   UNL     1      -4.856  12.153  19.286  0.00  0.00    +0.000 A 
ATOM      6  C   UNL     1      -4.020  12.547  20.361  0.00  0.00    +0.000 A 
ATOM      7  N   UNL     1      -2.591  12.492  20.250  0.00  0.00    +0.000 NA
ATOM      8  C   UNL     1      -2.045  12.070  19.135  0.00  0.00    +0.000 A 
ATOM      9  N   UNL     1      -2.831  11.655  18.046  0.00  0.00    +0.000 N 
ATOM     10  N   UNL     1      -2.350  11.179  16.870  0.00  0.00    +0.000 NA
ATOM     11  C   UNL     1      -3.452  10.906  16.155  0.00  0.00    +0.000 A 
ATOM     12  C   UNL     1      -3.362  10.357  14.780  0.00  0.00    +0.000 C 
ATOM     13  C   UNL     1      -4.634  11.201  16.865  0.00  0.00    +0.000 A 
ATOM     14  C   UNL     1      -4.207  11.674  18.079  0.00  0.00    +0.000 A 
ENDROOT
BRANCH   1  16
ATOM     15  C   UNL     1      -3.727  12.488  23.681  0.00  0.00    +0.000 C 
ATOM     16  O   UNL     1      -3.811  13.387  22.579  0.00  0.00    +0.000 OA
ENDBRANCH   1  16
BRANCH   8  17
ATOM     17  C   UNL     1      -0.547  12.025  18.916  0.00  0.00    +0.000 C 
BRANCH  17  18
ATOM     18  S   UNL     1       0.261  11.876  20.540  0.00  0.00    +0.000 S 
BRANCH  18  19
ATOM     19  C   UNL     1       0.770  10.219  20.597  0.00  0.00    +0.000 A 
ATOM     20  N   UNL     1       1.412   9.539  19.671  0.00  0.00    +0.000 NA
ATOM     21  C   UNL     1       1.559   8.261  20.187  0.00  0.00    +0.000 A 
ATOM     22  C   UNL     1       1.020   8.193  21.454  0.00  0.00    +0.000 A 
ATOM     23  N   UNL     1       0.521   9.443  21.701  0.00  0.00    +0.000 N 
ATOM     24  C   UNL     1      -0.125   9.839  22.929  0.00  0.00    +0.000 C 
BRANCH  21  25
ATOM     25  C   UNL     1       2.215   7.156  19.506  0.00  0.00    +0.000 A 
ATOM     26  C   UNL     1       2.147   5.864  20.041  0.00  0.00    +0.000 A 
ATOM     27  C   UNL     1       2.761   4.790  19.390  0.00  0.00    +0.000 A 
ATOM     28  C   UNL     1       3.460   4.999  18.199  0.00  0.00    +0.000 A 
ATOM     29  C   UNL     1       3.536   6.276  17.655  0.00  0.00    +0.000 A 
ATOM     30  C   UNL     1       2.914   7.348  18.302  0.00  0.00    +0.000 A 
ENDBRANCH  21  25
ENDBRANCH  18  19
ENDBRANCH  17  18
ENDBRANCH   8  17
TORSDOF 5
ENDMDL
MODEL 5
REMARK VINA RESULT:      -7.9      3.753      8.295
REMARK  Name = 
REMARK  8 active torsions:
REMARK  status: ('A' for Active; 'I' for Inactive)
REMARK    1  A    between atoms: C_1  and  O_2
REMARK    2  A    between atoms: O_2  and  C_3
REMARK    3  A    between atoms: C_10  and  C_11
REMARK    4  A    between atoms: C_11  and  S_12
REMARK    5  A    between atoms: S_12  and  C_13
REMARK    6  A    between atoms: C_15  and  C_16
REMARK    7  A    between atoms: N_23  and  C_24
REMARK    8  A    between atoms: C_27  and  C_28
REMARK                            x       y       z     vdW  Elec       q    Type
REMARK                         _______ _______ _______ _____ _____    ______ ____
ROOT
ATOM      1  C   UNL     1       6.403   6.754  16.985  0.00  0.00    +0.000 A 
ATOM      2  C   UNL     1       7.392   5.869  16.529  0.00  0.00    +0.000 A 
ATOM      3  C   UNL     1       7.156   4.495  16.474  0.00  0.00    +0.000 A 
ATOM      4  C   UNL     1       5.926   3.987  16.880  0.00  0.00    +0.000 A 
ATOM      5  C   UNL     1       4.939   4.856  17.356  0.00  0.00    +0.000 A 
ATOM      6  C   UNL     1       5.158   6.254  17.426  0.00  0.00    +0.000 A 
ATOM      7  N   UNL     1       4.147   7.140  17.930  0.00  0.00    +0.000 NA
ATOM      8  C   UNL     1       3.000   6.649  18.334  0.00  0.00    +0.000 A 
ATOM      9  N   UNL     1       2.731   5.270  18.271  0.00  0.00    +0.000 N 
ATOM     10  N   UNL     1       1.564   4.684  18.639  0.00  0.00    +0.000 NA
ATOM     11  C   UNL     1       1.765   3.380  18.396  0.00  0.00    +0.000 A 
ATOM     12  C   UNL     1       0.712   2.373  18.669  0.00  0.00    +0.000 C 
ATOM     13  C   UNL     1       3.051   3.128  17.872  0.00  0.00    +0.000 A 
ATOM     14  C   UNL     1       3.648   4.360  17.796  0.00  0.00    +0.000 A 
ENDROOT
BRANCH   1  16
ATOM     15  C   UNL     1       7.840   8.524  17.644  0.00  0.00    +0.000 C 
ATOM     16  O   UNL     1       6.602   8.113  17.071  0.00  0.00    +0.000 OA
ENDBRANCH   1  16
BRANCH   8  17
ATOM     17  C   UNL     1       1.898   7.505  18.923  0.00  0.00    +0.000 C 
BRANCH  17  18
ATOM     18  S   UNL     1       2.027   9.171  18.203  0.00  0.00    +0.000 S 
BRANCH  18  19
ATOM     19  C   UNL     1       0.495   9.898  18.568  0.00  0.00    +0.000 A 
ATOM     20  N   UNL     1      -0.530  10.071  17.761  0.00  0.00    +0.000 NA
ATOM     21  C   UNL     1      -1.493  10.716  18.520  0.00  0.00    +0.000 A 
ATOM     22  C   UNL     1      -1.041  10.901  19.809  0.00  0.00    +0.000 A 
ATOM     23  N   UNL     1       0.224  10.378  19.825  0.00  0.00    +0.000 N 
ATOM     24  C   UNL     1       1.080  10.338  20.986  0.00  0.00    +0.000 C 
BRANCH  21  25
ATOM     25  C   UNL     1      -2.807  11.115  18.039  0.00  0.00    +0.000 A 
ATOM     26  C   UNL     1      -3.170  10.868  16.710  0.00  0.00    +0.000 A 
ATOM     27  C   UNL     1      -4.436  11.233  16.239  0.00  0.00    +0.000 A 
ATOM     28  C   UNL     1      -5.349  11.857  17.092  0.00  0.00    +0.000 A 
ATOM     29  C   UNL     1      -5.002  12.108  18.414  0.00  0.00    +0.000 A 
ATOM     30  C   UNL     1      -3.740  11.735  18.887  0.00  0.00    +0.000 A 
ENDBRANCH  21  25
ENDBRANCH  18  19
ENDBRANCH  17  18
ENDBRANCH   8  17
TORSDOF 5
ENDMDL
MODEL 6
REMARK VINA RESULT:      -7.6      3.420      5.426
REMARK  Name = 
REMARK  8 active torsions:
REMARK  status: ('A' for Active; 'I' for Inactive)
REMARK    1  A    between atoms: C_1  and  O_2
REMARK    2  A    between atoms: O_2  and  C_3
REMARK    3  A    between atoms: C_10  and  C_11
REMARK    4  A    between atoms: C_11  and  S_12
REMARK    5  A    between atoms: S_12  and  C_13
REMARK    6  A    between atoms: C_15  and  C_16
REMARK    7  A    between atoms: N_23  and  C_24
REMARK    8  A    between atoms: C_27  and  C_28
REMARK                            x       y       z     vdW  Elec       q    Type
REMARK                         _______ _______ _______ _____ _____    ______ ____
ROOT
ATOM      1  C   UNL     1       2.929   2.979  19.158  0.00  0.00    +0.000 A 
ATOM      2  C   UNL     1       2.365   2.184  20.169  0.00  0.00    +0.000 A 
ATOM      3  C   UNL     1       1.602   2.755  21.188  0.00  0.00    +0.000 A 
ATOM      4  C   UNL     1       1.397   4.131  21.213  0.00  0.00    +0.000 A 
ATOM      5  C   UNL     1       1.971   4.935  20.224  0.00  0.00    +0.000 A 
ATOM      6  C   UNL     1       2.754   4.380  19.181  0.00  0.00    +0.000 A 
ATOM      7  N   UNL     1       3.353   5.212  18.177  0.00  0.00    +0.000 NA
ATOM      8  C   UNL     1       3.175   6.510  18.224  0.00  0.00    +0.000 A 
ATOM      9  N   UNL     1       2.396   7.107  19.229  0.00  0.00    +0.000 N 
ATOM     10  N   UNL     1       2.137   8.435  19.334  0.00  0.00    +0.000 NA
ATOM     11  C   UNL     1       1.357   8.530  20.422  0.00  0.00    +0.000 A 
ATOM     12  C   UNL     1       0.845   9.839  20.892  0.00  0.00    +0.000 C 
ATOM     13  C   UNL     1       1.113   7.272  21.012  0.00  0.00    +0.000 A 
ATOM     14  C   UNL     1       1.785   6.375  20.223  0.00  0.00    +0.000 A 
ENDROOT
BRANCH   1  16
ATOM     15  C   UNL     1       3.999   1.067  18.246  0.00  0.00    +0.000 C 
ATOM     16  O   UNL     1       3.701   2.457  18.146  0.00  0.00    +0.000 OA
ENDBRANCH   1  16
BRANCH   8  17
ATOM     17  C   UNL     1       3.810   7.465  17.233  0.00  0.00    +0.000 C 
BRANCH  17  18
ATOM     18  S   UNL     1       5.617   7.315  17.378  0.00  0.00    +0.000 S 
BRANCH  18  19
ATOM     19  C   UNL     1       6.007   5.987  16.333  0.00  0.00    +0.000 A 
ATOM     20  N   UNL     1       5.560   5.759  15.116  0.00  0.00    +0.000 NA
ATOM     21  C   UNL     1       6.147   4.566  14.725  0.00  0.00    +0.000 A 
ATOM     22  C   UNL     1       6.979   4.095  15.718  0.00  0.00    +0.000 A 
ATOM     23  N   UNL     1       6.880   5.007  16.733  0.00  0.00    +0.000 N 
ATOM     24  C   UNL     1       7.600   4.926  17.981  0.00  0.00    +0.000 C 
BRANCH  21  25
ATOM     25  C   UNL     1       5.942   3.916  13.439  0.00  0.00    +0.000 A 
ATOM     26  C   UNL     1       7.039   3.435  12.716  0.00  0.00    +0.000 A 
ATOM     27  C   UNL     1       6.855   2.796  11.485  0.00  0.00    +0.000 A 
ATOM     28  C   UNL     1       5.570   2.639  10.961  0.00  0.00    +0.000 A 
ATOM     29  C   UNL     1       4.471   3.111  11.669  0.00  0.00    +0.000 A 
ATOM     30  C   UNL     1       4.654   3.743  12.903  0.00  0.00    +0.000 A 
ENDBRANCH  21  25
ENDBRANCH  18  19
ENDBRANCH  17  18
ENDBRANCH   8  17
TORSDOF 5
ENDMDL
MODEL 7
REMARK VINA RESULT:      -7.5      3.708      7.535
REMARK  Name = 
REMARK  8 active torsions:
REMARK  status: ('A' for Active; 'I' for Inactive)
REMARK    1  A    between atoms: C_1  and  O_2
REMARK    2  A    between atoms: O_2  and  C_3
REMARK    3  A    between atoms: C_10  and  C_11
REMARK    4  A    between atoms: C_11  and  S_12
REMARK    5  A    between atoms: S_12  and  C_13
REMARK    6  A    between atoms: C_15  and  C_16
REMARK    7  A    between atoms: N_23  and  C_24
REMARK    8  A    between atoms: C_27  and  C_28
REMARK                            x       y       z     vdW  Elec       q    Type
REMARK                         _______ _______ _______ _____ _____    ______ ____
ROOT
ATOM      1  C   UNL     1       6.221   6.358  16.467  0.00  0.00    +0.000 A 
ATOM      2  C   UNL     1       7.022   5.370  15.872  0.00  0.00    +0.000 A 
ATOM      3  C   UNL     1       6.607   4.039  15.833  0.00  0.00    +0.000 A 
ATOM      4  C   UNL     1       5.387   3.676  16.394  0.00  0.00    +0.000 A 
ATOM      5  C   UNL     1       4.590   4.647  17.008  0.00  0.00    +0.000 A 
ATOM      6  C   UNL     1       4.991   6.005  17.065  0.00  0.00    +0.000 A 
ATOM      7  N   UNL     1       4.177   6.994  17.710  0.00  0.00    +0.000 NA
ATOM      8  C   UNL     1       3.040   6.638  18.258  0.00  0.00    +0.000 A 
ATOM      9  N   UNL     1       2.591   5.306  18.215  0.00  0.00    +0.000 N 
ATOM     10  N   UNL     1       1.418   4.859  18.729  0.00  0.00    +0.000 NA
ATOM     11  C   UNL     1       1.418   3.548  18.446  0.00  0.00    +0.000 A 
ATOM     12  C   UNL     1       0.290   2.672  18.845  0.00  0.00    +0.000 C 
ATOM     13  C   UNL     1       2.581   3.154  17.752  0.00  0.00    +0.000 A 
ATOM     14  C   UNL     1       3.315   4.303  17.611  0.00  0.00    +0.000 A 
ENDROOT
BRANCH   1  16
ATOM     15  C   UNL     1       7.617   7.979  17.495  0.00  0.00    +0.000 C 
ATOM     16  O   UNL     1       6.601   7.678  16.542  0.00  0.00    +0.000 OA
ENDBRANCH   1  16
BRANCH   8  17
ATOM     17  C   UNL     1       2.143   7.608  19.000  0.00  0.00    +0.000 C 
BRANCH  17  18
ATOM     18  S   UNL     1       1.980   9.115  17.994  0.00  0.00    +0.000 S 
BRANCH  18  19
ATOM     19  C   UNL     1       0.787  10.048  18.838  0.00  0.00    +0.000 A 
ATOM     20  N   UNL     1       0.947  10.764  19.932  0.00  0.00    +0.000 NA
ATOM     21  C   UNL     1      -0.303  11.290  20.215  0.00  0.00    +0.000 A 
ATOM     22  C   UNL     1      -1.214  10.902  19.255  0.00  0.00    +0.000 A 
ATOM     23  N   UNL     1      -0.508  10.113  18.388  0.00  0.00    +0.000 N 
ATOM     24  C   UNL     1      -1.060   9.494  17.207  0.00  0.00    +0.000 C 
BRANCH  21  25
ATOM     25  C   UNL     1      -0.610  12.154  21.345  0.00  0.00    +0.000 A 
ATOM     26  C   UNL     1       0.000  13.409  21.452  0.00  0.00    +0.000 A 
ATOM     27  C   UNL     1      -0.296  14.255  22.525  0.00  0.00    +0.000 A 
ATOM     28  C   UNL     1      -1.201  13.850  23.509  0.00  0.00    +0.000 A 
ATOM     29  C   UNL     1      -1.815  12.606  23.415  0.00  0.00    +0.000 A 
ATOM     30  C   UNL     1      -1.525  11.764  22.338  0.00  0.00    +0.000 A 
ENDBRANCH  21  25
ENDBRANCH  18  19
ENDBRANCH  17  18
ENDBRANCH   8  17
TORSDOF 5
ENDMDL
MODEL 8
REMARK VINA RESULT:      -7.5      3.304      6.328
REMARK  Name = 
REMARK  8 active torsions:
REMARK  status: ('A' for Active; 'I' for Inactive)
REMARK    1  A    between atoms: C_1  and  O_2
REMARK    2  A    between atoms: O_2  and  C_3
REMARK    3  A    between atoms: C_10  and  C_11
REMARK    4  A    between atoms: C_11  and  S_12
REMARK    5  A    between atoms: S_12  and  C_13
REMARK    6  A    between atoms: C_15  and  C_16
REMARK    7  A    between atoms: N_23  and  C_24
REMARK    8  A    between atoms: C_27  and  C_28
REMARK                            x       y       z     vdW  Elec       q    Type
REMARK                         _______ _______ _______ _____ _____    ______ ____
ROOT
ATOM      1  C   UNL     1       6.398   6.473  16.633  0.00  0.00    +0.000 A 
ATOM      2  C   UNL     1       7.221   5.513  16.022  0.00  0.00    +0.000 A 
ATOM      3  C   UNL     1       6.821   4.180  15.930  0.00  0.00    +0.000 A 
ATOM      4  C   UNL     1       5.593   3.787  16.453  0.00  0.00    +0.000 A 
ATOM      5  C   UNL     1       4.774   4.729  17.082  0.00  0.00    +0.000 A 
ATOM      6  C   UNL     1       5.160   6.088  17.193  0.00  0.00    +0.000 A 
ATOM      7  N   UNL     1       4.322   7.048  17.854  0.00  0.00    +0.000 NA
ATOM      8  C   UNL     1       3.177   6.662  18.366  0.00  0.00    +0.000 A 
ATOM      9  N   UNL     1       2.744   5.329  18.269  0.00  0.00    +0.000 N 
ATOM     10  N   UNL     1       1.565   4.853  18.744  0.00  0.00    +0.000 NA
ATOM     11  C   UNL     1       1.585   3.552  18.417  0.00  0.00    +0.000 A 
ATOM     12  C   UNL     1       0.458   2.652  18.764  0.00  0.00    +0.000 C 
ATOM     13  C   UNL     1       2.766   3.192  17.735  0.00  0.00    +0.000 A 
ATOM     14  C   UNL     1       3.490   4.353  17.647  0.00  0.00    +0.000 A 
ENDROOT
BRANCH   1  16
ATOM     15  C   UNL     1       7.907   8.047  17.569  0.00  0.00    +0.000 C 
ATOM     16  O   UNL     1       6.762   7.794  16.759  0.00  0.00    +0.000 OA
ENDBRANCH   1  16
BRANCH   8  17
ATOM     17  C   UNL     1       2.256   7.598  19.120  0.00  0.00    +0.000 C 
BRANCH  17  18
ATOM     18  S   UNL     1       1.324   8.580  17.905  0.00  0.00    +0.000 S 
BRANCH  18  19
ATOM     19  C   UNL     1       1.415  10.198  18.524  0.00  0.00    +0.000 A 
ATOM     20  N   UNL     1       2.010  11.239  17.980  0.00  0.00    +0.000 NA
ATOM     21  C   UNL     1       1.820  12.281  18.873  0.00  0.00    +0.000 A 
ATOM     22  C   UNL     1       1.073  11.857  19.951  0.00  0.00    +0.000 A 
ATOM     23  N   UNL     1       0.825  10.531  19.717  0.00  0.00    +0.000 N 
ATOM     24  C   UNL     1       0.053   9.676  20.587  0.00  0.00    +0.000 C 
BRANCH  21  25
ATOM     25  C   UNL     1       2.309  13.639  18.688  0.00  0.00    +0.000 A 
ATOM     26  C   UNL     1       3.601  13.857  18.196  0.00  0.00    +0.000 A 
ATOM     27  C   UNL     1       4.078  15.157  18.000  0.00  0.00    +0.000 A 
ATOM     28  C   UNL     1       3.269  16.254  18.304  0.00  0.00    +0.000 A 
ATOM     29  C   UNL     1       1.983  16.053  18.793  0.00  0.00    +0.000 A 
ATOM     30  C   UNL     1       1.504  14.753  18.981  0.00  0.00    +0.000 A 
ENDBRANCH  21  25
ENDBRANCH  18  19
ENDBRANCH  17  18
ENDBRANCH   8  17
TORSDOF 5
ENDMDL
MODEL 9
REMARK VINA RESULT:      -7.5      6.054      9.315
REMARK  Name = 
REMARK  8 active torsions:
REMARK  status: ('A' for Active; 'I' for Inactive)
REMARK    1  A    between atoms: C_1  and  O_2
REMARK    2  A    between atoms: O_2  and  C_3
REMARK    3  A    between atoms: C_10  and  C_11
REMARK    4  A    between atoms: C_11  and  S_12
REMARK    5  A    between atoms: S_12  and  C_13
REMARK    6  A    between atoms: C_15  and  C_16
REMARK    7  A    between atoms: N_23  and  C_24
REMARK    8  A    between atoms: C_27  and  C_28
REMARK                            x       y       z     vdW  Elec       q    Type
REMARK                         _______ _______ _______ _____ _____    ______ ____
ROOT
ATOM      1  C   UNL     1      -5.262  12.388  20.367  0.00  0.00    +0.000 A 
ATOM      2  C   UNL     1      -6.655  12.446  20.203  0.00  0.00    +0.000 A 
ATOM      3  C   UNL     1      -7.251  12.060  19.003  0.00  0.00    +0.000 A 
ATOM      4  C   UNL     1      -6.462  11.616  17.947  0.00  0.00    +0.000 A 
ATOM      5  C   UNL     1      -5.072  11.574  18.091  0.00  0.00    +0.000 A 
ATOM      6  C   UNL     1      -4.441  11.965  19.299  0.00  0.00    +0.000 A 
ATOM      7  N   UNL     1      -3.013  11.935  19.436  0.00  0.00    +0.000 NA
ATOM      8  C   UNL     1      -2.275  11.539  18.426  0.00  0.00    +0.000 A 
ATOM      9  N   UNL     1      -2.854  11.127  17.213  0.00  0.00    +0.000 N 
ATOM     10  N   UNL     1      -2.168  10.676  16.132  0.00  0.00    +0.000 NA
ATOM     11  C   UNL     1      -3.125  10.397  15.234  0.00  0.00    +0.000 A 
ATOM     12  C   UNL     1      -2.790   9.869  13.890  0.00  0.00    +0.000 C 
ATOM     13  C   UNL     1      -4.418  10.662  15.734  0.00  0.00    +0.000 A 
ATOM     14  C   UNL     1      -4.216  11.124  17.008  0.00  0.00    +0.000 A 
ENDROOT
BRANCH   1  16
ATOM     15  C   UNL     1      -4.482  14.180  21.714  0.00  0.00    +0.000 C 
ATOM     16  O   UNL     1      -4.633  12.776  21.529  0.00  0.00    +0.000 OA
ENDBRANCH   1  16
BRANCH   8  17
ATOM     17  C   UNL     1      -0.761  11.521  18.469  0.00  0.00    +0.000 C 
BRANCH  17  18
ATOM     18  S   UNL     1      -0.245  11.221  20.187  0.00  0.00    +0.000 S 
BRANCH  18  19
ATOM     19  C   UNL     1       0.683   9.759  20.090  0.00  0.00    +0.000 A 
ATOM     20  N   UNL     1       1.241   9.226  19.023  0.00  0.00    +0.000 NA
ATOM     21  C   UNL     1       1.840   8.057  19.465  0.00  0.00    +0.000 A 
ATOM     22  C   UNL     1       1.659   7.911  20.825  0.00  0.00    +0.000 A 
ATOM     23  N   UNL     1       0.922   8.999  21.208  0.00  0.00    +0.000 N 
ATOM     24  C   UNL     1       0.507   9.272  22.563  0.00  0.00    +0.000 C 
BRANCH  21  25
ATOM     25  C   UNL     1       2.582   7.129  18.626  0.00  0.00    +0.000 A 
ATOM     26  C   UNL     1       3.627   7.597  17.820  0.00  0.00    +0.000 A 
ATOM     27  C   UNL     1       4.358   6.714  17.019  0.00  0.00    +0.000 A 
ATOM     28  C   UNL     1       4.045   5.353  17.009  0.00  0.00    +0.000 A 
ATOM     29  C   UNL     1       3.010   4.874  17.804  0.00  0.00    +0.000 A 
ATOM     30  C   UNL     1       2.285   5.756  18.611  0.00  0.00    +0.000 A 
ENDBRANCH  21  25
ENDBRANCH  18  19
ENDBRANCH  17  18
ENDBRANCH   8  17
TORSDOF 5
ENDMDL
