MODEL 1
REMARK VINA RESULT:      -7.8      0.000      0.000
REMARK  Name = 
REMARK  8 active torsions:
REMARK  status: ('A' for Active; 'I' for Inactive)
REMARK    1  A    between atoms: C_2  and  C_3
REMARK    2  A    between atoms: C_3  and  C_4
REMARK    3  A    between atoms: C_3  and  N_8
REMARK    4  A    between atoms: C_4  and  C_5
REMARK    5  A    between atoms: C_9  and  C_11
REMARK    6  A    between atoms: C_16  and  O_18
REMARK    7  A    between atoms: O_18  and  C_19
REMARK    8  A    between atoms: C_19  and  C_20
REMARK                            x       y       z     vdW  Elec       q    Type
REMARK                         _______ _______ _______ _____ _____    ______ ____
ROOT
ATOM      1  C   UNL     1       6.225   6.063  17.334  0.00  0.00    +0.000 C 
ATOM      2  C   UNL     1       7.628   6.642  17.541  0.00  0.00    +0.000 C 
ATOM      3  C   UNL     1       7.855   6.537  19.044  0.00  0.00    +0.000 C 
ATOM      4  C   UNL     1       7.039   5.323  19.468  0.00  0.00    +0.000 C 
ATOM      5  N   UNL     1       6.200   4.995  18.334  0.00  0.00    +0.000 N 
ATOM      6  C   UNL     1       5.184   4.084  18.509  0.00  0.00    +0.000 C 
ATOM      7  O   UNL     1       5.145   3.310  19.459  0.00  0.00    +0.000 OA
ENDROOT
BRANCH   1   9
ATOM      8  N   UNL     1       6.760   4.588  15.414  0.00  0.00    +0.000 N 
ATOM      9  C   UNL     1       6.050   5.677  15.852  0.00  0.00    +0.000 C 
ATOM     10  O   UNL     1       5.402   6.381  15.078  0.00  0.00    +0.000 OA
ATOM     11  H   UNL     1       7.489   4.214  16.022  0.00  0.00    +0.000 HD
BRANCH   8  12
ATOM     12  C   UNL     1       6.764   4.175  14.014  0.00  0.00    +0.000 C 
BRANCH  12  14
ATOM     13  N   UNL     1       8.219   5.816  12.539  0.00  0.00    +0.000 NA
ATOM     14  C   UNL     1       7.572   5.085  13.164  0.00  0.00    +0.000 C 
ENDBRANCH  12  14
BRANCH  12  15
ATOM     15  C   UNL     1       5.351   4.028  13.441  0.00  0.00    +0.000 C 
BRANCH  15  16
ATOM     16  C   UNL     1       5.346   3.199  12.177  0.00  0.00    +0.000 C 
ATOM     17  N   UNL     1       4.214   3.286  11.427  0.00  0.00    +0.000 N 
ATOM     18  O   UNL     1       6.292   2.513  11.803  0.00  0.00    +0.000 OA
ATOM     19  H   UNL     1       3.486   3.968  11.589  0.00  0.00    +0.000 HD
ATOM     20  H   UNL     1       4.194   2.766  10.557  0.00  0.00    +0.000 HD
ENDBRANCH  15  16
ENDBRANCH  12  15
ENDBRANCH   8  12
ENDBRANCH   1   9
BRANCH   6  21
ATOM     21  O   UNL     1       4.286   4.114  17.499  0.00  0.00    +0.000 OA
BRANCH  21  22
ATOM     22  C   UNL     1       2.906   4.149  17.882  0.00  0.00    +0.000 C 
BRANCH  22  23
ATOM     23  C   UNL     1       2.591   5.404  18.659  0.00  0.00    +0.000 A 
ATOM     24  C   UNL     1       2.249   5.304  20.016  0.00  0.00    +0.000 A 
ATOM     25  C   UNL     1       1.854   6.432  20.738  0.00  0.00    +0.000 A 
ATOM     26  C   UNL     1       1.790   7.674  20.109  0.00  0.00    +0.000 A 
ATOM     27  C   UNL     1       2.140   7.784  18.765  0.00  0.00    +0.000 A 
ATOM     28 BR   UNL     1       2.052   9.470  17.913  0.00  0.00    +0.000 Br
ATOM     29  C   UNL     1       2.537   6.661  18.037  0.00  0.00    +0.000 A 
ENDBRANCH  22  23
ENDBRANCH  21  22
ENDBRANCH   6  21
TORSDOF 8
ENDMDL
MODEL 2
REMARK VINA RESULT:      -7.7      2.200      4.154
REMARK  Name = 
REMARK  8 active torsions:
REMARK  status: ('A' for Active; 'I' for Inactive)
REMARK    1  A    between atoms: C_2  and  C_3
REMARK    2  A    between atoms: C_3  and  C_4
REMARK    3  A    between atoms: C_3  and  N_8
REMARK    4  A    between atoms: C_4  and  C_5
REMARK    5  A    between atoms: C_9  and  C_11
REMARK    6  A    between atoms: C_16  and  O_18
REMARK    7  A    between atoms: O_18  and  C_19
REMARK    8  A    between atoms: C_19  and  C_20
REMARK                            x       y       z     vdW  Elec       q    Type
REMARK                         _______ _______ _______ _____ _____    ______ ____
ROOT
ATOM      1  C   UNL     1       3.995   3.933  19.462  0.00  0.00    +0.000 C 
ATOM      2  C   UNL     1       4.116   2.407  19.404  0.00  0.00    +0.000 C 
ATOM      3  C   UNL     1       2.674   1.924  19.302  0.00  0.00    +0.000 C 
ATOM      4  C   UNL     1       1.948   3.047  18.574  0.00  0.00    +0.000 C 
ATOM      5  N   UNL     1       2.863   4.170  18.565  0.00  0.00    +0.000 N 
ATOM      6  C   UNL     1       2.388   5.403  18.180  0.00  0.00    +0.000 C 
ATOM      7  O   UNL     1       1.345   5.544  17.553  0.00  0.00    +0.000 OA
ENDROOT
BRANCH   1   9
ATOM      8  N   UNL     1       5.699   4.557  17.771  0.00  0.00    +0.000 N 
ATOM      9  C   UNL     1       5.354   4.563  19.100  0.00  0.00    +0.000 C 
ATOM     10  O   UNL     1       6.138   4.941  19.970  0.00  0.00    +0.000 OA
ATOM     11  H   UNL     1       5.143   3.987  17.134  0.00  0.00    +0.000 HD
BRANCH   8  12
ATOM     12  C   UNL     1       6.998   5.029  17.304  0.00  0.00    +0.000 C 
BRANCH  12  14
ATOM     13  N   UNL     1       7.021   7.656  17.024  0.00  0.00    +0.000 NA
ATOM     14  C   UNL     1       7.037   6.505  17.151  0.00  0.00    +0.000 C 
ENDBRANCH  12  14
BRANCH  12  15
ATOM     15  C   UNL     1       7.439   4.348  16.004  0.00  0.00    +0.000 C 
BRANCH  15  16
ATOM     16  C   UNL     1       6.613   4.811  14.825  0.00  0.00    +0.000 C 
ATOM     17  N   UNL     1       7.322   5.313  13.778  0.00  0.00    +0.000 N 
ATOM     18  O   UNL     1       5.391   4.723  14.767  0.00  0.00    +0.000 OA
ATOM     19  H   UNL     1       8.327   5.241  13.696  0.00  0.00    +0.000 HD
ATOM     20  H   UNL     1       6.798   5.602  12.961  0.00  0.00    +0.000 HD
ENDBRANCH  15  16
ENDBRANCH  12  15
ENDBRANCH   8  12
ENDBRANCH   1   9
BRANCH   6  21
ATOM     21  O   UNL     1       3.223   6.407  18.528  0.00  0.00    +0.000 OA
BRANCH  21  22
ATOM     22  C   UNL     1       3.008   7.663  17.872  0.00  0.00    +0.000 C 
BRANCH  22  23
ATOM     23  C   UNL     1       1.919   8.452  18.558  0.00  0.00    +0.000 A 
ATOM     24  C   UNL     1       1.097   9.296  17.795  0.00  0.00    +0.000 A 
ATOM     25  C   UNL     1       0.149  10.116  18.410  0.00  0.00    +0.000 A 
ATOM     26  C   UNL     1       0.014  10.106  19.797  0.00  0.00    +0.000 A 
ATOM     27  C   UNL     1       0.817   9.262  20.561  0.00  0.00    +0.000 A 
ATOM     28 BR   UNL     1       0.634   9.251  22.443  0.00  0.00    +0.000 Br
ATOM     29  C   UNL     1       1.767   8.439  19.954  0.00  0.00    +0.000 A 
ENDBRANCH  22  23
ENDBRANCH  21  22
ENDBRANCH   6  21
TORSDOF 8
ENDMDL
MODEL 3
REMARK VINA RESULT:      -7.6      2.084      3.956
REMARK  Name = 
REMARK  8 active torsions:
REMARK  status: ('A' for Active; 'I' for Inactive)
REMARK    1  A    between atoms: C_2  and  C_3
REMARK    2  A    between atoms: C_3  and  C_4
REMARK    3  A    between atoms: C_3  and  N_8
REMARK    4  A    between atoms: C_4  and  C_5
REMARK    5  A    between atoms: C_9  and  C_11
REMARK    6  A    between atoms: C_16  and  O_18
REMARK    7  A    between atoms: O_18  and  C_19
REMARK    8  A    between atoms: C_19  and  C_20
REMARK                            x       y       z     vdW  Elec       q    Type
REMARK                         _______ _______ _______ _____ _____    ______ ____
ROOT
ATOM      1  C   UNL     1       4.050   4.016  19.535  0.00  0.00    +0.000 C 
ATOM      2  C   UNL     1       4.194   2.493  19.622  0.00  0.00    +0.000 C 
ATOM      3  C   UNL     1       2.761   1.980  19.537  0.00  0.00    +0.000 C 
ATOM      4  C   UNL     1       2.035   3.019  18.693  0.00  0.00    +0.000 C 
ATOM      5  N   UNL     1       2.934   4.150  18.598  0.00  0.00    +0.000 N 
ATOM      6  C   UNL     1       2.450   5.335  18.091  0.00  0.00    +0.000 C 
ATOM      7  O   UNL     1       1.418   5.401  17.432  0.00  0.00    +0.000 OA
ENDROOT
BRANCH   1   9
ATOM      8  N   UNL     1       5.742   4.580  17.813  0.00  0.00    +0.000 N 
ATOM      9  C   UNL     1       5.408   4.630  19.143  0.00  0.00    +0.000 C 
ATOM     10  O   UNL     1       6.199   5.035  19.994  0.00  0.00    +0.000 OA
ATOM     11  H   UNL     1       5.181   3.991  17.198  0.00  0.00    +0.000 HD
BRANCH   8  12
ATOM     12  C   UNL     1       7.040   5.034  17.321  0.00  0.00    +0.000 C 
BRANCH  12  14
ATOM     13  N   UNL     1       7.170   7.657  17.027  0.00  0.00    +0.000 NA
ATOM     14  C   UNL     1       7.089   6.507  17.145  0.00  0.00    +0.000 C 
ENDBRANCH  12  14
BRANCH  12  15
ATOM     15  C   UNL     1       7.457   4.330  16.025  0.00  0.00    +0.000 C 
BRANCH  15  16
ATOM     16  C   UNL     1       6.754   4.917  14.822  0.00  0.00    +0.000 C 
ATOM     17  N   UNL     1       7.568   5.490  13.895  0.00  0.00    +0.000 N 
ATOM     18  O   UNL     1       5.542   4.866  14.643  0.00  0.00    +0.000 OA
ATOM     19  H   UNL     1       8.575   5.399  13.900  0.00  0.00    +0.000 HD
ATOM     20  H   UNL     1       7.129   5.864  13.061  0.00  0.00    +0.000 HD
ENDBRANCH  15  16
ENDBRANCH  12  15
ENDBRANCH   8  12
ENDBRANCH   1   9
BRANCH   6  21
ATOM     21  O   UNL     1       3.263   6.380  18.360  0.00  0.00    +0.000 OA
BRANCH  21  22
ATOM     22  C   UNL     1       2.867   7.645  17.817  0.00  0.00    +0.000 C 
BRANCH  22  23
ATOM     23  C   UNL     1       1.976   8.392  18.780  0.00  0.00    +0.000 A 
ATOM     24  C   UNL     1       1.885   7.955  20.111  0.00  0.00    +0.000 A 
ATOM     25  C   UNL     1       0.995   8.559  21.001  0.00  0.00    +0.000 A 
ATOM     26  C   UNL     1       0.181   9.605  20.570  0.00  0.00    +0.000 A 
ATOM     27  C   UNL     1       0.274  10.053  19.254  0.00  0.00    +0.000 A 
ATOM     28 BR   UNL     1      -0.832  11.471  18.671  0.00  0.00    +0.000 Br
ATOM     29  C   UNL     1       1.162   9.454  18.359  0.00  0.00    +0.000 A 
ENDBRANCH  22  23
ENDBRANCH  21  22
ENDBRANCH   6  21
TORSDOF 8
ENDMDL
MODEL 4
REMARK VINA RESULT:      -7.4      1.088      1.470
REMARK  Name = 
REMARK  8 active torsions:
REMARK  status: ('A' for Active; 'I' for Inactive)
REMARK    1  A    between atoms: C_2  and  C_3
REMARK    2  A    between atoms: C_3  and  C_4
REMARK    3  A    between atoms: C_3  and  N_8
REMARK    4  A    between atoms: C_4  and  C_5
REMARK    5  A    between atoms: C_9  and  C_11
REMARK    6  A    between atoms: C_16  and  O_18
REMARK    7  A    between atoms: O_18  and  C_19
REMARK    8  A    between atoms: C_19  and  C_20
REMARK                            x       y       z     vdW  Elec       q    Type
REMARK                         _______ _______ _______ _____ _____    ______ ____
ROOT
ATOM      1  C   UNL     1       6.357   6.210  17.412  0.00  0.00    +0.000 C 
ATOM      2  C   UNL     1       7.778   6.764  17.551  0.00  0.00    +0.000 C 
ATOM      3  C   UNL     1       8.057   6.698  19.048  0.00  0.00    +0.000 C 
ATOM      4  C   UNL     1       7.232   5.515  19.536  0.00  0.00    +0.000 C 
ATOM      5  N   UNL     1       6.346   5.172  18.443  0.00  0.00    +0.000 N 
ATOM      6  C   UNL     1       5.318   4.288  18.682  0.00  0.00    +0.000 C 
ATOM      7  O   UNL     1       5.298   3.543  19.655  0.00  0.00    +0.000 OA
ENDROOT
BRANCH   1   9
ATOM      8  N   UNL     1       6.799   4.674  15.517  0.00  0.00    +0.000 N 
ATOM      9  C   UNL     1       6.120   5.786  15.950  0.00  0.00    +0.000 C 
ATOM     10  O   UNL     1       5.453   6.477  15.181  0.00  0.00    +0.000 OA
ATOM     11  H   UNL     1       7.545   4.307  16.106  0.00  0.00    +0.000 HD
BRANCH   8  12
ATOM     12  C   UNL     1       6.744   4.223  14.129  0.00  0.00    +0.000 C 
BRANCH  12  14
ATOM     13  N   UNL     1       8.113   5.783  12.494  0.00  0.00    +0.000 NA
ATOM     14  C   UNL     1       7.534   5.094  13.224  0.00  0.00    +0.000 C 
ENDBRANCH  12  14
BRANCH  12  15
ATOM     15  C   UNL     1       5.307   4.084  13.613  0.00  0.00    +0.000 C 
BRANCH  15  16
ATOM     16  C   UNL     1       5.253   3.296  12.324  0.00  0.00    +0.000 C 
ATOM     17  N   UNL     1       6.246   2.380  12.159  0.00  0.00    +0.000 N 
ATOM     18  O   UNL     1       4.371   3.419  11.481  0.00  0.00    +0.000 OA
ATOM     19  H   UNL     1       6.885   2.109  12.894  0.00  0.00    +0.000 HD
ATOM     20  H   UNL     1       6.218   1.814  11.320  0.00  0.00    +0.000 HD
ENDBRANCH  15  16
ENDBRANCH  12  15
ENDBRANCH   8  12
ENDBRANCH   1   9
BRANCH   6  21
ATOM     21  O   UNL     1       4.386   4.309  17.705  0.00  0.00    +0.000 OA
BRANCH  21  22
ATOM     22  C   UNL     1       3.022   4.411  18.134  0.00  0.00    +0.000 C 
BRANCH  22  23
ATOM     23  C   UNL     1       2.640   5.850  18.383  0.00  0.00    +0.000 A 
ATOM     24  C   UNL     1       2.874   6.806  17.382  0.00  0.00    +0.000 A 
ATOM     25  C   UNL     1       2.627   8.160  17.616  0.00  0.00    +0.000 A 
ATOM     26  C   UNL     1       2.147   8.576  18.856  0.00  0.00    +0.000 A 
ATOM     27  C   UNL     1       1.899   7.632  19.850  0.00  0.00    +0.000 A 
ATOM     28 BR   UNL     1       1.248   8.199  21.533  0.00  0.00    +0.000 Br
ATOM     29  C   UNL     1       2.143   6.277  19.624  0.00  0.00    +0.000 A 
ENDBRANCH  22  23
ENDBRANCH  21  22
ENDBRANCH   6  21
TORSDOF 8
ENDMDL
MODEL 5
REMARK VINA RESULT:      -7.2      2.929      5.652
REMARK  Name = 
REMARK  8 active torsions:
REMARK  status: ('A' for Active; 'I' for Inactive)
REMARK    1  A    between atoms: C_2  and  C_3
REMARK    2  A    between atoms: C_3  and  C_4
REMARK    3  A    between atoms: C_3  and  N_8
REMARK    4  A    between atoms: C_4  and  C_5
REMARK    5  A    between atoms: C_9  and  C_11
REMARK    6  A    between atoms: C_16  and  O_18
REMARK    7  A    between atoms: O_18  and  C_19
REMARK    8  A    between atoms: C_19  and  C_20
REMARK                            x       y       z     vdW  Elec       q    Type
REMARK                         _______ _______ _______ _____ _____    ______ ____
ROOT
ATOM      1  C   UNL     1       4.297   4.469  16.654  0.00  0.00    +0.000 C 
ATOM      2  C   UNL     1       5.075   3.263  16.119  0.00  0.00    +0.000 C 
ATOM      3  C   UNL     1       6.036   3.864  15.100  0.00  0.00    +0.000 C 
ATOM      4  C   UNL     1       6.309   5.269  15.619  0.00  0.00    +0.000 C 
ATOM      5  N   UNL     1       5.331   5.504  16.661  0.00  0.00    +0.000 N 
ATOM      6  C   UNL     1       5.185   6.782  17.151  0.00  0.00    +0.000 C 
ATOM      7  O   UNL     1       6.033   7.653  16.992  0.00  0.00    +0.000 OA
ENDROOT
BRANCH   1   9
ATOM      8  N   UNL     1       4.367   3.285  18.832  0.00  0.00    +0.000 N 
ATOM      9  C   UNL     1       3.637   4.091  17.995  0.00  0.00    +0.000 C 
ATOM     10  O   UNL     1       2.472   4.398  18.245  0.00  0.00    +0.000 OA
ATOM     11  H   UNL     1       5.204   2.837  18.459  0.00  0.00    +0.000 HD
BRANCH   8  12
ATOM     12  C   UNL     1       3.822   2.771  20.085  0.00  0.00    +0.000 C 
BRANCH  12  14
ATOM     13  N   UNL     1       5.534   1.151  21.278  0.00  0.00    +0.000 NA
ATOM     14  C   UNL     1       4.767   1.858  20.775  0.00  0.00    +0.000 C 
ENDBRANCH  12  14
BRANCH  12  15
ATOM     15  C   UNL     1       2.463   2.087  19.898  0.00  0.00    +0.000 C 
BRANCH  15  16
ATOM     16  C   UNL     1       1.424   2.645  20.844  0.00  0.00    +0.000 C 
ATOM     17  N   UNL     1       0.364   3.255  20.249  0.00  0.00    +0.000 N 
ATOM     18  O   UNL     1       1.482   2.541  22.064  0.00  0.00    +0.000 OA
ATOM     19  H   UNL     1       0.174   3.208  19.257  0.00  0.00    +0.000 HD
ATOM     20  H   UNL     1      -0.366   3.611  20.856  0.00  0.00    +0.000 HD
ENDBRANCH  15  16
ENDBRANCH  12  15
ENDBRANCH   8  12
ENDBRANCH   1   9
BRANCH   6  21
ATOM     21  O   UNL     1       4.043   6.935  17.856  0.00  0.00    +0.000 OA
BRANCH  21  22
ATOM     22  C   UNL     1       3.160   7.971  17.411  0.00  0.00    +0.000 C 
BRANCH  22  23
ATOM     23  C   UNL     1       2.254   8.428  18.528  0.00  0.00    +0.000 A 
ATOM     24  C   UNL     1       2.250   7.722  19.741  0.00  0.00    +0.000 A 
ATOM     25  C   UNL     1       1.353   8.054  20.758  0.00  0.00    +0.000 A 
ATOM     26  C   UNL     1       0.444   9.095  20.572  0.00  0.00    +0.000 A 
ATOM     27  C   UNL     1       0.450   9.809  19.376  0.00  0.00    +0.000 A 
ATOM     28 BR   UNL     1      -0.784  11.220  19.126  0.00  0.00    +0.000 Br
ATOM     29  C   UNL     1       1.344   9.483  18.356  0.00  0.00    +0.000 A 
ENDBRANCH  22  23
ENDBRANCH  21  22
ENDBRANCH   6  21
TORSDOF 8
ENDMDL
MODEL 6
REMARK VINA RESULT:      -7.2      2.935      5.617
REMARK  Name = 
REMARK  8 active torsions:
REMARK  status: ('A' for Active; 'I' for Inactive)
REMARK    1  A    between atoms: C_2  and  C_3
REMARK    2  A    between atoms: C_3  and  C_4
REMARK    3  A    between atoms: C_3  and  N_8
REMARK    4  A    between atoms: C_4  and  C_5
REMARK    5  A    between atoms: C_9  and  C_11
REMARK    6  A    between atoms: C_16  and  O_18
REMARK    7  A    between atoms: O_18  and  C_19
REMARK    8  A    between atoms: C_19  and  C_20
REMARK                            x       y       z     vdW  Elec       q    Type
REMARK                         _______ _______ _______ _____ _____    ______ ____
ROOT
ATOM      1  C   UNL     1       4.728   4.190  16.991  0.00  0.00    +0.000 C 
ATOM      2  C   UNL     1       5.709   3.348  16.169  0.00  0.00    +0.000 C 
ATOM      3  C   UNL     1       5.865   4.125  14.867  0.00  0.00    +0.000 C 
ATOM      4  C   UNL     1       5.653   5.580  15.266  0.00  0.00    +0.000 C 
ATOM      5  N   UNL     1       5.122   5.548  16.612  0.00  0.00    +0.000 N 
ATOM      6  C   UNL     1       4.612   6.709  17.147  0.00  0.00    +0.000 C 
ATOM      7  O   UNL     1       4.864   7.817  16.685  0.00  0.00    +0.000 OA
ENDROOT
BRANCH   1   9
ATOM      8  N   UNL     1       3.714   3.242  19.046  0.00  0.00    +0.000 N 
ATOM      9  C   UNL     1       4.837   3.788  18.475  0.00  0.00    +0.000 C 
ATOM     10  O   UNL     1       5.837   4.053  19.140  0.00  0.00    +0.000 OA
ATOM     11  H   UNL     1       2.836   3.302  18.531  0.00  0.00    +0.000 HD
BRANCH   8  12
ATOM     12  C   UNL     1       3.649   2.911  20.466  0.00  0.00    +0.000 C 
BRANCH  12  14
ATOM     13  N   UNL     1       5.466   1.138  21.197  0.00  0.00    +0.000 NA
ATOM     14  C   UNL     1       4.687   1.927  20.861  0.00  0.00    +0.000 C 
ENDBRANCH  12  14
BRANCH  12  15
ATOM     15  C   UNL     1       2.261   2.420  20.891  0.00  0.00    +0.000 C 
BRANCH  15  16
ATOM     16  C   UNL     1       1.183   2.917  19.956  0.00  0.00    +0.000 C 
ATOM     17  N   UNL     1       0.562   4.065  20.341  0.00  0.00    +0.000 N 
ATOM     18  O   UNL     1       0.887   2.372  18.898  0.00  0.00    +0.000 OA
ATOM     19  H   UNL     1       0.886   4.650  21.099  0.00  0.00    +0.000 HD
ATOM     20  H   UNL     1      -0.144   4.441  19.719  0.00  0.00    +0.000 HD
ENDBRANCH  15  16
ENDBRANCH  12  15
ENDBRANCH   8  12
ENDBRANCH   1   9
BRANCH   6  21
ATOM     21  O   UNL     1       3.860   6.483  18.246  0.00  0.00    +0.000 OA
BRANCH  21  22
ATOM     22  C   UNL     1       2.440   6.532  18.062  0.00  0.00    +0.000 C 
BRANCH  22  23
ATOM     23  C   UNL     1       1.860   7.794  18.652  0.00  0.00    +0.000 A 
ATOM     24  C   UNL     1       1.676   8.916  17.829  0.00  0.00    +0.000 A 
ATOM     25  C   UNL     1       1.238  10.129  18.363  0.00  0.00    +0.000 A 
ATOM     26  C   UNL     1       0.984  10.237  19.730  0.00  0.00    +0.000 A 
ATOM     27  C   UNL     1       1.152   9.125  20.552  0.00  0.00    +0.000 A 
ATOM     28 BR   UNL     1       0.807   9.273  22.405  0.00  0.00    +0.000 Br
ATOM     29  C   UNL     1       1.588   7.909  20.024  0.00  0.00    +0.000 A 
ENDBRANCH  22  23
ENDBRANCH  21  22
ENDBRANCH   6  21
TORSDOF 8
ENDMDL
MODEL 7
REMARK VINA RESULT:      -7.1      2.671      5.556
REMARK  Name = 
REMARK  8 active torsions:
REMARK  status: ('A' for Active; 'I' for Inactive)
REMARK    1  A    between atoms: C_2  and  C_3
REMARK    2  A    between atoms: C_3  and  C_4
REMARK    3  A    between atoms: C_3  and  N_8
REMARK    4  A    between atoms: C_4  and  C_5
REMARK    5  A    between atoms: C_9  and  C_11
REMARK    6  A    between atoms: C_16  and  O_18
REMARK    7  A    between atoms: O_18  and  C_19
REMARK    8  A    between atoms: C_19  and  C_20
REMARK                            x       y       z     vdW  Elec       q    Type
REMARK                         _______ _______ _______ _____ _____    ______ ____
ROOT
ATOM      1  C   UNL     1       5.069   4.375  16.396  0.00  0.00    +0.000 C 
ATOM      2  C   UNL     1       6.054   3.502  15.613  0.00  0.00    +0.000 C 
ATOM      3  C   UNL     1       6.816   4.493  14.742  0.00  0.00    +0.000 C 
ATOM      4  C   UNL     1       6.815   5.785  15.547  0.00  0.00    +0.000 C 
ATOM      5  N   UNL     1       5.863   5.583  16.619  0.00  0.00    +0.000 N 
ATOM      6  C   UNL     1       5.478   6.669  17.371  0.00  0.00    +0.000 C 
ATOM      7  O   UNL     1       6.116   7.716  17.398  0.00  0.00    +0.000 OA
ENDROOT
BRANCH   1   9
ATOM      8  N   UNL     1       3.215   3.402  17.725  0.00  0.00    +0.000 N 
ATOM      9  C   UNL     1       4.570   3.594  17.628  0.00  0.00    +0.000 C 
ATOM     10  O   UNL     1       5.336   3.267  18.534  0.00  0.00    +0.000 OA
ATOM     11  H   UNL     1       2.609   3.930  17.097  0.00  0.00    +0.000 HD
BRANCH   8  12
ATOM     12  C   UNL     1       2.602   2.769  18.889  0.00  0.00    +0.000 C 
BRANCH  12  14
ATOM     13  N   UNL     1       0.111   2.013  18.434  0.00  0.00    +0.000 NA
ATOM     14  C   UNL     1       1.195   2.370  18.634  0.00  0.00    +0.000 C 
ENDBRANCH  12  14
BRANCH  12  15
ATOM     15  C   UNL     1       2.687   3.641  20.146  0.00  0.00    +0.000 C 
BRANCH  15  16
ATOM     16  C   UNL     1       2.718   2.803  21.404  0.00  0.00    +0.000 C 
ATOM     17  N   UNL     1       1.615   2.899  22.195  0.00  0.00    +0.000 N 
ATOM     18  O   UNL     1       3.639   2.051  21.704  0.00  0.00    +0.000 OA
ATOM     19  H   UNL     1       0.759   3.355  21.909  0.00  0.00    +0.000 HD
ATOM     20  H   UNL     1       1.592   2.325  23.029  0.00  0.00    +0.000 HD
ENDBRANCH  15  16
ENDBRANCH  12  15
ENDBRANCH   8  12
ENDBRANCH   1   9
BRANCH   6  21
ATOM     21  O   UNL     1       4.365   6.424  18.097  0.00  0.00    +0.000 OA
BRANCH  21  22
ATOM     22  C   UNL     1       3.140   6.954  17.576  0.00  0.00    +0.000 C 
BRANCH  22  23
ATOM     23  C   UNL     1       2.404   7.750  18.627  0.00  0.00    +0.000 A 
ATOM     24  C   UNL     1       2.239   7.205  19.910  0.00  0.00    +0.000 A 
ATOM     25  C   UNL     1       1.477   7.868  20.874  0.00  0.00    +0.000 A 
ATOM     26  C   UNL     1       0.867   9.082  20.565  0.00  0.00    +0.000 A 
ATOM     27  C   UNL     1       1.036   9.636  19.298  0.00  0.00    +0.000 A 
ATOM     28 BR   UNL     1       0.206  11.283  18.880  0.00  0.00    +0.000 Br
ATOM     29  C   UNL     1       1.797   8.979  18.329  0.00  0.00    +0.000 A 
ENDBRANCH  22  23
ENDBRANCH  21  22
ENDBRANCH   6  21
TORSDOF 8
ENDMDL
MODEL 8
REMARK VINA RESULT:      -7.1      4.004      6.810
REMARK  Name = 
REMARK  8 active torsions:
REMARK  status: ('A' for Active; 'I' for Inactive)
REMARK    1  A    between atoms: C_2  and  C_3
REMARK    2  A    between atoms: C_3  and  C_4
REMARK    3  A    between atoms: C_3  and  N_8
REMARK    4  A    between atoms: C_4  and  C_5
REMARK    5  A    between atoms: C_9  and  C_11
REMARK    6  A    between atoms: C_16  and  O_18
REMARK    7  A    between atoms: O_18  and  C_19
REMARK    8  A    between atoms: C_19  and  C_20
REMARK                            x       y       z     vdW  Elec       q    Type
REMARK                         _______ _______ _______ _____ _____    ______ ____
ROOT
ATOM      1  C   UNL     1       1.921   7.586  20.424  0.00  0.00    +0.000 C 
ATOM      2  C   UNL     1       0.775   8.111  21.293  0.00  0.00    +0.000 C 
ATOM      3  C   UNL     1       0.678   9.587  20.926  0.00  0.00    +0.000 C 
ATOM      4  C   UNL     1       1.145   9.650  19.478  0.00  0.00    +0.000 C 
ATOM      5  N   UNL     1       1.735   8.358  19.196  0.00  0.00    +0.000 N 
ATOM      6  C   UNL     1       2.454   8.203  18.033  0.00  0.00    +0.000 C 
ATOM      7  O   UNL     1       2.361   8.979  17.088  0.00  0.00    +0.000 OA
ENDROOT
BRANCH   1   9
ATOM      8  N   UNL     1       3.016   5.366  20.260  0.00  0.00    +0.000 N 
ATOM      9  C   UNL     1       1.828   6.049  20.339  0.00  0.00    +0.000 C 
ATOM     10  O   UNL     1       0.744   5.478  20.226  0.00  0.00    +0.000 OA
ATOM     11  H   UNL     1       3.865   5.900  20.079  0.00  0.00    +0.000 HD
BRANCH   8  12
ATOM     12  C   UNL     1       3.068   3.920  20.074  0.00  0.00    +0.000 C 
BRANCH  12  14
ATOM     13  N   UNL     1       2.297   2.598  22.228  0.00  0.00    +0.000 NA
ATOM     14  C   UNL     1       2.610   3.182  21.278  0.00  0.00    +0.000 C 
ENDBRANCH  12  14
BRANCH  12  15
ATOM     15  C   UNL     1       4.458   3.431  19.648  0.00  0.00    +0.000 C 
BRANCH  15  16
ATOM     16  C   UNL     1       4.476   1.938  19.418  0.00  0.00    +0.000 C 
ATOM     17  N   UNL     1       5.308   1.233  20.232  0.00  0.00    +0.000 N 
ATOM     18  O   UNL     1       3.778   1.362  18.590  0.00  0.00    +0.000 OA
ATOM     19  H   UNL     1       5.763   1.627  21.045  0.00  0.00    +0.000 HD
ATOM     20  H   UNL     1       5.319   0.226  20.124  0.00  0.00    +0.000 HD
ENDBRANCH  15  16
ENDBRANCH  12  15
ENDBRANCH   8  12
ENDBRANCH   1   9
BRANCH   6  21
ATOM     21  O   UNL     1       3.217   7.088  18.045  0.00  0.00    +0.000 OA
BRANCH  21  22
ATOM     22  C   UNL     1       4.632   7.291  18.146  0.00  0.00    +0.000 C 
BRANCH  22  23
ATOM     23  C   UNL     1       5.388   6.171  17.474  0.00  0.00    +0.000 A 
ATOM     24  C   UNL     1       6.516   5.626  18.108  0.00  0.00    +0.000 A 
ATOM     25  C   UNL     1       7.297   4.661  17.471  0.00  0.00    +0.000 A 
ATOM     26  C   UNL     1       6.963   4.231  16.187  0.00  0.00    +0.000 A 
ATOM     27  C   UNL     1       5.838   4.757  15.556  0.00  0.00    +0.000 A 
ATOM     28 BR   UNL     1       5.388   4.174  13.814  0.00  0.00    +0.000 Br
ATOM     29  C   UNL     1       5.052   5.722  16.187  0.00  0.00    +0.000 A 
ENDBRANCH  22  23
ENDBRANCH  21  22
ENDBRANCH   6  21
TORSDOF 8
ENDMDL
MODEL 9
REMARK VINA RESULT:      -7.1      3.877      6.706
REMARK  Name = 
REMARK  8 active torsions:
REMARK  status: ('A' for Active; 'I' for Inactive)
REMARK    1  A    between atoms: C_2  and  C_3
REMARK    2  A    between atoms: C_3  and  C_4
REMARK    3  A    between atoms: C_3  and  N_8
REMARK    4  A    between atoms: C_4  and  C_5
REMARK    5  A    between atoms: C_9  and  C_11
REMARK    6  A    between atoms: C_16  and  O_18
REMARK    7  A    between atoms: O_18  and  C_19
REMARK    8  A    between atoms: C_19  and  C_20
REMARK                            x       y       z     vdW  Elec       q    Type
REMARK                         _______ _______ _______ _____ _____    ______ ____
ROOT
ATOM      1  C   UNL     1       1.754   8.133  20.761  0.00  0.00    +0.000 C 
ATOM      2  C   UNL     1       0.646   8.524  21.744  0.00  0.00    +0.000 C 
ATOM      3  C   UNL     1       0.427  10.009  21.485  0.00  0.00    +0.000 C 
ATOM      4  C   UNL     1       0.776  10.194  20.014  0.00  0.00    +0.000 C 
ATOM      5  N   UNL     1       1.424   8.966  19.604  0.00  0.00    +0.000 N 
ATOM      6  C   UNL     1       2.060   8.933  18.384  0.00  0.00    +0.000 C 
ATOM      7  O   UNL     1       1.845   9.758  17.503  0.00  0.00    +0.000 OA
ENDROOT
BRANCH   1   9
ATOM      8  N   UNL     1       2.904   6.043  20.083  0.00  0.00    +0.000 N 
ATOM      9  C   UNL     1       1.753   6.602  20.580  0.00  0.00    +0.000 C 
ATOM     10  O   UNL     1       0.734   5.936  20.759  0.00  0.00    +0.000 OA
ATOM     11  H   UNL     1       3.611   6.666  19.693  0.00  0.00    +0.000 HD
BRANCH   8  12
ATOM     12  C   UNL     1       3.002   4.621  19.768  0.00  0.00    +0.000 C 
BRANCH  12  14
ATOM     13  N   UNL     1       5.469   3.844  19.227  0.00  0.00    +0.000 NA
ATOM     14  C   UNL     1       4.395   4.210  19.461  0.00  0.00    +0.000 C 
ENDBRANCH  12  14
BRANCH  12  15
ATOM     15  C   UNL     1       2.062   4.203  18.633  0.00  0.00    +0.000 C 
BRANCH  15  16
ATOM     16  C   UNL     1       1.150   3.073  19.052  0.00  0.00    +0.000 C 
ATOM     17  N   UNL     1       0.785   3.075  20.362  0.00  0.00    +0.000 N 
ATOM     18  O   UNL     1       0.721   2.217  18.285  0.00  0.00    +0.000 OA
ATOM     19  H   UNL     1       0.956   3.849  20.990  0.00  0.00    +0.000 HD
ATOM     20  H   UNL     1       0.148   2.348  20.667  0.00  0.00    +0.000 HD
ENDBRANCH  15  16
ENDBRANCH  12  15
ENDBRANCH   8  12
ENDBRANCH   1   9
BRANCH   6  21
ATOM     21  O   UNL     1       2.891   7.875  18.265  0.00  0.00    +0.000 OA
BRANCH  21  22
ATOM     22  C   UNL     1       3.176   7.441  16.930  0.00  0.00    +0.000 C 
BRANCH  22  23
ATOM     23  C   UNL     1       4.534   6.787  16.850  0.00  0.00    +0.000 A 
ATOM     24  C   UNL     1       5.567   7.247  17.681  0.00  0.00    +0.000 A 
ATOM     25  C   UNL     1       6.860   6.735  17.562  0.00  0.00    +0.000 A 
ATOM     26  C   UNL     1       7.137   5.757  16.608  0.00  0.00    +0.000 A 
ATOM     27  C   UNL     1       6.114   5.285  15.788  0.00  0.00    +0.000 A 
ATOM     28 BR   UNL     1       6.492   3.960  14.493  0.00  0.00    +0.000 Br
ATOM     29  C   UNL     1       4.819   5.793  15.902  0.00  0.00    +0.000 A 
ENDBRANCH  22  23
ENDBRANCH  21  22
ENDBRANCH   6  21
TORSDOF 8
ENDMDL
