MODEL 1
REMARK VINA RESULT:      -7.3      0.000      0.000
REMARK  Name = 
REMARK  6 active torsions:
REMARK  status: ('A' for Active; 'I' for Inactive)
REMARK    1  A    between atoms: C_1  and  N_2
REMARK    2  A    between atoms: N_2  and  C_3
REMARK    3  A    between atoms: N_2  and  S_10
REMARK    4  A    between atoms: C_3  and  C_4
REMARK    5  A    between atoms: S_10  and  N_13
REMARK    6  A    between atoms: C_15  and  O_16
REMARK                            x       y       z     vdW  Elec       q    Type
REMARK                         _______ _______ _______ _____ _____    ______ ____
ROOT
ATOM      1  S   UNL     1       3.211   2.807  17.793  0.00  0.00    +0.000 S 
ATOM      2  O   UNL     1       2.183   3.073  16.820  0.00  0.00    +0.000 OA
ATOM      3  O   UNL     1       3.648   1.456  18.086  0.00  0.00    +0.000 OA
ENDROOT
BRANCH   1   4
ATOM      4  N   UNL     1       2.791   3.531  19.240  0.00  0.00    +0.000 NA
ATOM      5  C   UNL     1       1.449   4.134  19.361  0.00  0.00    +0.000 C 
ATOM      6  C   UNL     1       1.433   4.571  20.827  0.00  0.00    +0.000 C 
ATOM      7  C   UNL     1       2.112   3.408  21.542  0.00  0.00    +0.000 C 
ATOM      8  F   UNL     1       1.172   2.483  21.880  0.00  0.00    +0.000 F 
ATOM      9  C   UNL     1       3.071   2.805  20.507  0.00  0.00    +0.000 C 
BRANCH   6  10
ATOM     10  O   UNL     1       2.181   5.781  21.009  0.00  0.00    +0.000 OA
ATOM     11  H   UNL     1       3.084   5.608  20.684  0.00  0.00    +0.000 HD
ENDBRANCH   6  10
ENDBRANCH   1   4
BRANCH   1  13
ATOM     12  C   UNL     1       5.012   3.586  15.991  0.00  0.00    +0.000 C 
ATOM     13  N   UNL     1       4.598   3.722  17.409  0.00  0.00    +0.000 NA
BRANCH  13  14
ATOM     14  C   UNL     1       4.448   5.159  17.803  0.00  0.00    +0.000 C 
BRANCH  14  15
ATOM     15  C   UNL     1       5.758   5.891  18.047  0.00  0.00    +0.000 A 
ATOM     16  C   UNL     1       6.655   5.455  19.038  0.00  0.00    +0.000 A 
ATOM     17  C   UNL     1       7.883   6.096  19.222  0.00  0.00    +0.000 A 
ATOM     18  C   UNL     1       8.229   7.185  18.426  0.00  0.00    +0.000 A 
ATOM     19  C   UNL     1       7.340   7.644  17.455  0.00  0.00    +0.000 A 
ATOM     20  C   UNL     1       6.112   7.002  17.268  0.00  0.00    +0.000 A 
ENDBRANCH  14  15
ENDBRANCH  13  14
ENDBRANCH   1  13
TORSDOF 5
ENDMDL
MODEL 2
REMARK VINA RESULT:      -7.2      0.162      1.118
REMARK  Name = 
REMARK  6 active torsions:
REMARK  status: ('A' for Active; 'I' for Inactive)
REMARK    1  A    between atoms: C_1  and  N_2
REMARK    2  A    between atoms: N_2  and  C_3
REMARK    3  A    between atoms: N_2  and  S_10
REMARK    4  A    between atoms: C_3  and  C_4
REMARK    5  A    between atoms: S_10  and  N_13
REMARK    6  A    between atoms: C_15  and  O_16
REMARK                            x       y       z     vdW  Elec       q    Type
REMARK                         _______ _______ _______ _____ _____    ______ ____
ROOT
ATOM      1  S   UNL     1       3.218   2.949  17.764  0.00  0.00    +0.000 S 
ATOM      2  O   UNL     1       2.214   3.342  16.810  0.00  0.00    +0.000 OA
ATOM      3  O   UNL     1       3.548   1.556  17.988  0.00  0.00    +0.000 OA
ENDROOT
BRANCH   1   4
ATOM      4  N   UNL     1       2.856   3.631  19.247  0.00  0.00    +0.000 NA
ATOM      5  C   UNL     1       1.526   4.245  19.433  0.00  0.00    +0.000 C 
ATOM      6  C   UNL     1       1.565   4.635  20.912  0.00  0.00    +0.000 C 
ATOM      7  C   UNL     1       2.254   3.443  21.566  0.00  0.00    +0.000 C 
ATOM      8  F   UNL     1       1.315   2.518  21.906  0.00  0.00    +0.000 F 
ATOM      9  C   UNL     1       3.170   2.862  20.480  0.00  0.00    +0.000 C 
BRANCH   6  10
ATOM     10  O   UNL     1       2.333   5.830  21.106  0.00  0.00    +0.000 OA
ATOM     11  H   UNL     1       1.821   6.563  20.716  0.00  0.00    +0.000 HD
ENDBRANCH   6  10
ENDBRANCH   1   4
BRANCH   1  13
ATOM     12  C   UNL     1       5.186   3.500  16.056  0.00  0.00    +0.000 C 
ATOM     13  N   UNL     1       4.672   3.771  17.420  0.00  0.00    +0.000 NA
BRANCH  13  14
ATOM     14  C   UNL     1       4.560   5.241  17.683  0.00  0.00    +0.000 C 
BRANCH  14  15
ATOM     15  C   UNL     1       5.884   5.942  17.948  0.00  0.00    +0.000 A 
ATOM     16  C   UNL     1       6.259   7.078  17.209  0.00  0.00    +0.000 A 
ATOM     17  C   UNL     1       7.449   7.754  17.493  0.00  0.00    +0.000 A 
ATOM     18  C   UNL     1       8.284   7.300  18.511  0.00  0.00    +0.000 A 
ATOM     19  C   UNL     1       7.937   6.161  19.237  0.00  0.00    +0.000 A 
ATOM     20  C   UNL     1       6.745   5.486  18.956  0.00  0.00    +0.000 A 
ENDBRANCH  14  15
ENDBRANCH  13  14
ENDBRANCH   1  13
TORSDOF 5
ENDMDL
MODEL 3
REMARK VINA RESULT:      -6.8      2.849      4.458
REMARK  Name = 
REMARK  6 active torsions:
REMARK  status: ('A' for Active; 'I' for Inactive)
REMARK    1  A    between atoms: C_1  and  N_2
REMARK    2  A    between atoms: N_2  and  C_3
REMARK    3  A    between atoms: N_2  and  S_10
REMARK    4  A    between atoms: C_3  and  C_4
REMARK    5  A    between atoms: S_10  and  N_13
REMARK    6  A    between atoms: C_15  and  O_16
REMARK                            x       y       z     vdW  Elec       q    Type
REMARK                         _______ _______ _______ _____ _____    ______ ____
ROOT
ATOM      1  S   UNL     1       4.897   5.263  17.878  0.00  0.00    +0.000 S 
ATOM      2  O   UNL     1       5.381   5.585  19.196  0.00  0.00    +0.000 OA
ATOM      3  O   UNL     1       4.036   6.168  17.144  0.00  0.00    +0.000 OA
ENDROOT
BRANCH   1   4
ATOM      4  N   UNL     1       4.144   3.771  17.926  0.00  0.00    +0.000 NA
ATOM      5  C   UNL     1       4.222   2.983  19.172  0.00  0.00    +0.000 C 
ATOM      6  C   UNL     1       3.338   1.780  18.838  0.00  0.00    +0.000 C 
ATOM      7  C   UNL     1       2.172   2.406  18.081  0.00  0.00    +0.000 C 
ATOM      8  F   UNL     1       1.211   2.776  18.971  0.00  0.00    +0.000 F 
ATOM      9  C   UNL     1       2.754   3.658  17.410  0.00  0.00    +0.000 C 
BRANCH   6  10
ATOM     10  O   UNL     1       4.039   0.847  18.004  0.00  0.00    +0.000 OA
ATOM     11  H   UNL     1       3.390   0.176  17.722  0.00  0.00    +0.000 HD
ENDBRANCH   6  10
ENDBRANCH   1   4
BRANCH   1  13
ATOM     12  C   UNL     1       7.454   4.561  17.628  0.00  0.00    +0.000 C 
ATOM     13  N   UNL     1       6.220   4.882  16.871  0.00  0.00    +0.000 NA
BRANCH  13  14
ATOM     14  C   UNL     1       5.882   3.807  15.886  0.00  0.00    +0.000 C 
BRANCH  14  15
ATOM     15  C   UNL     1       6.400   4.049  14.477  0.00  0.00    +0.000 A 
ATOM     16  C   UNL     1       5.906   3.308  13.389  0.00  0.00    +0.000 A 
ATOM     17  C   UNL     1       6.343   3.573  12.088  0.00  0.00    +0.000 A 
ATOM     18  C   UNL     1       7.283   4.573  11.856  0.00  0.00    +0.000 A 
ATOM     19  C   UNL     1       7.800   5.301  12.928  0.00  0.00    +0.000 A 
ATOM     20  C   UNL     1       7.362   5.039  14.229  0.00  0.00    +0.000 A 
ENDBRANCH  14  15
ENDBRANCH  13  14
ENDBRANCH   1  13
TORSDOF 5
ENDMDL
MODEL 4
REMARK VINA RESULT:      -6.8      2.988      4.372
REMARK  Name = 
REMARK  6 active torsions:
REMARK  status: ('A' for Active; 'I' for Inactive)
REMARK    1  A    between atoms: C_1  and  N_2
REMARK    2  A    between atoms: N_2  and  C_3
REMARK    3  A    between atoms: N_2  and  S_10
REMARK    4  A    between atoms: C_3  and  C_4
REMARK    5  A    between atoms: S_10  and  N_13
REMARK    6  A    between atoms: C_15  and  O_16
REMARK                            x       y       z     vdW  Elec       q    Type
REMARK                         _______ _______ _______ _____ _____    ______ ____
ROOT
ATOM      1  S   UNL     1       5.249   5.012  18.431  0.00  0.00    +0.000 S 
ATOM      2  O   UNL     1       6.449   4.359  18.883  0.00  0.00    +0.000 OA
ATOM      3  O   UNL     1       4.774   6.238  19.042  0.00  0.00    +0.000 OA
ENDROOT
BRANCH   1   4
ATOM      4  N   UNL     1       3.989   3.912  18.452  0.00  0.00    +0.000 NA
ATOM      5  C   UNL     1       3.484   3.397  17.164  0.00  0.00    +0.000 C 
ATOM      6  C   UNL     1       2.447   2.370  17.624  0.00  0.00    +0.000 C 
ATOM      7  C   UNL     1       3.128   1.698  18.811  0.00  0.00    +0.000 C 
ATOM      8  F   UNL     1       3.868   0.647  18.362  0.00  0.00    +0.000 F 
ATOM      9  C   UNL     1       4.062   2.766  19.396  0.00  0.00    +0.000 C 
BRANCH   6  10
ATOM     10  O   UNL     1       1.235   3.016  18.037  0.00  0.00    +0.000 OA
ATOM     11  H   UNL     1       1.483   3.687  18.699  0.00  0.00    +0.000 HD
ENDBRANCH   6  10
ENDBRANCH   1   4
BRANCH   1  13
ATOM     12  C   UNL     1       4.954   6.658  16.357  0.00  0.00    +0.000 C 
ATOM     13  N   UNL     1       5.358   5.286  16.751  0.00  0.00    +0.000 NA
BRANCH  13  14
ATOM     14  C   UNL     1       6.710   4.935  16.212  0.00  0.00    +0.000 C 
BRANCH  14  15
ATOM     15  C   UNL     1       6.751   4.679  14.714  0.00  0.00    +0.000 A 
ATOM     16  C   UNL     1       7.669   5.355  13.891  0.00  0.00    +0.000 A 
ATOM     17  C   UNL     1       7.742   5.076  12.523  0.00  0.00    +0.000 A 
ATOM     18  C   UNL     1       6.896   4.125  11.958  0.00  0.00    +0.000 A 
ATOM     19  C   UNL     1       5.964   3.463  12.757  0.00  0.00    +0.000 A 
ATOM     20  C   UNL     1       5.892   3.740  14.125  0.00  0.00    +0.000 A 
ENDBRANCH  14  15
ENDBRANCH  13  14
ENDBRANCH   1  13
TORSDOF 5
ENDMDL
MODEL 5
REMARK VINA RESULT:      -6.8      2.680      4.228
REMARK  Name = 
REMARK  6 active torsions:
REMARK  status: ('A' for Active; 'I' for Inactive)
REMARK    1  A    between atoms: C_1  and  N_2
REMARK    2  A    between atoms: N_2  and  C_3
REMARK    3  A    between atoms: N_2  and  S_10
REMARK    4  A    between atoms: C_3  and  C_4
REMARK    5  A    between atoms: S_10  and  N_13
REMARK    6  A    between atoms: C_15  and  O_16
REMARK                            x       y       z     vdW  Elec       q    Type
REMARK                         _______ _______ _______ _____ _____    ______ ____
ROOT
ATOM      1  S   UNL     1       5.049   4.904  18.400  0.00  0.00    +0.000 S 
ATOM      2  O   UNL     1       6.175   4.180  18.930  0.00  0.00    +0.000 OA
ATOM      3  O   UNL     1       4.668   6.203  18.921  0.00  0.00    +0.000 OA
ENDROOT
BRANCH   1   4
ATOM      4  N   UNL     1       3.697   3.921  18.449  0.00  0.00    +0.000 NA
ATOM      5  C   UNL     1       3.560   2.970  19.570  0.00  0.00    +0.000 C 
ATOM      6  C   UNL     1       2.180   2.367  19.301  0.00  0.00    +0.000 C 
ATOM      7  C   UNL     1       1.355   3.571  18.860  0.00  0.00    +0.000 C 
ATOM      8  F   UNL     1       0.807   4.162  19.957  0.00  0.00    +0.000 F 
ATOM      9  C   UNL     1       2.363   4.533  18.214  0.00  0.00    +0.000 C 
BRANCH   6  10
ATOM     10  O   UNL     1       2.244   1.389  18.255  0.00  0.00    +0.000 OA
ATOM     11  H   UNL     1       2.136   1.867  17.413  0.00  0.00    +0.000 HD
ENDBRANCH   6  10
ENDBRANCH   1   4
BRANCH   1  13
ATOM     12  C   UNL     1       5.055   6.456  16.235  0.00  0.00    +0.000 C 
ATOM     13  N   UNL     1       5.225   5.061  16.711  0.00  0.00    +0.000 NA
BRANCH  13  14
ATOM     14  C   UNL     1       6.511   4.467  16.225  0.00  0.00    +0.000 C 
BRANCH  14  15
ATOM     15  C   UNL     1       6.658   4.423  14.712  0.00  0.00    +0.000 A 
ATOM     16  C   UNL     1       7.603   5.230  14.054  0.00  0.00    +0.000 A 
ATOM     17  C   UNL     1       7.776   5.145  12.670  0.00  0.00    +0.000 A 
ATOM     18  C   UNL     1       7.002   4.261  11.922  0.00  0.00    +0.000 A 
ATOM     19  C   UNL     1       6.044   3.470  12.557  0.00  0.00    +0.000 A 
ATOM     20  C   UNL     1       5.873   3.552  13.942  0.00  0.00    +0.000 A 
ENDBRANCH  14  15
ENDBRANCH  13  14
ENDBRANCH   1  13
TORSDOF 5
ENDMDL
MODEL 6
REMARK VINA RESULT:      -6.8      3.601      5.445
REMARK  Name = 
REMARK  6 active torsions:
REMARK  status: ('A' for Active; 'I' for Inactive)
REMARK    1  A    between atoms: C_1  and  N_2
REMARK    2  A    between atoms: N_2  and  C_3
REMARK    3  A    between atoms: N_2  and  S_10
REMARK    4  A    between atoms: C_3  and  C_4
REMARK    5  A    between atoms: S_10  and  N_13
REMARK    6  A    between atoms: C_15  and  O_16
REMARK                            x       y       z     vdW  Elec       q    Type
REMARK                         _______ _______ _______ _____ _____    ______ ____
ROOT
ATOM      1  S   UNL     1       4.299   3.569  18.404  0.00  0.00    +0.000 S 
ATOM      2  O   UNL     1       5.017   3.493  19.650  0.00  0.00    +0.000 OA
ATOM      3  O   UNL     1       3.877   2.377  17.697  0.00  0.00    +0.000 OA
ENDROOT
BRANCH   1   4
ATOM      4  N   UNL     1       5.167   4.515  17.333  0.00  0.00    +0.000 NA
ATOM      5  C   UNL     1       6.631   4.608  17.505  0.00  0.00    +0.000 C 
ATOM      6  C   UNL     1       7.035   5.450  16.293  0.00  0.00    +0.000 C 
ATOM      7  C   UNL     1       6.158   4.895  15.177  0.00  0.00    +0.000 C 
ATOM      8  F   UNL     1       6.802   3.854  14.581  0.00  0.00    +0.000 F 
ATOM      9  C   UNL     1       4.895   4.376  15.878  0.00  0.00    +0.000 C 
BRANCH   6  10
ATOM     10  O   UNL     1       6.749   6.838  16.516  0.00  0.00    +0.000 OA
ATOM     11  H   UNL     1       6.103   6.880  17.245  0.00  0.00    +0.000 HD
ENDBRANCH   6  10
ENDBRANCH   1   4
BRANCH   1  13
ATOM     12  C   UNL     1       1.679   3.786  18.836  0.00  0.00    +0.000 C 
ATOM     13  N   UNL     1       2.924   4.559  18.607  0.00  0.00    +0.000 NA
BRANCH  13  14
ATOM     14  C   UNL     1       3.131   5.595  19.668  0.00  0.00    +0.000 C 
BRANCH  14  15
ATOM     15  C   UNL     1       2.521   6.953  19.358  0.00  0.00    +0.000 A 
ATOM     16  C   UNL     1       2.638   7.521  18.077  0.00  0.00    +0.000 A 
ATOM     17  C   UNL     1       2.027   8.743  17.780  0.00  0.00    +0.000 A 
ATOM     18  C   UNL     1       1.299   9.417  18.757  0.00  0.00    +0.000 A 
ATOM     19  C   UNL     1       1.193   8.876  20.039  0.00  0.00    +0.000 A 
ATOM     20  C   UNL     1       1.802   7.653  20.337  0.00  0.00    +0.000 A 
ENDBRANCH  14  15
ENDBRANCH  13  14
ENDBRANCH   1  13
TORSDOF 5
ENDMDL
MODEL 7
REMARK VINA RESULT:      -6.8      2.829      4.398
REMARK  Name = 
REMARK  6 active torsions:
REMARK  status: ('A' for Active; 'I' for Inactive)
REMARK    1  A    between atoms: C_1  and  N_2
REMARK    2  A    between atoms: N_2  and  C_3
REMARK    3  A    between atoms: N_2  and  S_10
REMARK    4  A    between atoms: C_3  and  C_4
REMARK    5  A    between atoms: S_10  and  N_13
REMARK    6  A    between atoms: C_15  and  O_16
REMARK                            x       y       z     vdW  Elec       q    Type
REMARK                         _______ _______ _______ _____ _____    ______ ____
ROOT
ATOM      1  S   UNL     1       4.582   5.231  18.068  0.00  0.00    +0.000 S 
ATOM      2  O   UNL     1       5.785   5.245  18.859  0.00  0.00    +0.000 OA
ATOM      3  O   UNL     1       3.499   6.162  18.315  0.00  0.00    +0.000 OA
ENDROOT
BRANCH   1   4
ATOM      4  N   UNL     1       3.938   3.687  18.083  0.00  0.00    +0.000 NA
ATOM      5  C   UNL     1       3.960   2.929  19.351  0.00  0.00    +0.000 C 
ATOM      6  C   UNL     1       3.200   1.658  18.968  0.00  0.00    +0.000 C 
ATOM      7  C   UNL     1       2.065   2.182  18.095  0.00  0.00    +0.000 C 
ATOM      8  F   UNL     1       1.003   2.494  18.888  0.00  0.00    +0.000 F 
ATOM      9  C   UNL     1       2.612   3.462  17.450  0.00  0.00    +0.000 C 
BRANCH   6  10
ATOM     10  O   UNL     1       4.039   0.766  18.221  0.00  0.00    +0.000 OA
ATOM     11  H   UNL     1       4.086  -0.068  18.724  0.00  0.00    +0.000 HD
ENDBRANCH   6  10
ENDBRANCH   1   4
BRANCH   1  13
ATOM     12  C   UNL     1       5.007   6.747  15.920  0.00  0.00    +0.000 C 
ATOM     13  N   UNL     1       4.993   5.350  16.417  0.00  0.00    +0.000 NA
BRANCH  13  14
ATOM     14  C   UNL     1       6.276   4.643  16.107  0.00  0.00    +0.000 C 
BRANCH  14  15
ATOM     15  C   UNL     1       6.564   4.469  14.624  0.00  0.00    +0.000 A 
ATOM     16  C   UNL     1       5.794   3.594  13.838  0.00  0.00    +0.000 A 
ATOM     17  C   UNL     1       6.024   3.479  12.464  0.00  0.00    +0.000 A 
ATOM     18  C   UNL     1       7.030   4.227  11.858  0.00  0.00    +0.000 A 
ATOM     19  C   UNL     1       7.818   5.082  12.630  0.00  0.00    +0.000 A 
ATOM     20  C   UNL     1       7.587   5.200  14.003  0.00  0.00    +0.000 A 
ENDBRANCH  14  15
ENDBRANCH  13  14
ENDBRANCH   1  13
TORSDOF 5
ENDMDL
MODEL 8
REMARK VINA RESULT:      -6.8      3.573      5.344
REMARK  Name = 
REMARK  6 active torsions:
REMARK  status: ('A' for Active; 'I' for Inactive)
REMARK    1  A    between atoms: C_1  and  N_2
REMARK    2  A    between atoms: N_2  and  C_3
REMARK    3  A    between atoms: N_2  and  S_10
REMARK    4  A    between atoms: C_3  and  C_4
REMARK    5  A    between atoms: S_10  and  N_13
REMARK    6  A    between atoms: C_15  and  O_16
REMARK                            x       y       z     vdW  Elec       q    Type
REMARK                         _______ _______ _______ _____ _____    ______ ____
ROOT
ATOM      1  S   UNL     1       4.195   3.524  18.423  0.00  0.00    +0.000 S 
ATOM      2  O   UNL     1       4.982   3.239  19.594  0.00  0.00    +0.000 OA
ATOM      3  O   UNL     1       3.636   2.465  17.606  0.00  0.00    +0.000 OA
ENDROOT
BRANCH   1   4
ATOM      4  N   UNL     1       5.066   4.536  17.415  0.00  0.00    +0.000 NA
ATOM      5  C   UNL     1       6.507   4.722  17.682  0.00  0.00    +0.000 C 
ATOM      6  C   UNL     1       6.931   5.601  16.504  0.00  0.00    +0.000 C 
ATOM      7  C   UNL     1       6.166   5.001  15.330  0.00  0.00    +0.000 C 
ATOM      8  F   UNL     1       6.914   4.011  14.771  0.00  0.00    +0.000 F 
ATOM      9  C   UNL     1       4.897   4.394  15.945  0.00  0.00    +0.000 C 
BRANCH   6  10
ATOM     10  O   UNL     1       6.541   6.965  16.716  0.00  0.00    +0.000 OA
ATOM     11  H   UNL     1       7.187   7.521  16.244  0.00  0.00    +0.000 HD
ENDBRANCH   6  10
ENDBRANCH   1   4
BRANCH   1  13
ATOM     12  C   UNL     1       1.836   3.900  19.601  0.00  0.00    +0.000 C 
ATOM     13  N   UNL     1       2.919   4.575  18.845  0.00  0.00    +0.000 NA
BRANCH  13  14
ATOM     14  C   UNL     1       3.411   5.795  19.560  0.00  0.00    +0.000 C 
BRANCH  14  15
ATOM     15  C   UNL     1       2.616   7.060  19.279  0.00  0.00    +0.000 A 
ATOM     16  C   UNL     1       1.826   7.653  20.279  0.00  0.00    +0.000 A 
ATOM     17  C   UNL     1       1.142   8.847  20.034  0.00  0.00    +0.000 A 
ATOM     18  C   UNL     1       1.230   9.460  18.787  0.00  0.00    +0.000 A 
ATOM     19  C   UNL     1       1.992   8.872  17.778  0.00  0.00    +0.000 A 
ATOM     20  C   UNL     1       2.678   7.679  18.022  0.00  0.00    +0.000 A 
ENDBRANCH  14  15
ENDBRANCH  13  14
ENDBRANCH   1  13
TORSDOF 5
ENDMDL
MODEL 9
REMARK VINA RESULT:      -6.7      3.401      5.265
REMARK  Name = 
REMARK  6 active torsions:
REMARK  status: ('A' for Active; 'I' for Inactive)
REMARK    1  A    between atoms: C_1  and  N_2
REMARK    2  A    between atoms: N_2  and  C_3
REMARK    3  A    between atoms: N_2  and  S_10
REMARK    4  A    between atoms: C_3  and  C_4
REMARK    5  A    between atoms: S_10  and  N_13
REMARK    6  A    between atoms: C_15  and  O_16
REMARK                            x       y       z     vdW  Elec       q    Type
REMARK                         _______ _______ _______ _____ _____    ______ ____
ROOT
ATOM      1  S   UNL     1       4.300   3.433  18.482  0.00  0.00    +0.000 S 
ATOM      2  O   UNL     1       4.740   3.271  19.843  0.00  0.00    +0.000 OA
ATOM      3  O   UNL     1       3.899   2.298  17.674  0.00  0.00    +0.000 OA
ENDROOT
BRANCH   1   4
ATOM      4  N   UNL     1       5.464   4.277  17.630  0.00  0.00    +0.000 NA
ATOM      5  C   UNL     1       5.108   4.825  16.306  0.00  0.00    +0.000 C 
ATOM      6  C   UNL     1       6.377   5.593  15.932  0.00  0.00    +0.000 C 
ATOM      7  C   UNL     1       6.784   6.249  17.247  0.00  0.00    +0.000 C 
ATOM      8  F   UNL     1       6.167   7.458  17.351  0.00  0.00    +0.000 F 
ATOM      9  C   UNL     1       6.258   5.313  18.344  0.00  0.00    +0.000 C 
BRANCH   6  10
ATOM     10  O   UNL     1       7.401   4.699  15.477  0.00  0.00    +0.000 OA
ATOM     11  H   UNL     1       8.153   4.793  16.090  0.00  0.00    +0.000 HD
ENDBRANCH   6  10
ENDBRANCH   1   4
BRANCH   1  13
ATOM     12  C   UNL     1       1.694   3.946  18.278  0.00  0.00    +0.000 C 
ATOM     13  N   UNL     1       3.030   4.571  18.433  0.00  0.00    +0.000 NA
BRANCH  13  14
ATOM     14  C   UNL     1       3.069   5.504  19.603  0.00  0.00    +0.000 C 
BRANCH  14  15
ATOM     15  C   UNL     1       2.524   6.896  19.324  0.00  0.00    +0.000 A 
ATOM     16  C   UNL     1       2.724   7.513  18.076  0.00  0.00    +0.000 A 
ATOM     17  C   UNL     1       2.173   8.769  17.804  0.00  0.00    +0.000 A 
ATOM     18  C   UNL     1       1.423   9.428  18.774  0.00  0.00    +0.000 A 
ATOM     19  C   UNL     1       1.235   8.839  20.024  0.00  0.00    +0.000 A 
ATOM     20  C   UNL     1       1.784   7.582  20.297  0.00  0.00    +0.000 A 
ENDBRANCH  14  15
ENDBRANCH  13  14
ENDBRANCH   1  13
TORSDOF 5
ENDMDL
