MODEL 1
REMARK VINA RESULT:      -9.0      0.000      0.000
REMARK  Name = 
REMARK  4 active torsions:
REMARK  status: ('A' for Active; 'I' for Inactive)
REMARK    1  A    between atoms: C_1  and  C_2
REMARK    2  A    between atoms: C_11  and  S_12
REMARK    3  A    between atoms: S_12  and  N_15
REMARK    4  A    between atoms: N_18  and  C_19
REMARK                            x       y       z     vdW  Elec       q    Type
REMARK                         _______ _______ _______ _____ _____    ______ ____
ROOT
ATOM      1  S   UNL     1       0.887   8.811  21.263  0.00  0.00    +0.000 S 
ATOM      2  O   UNL     1      -0.514   8.511  21.458  0.00  0.00    +0.000 OA
ATOM      3  O   UNL     1       1.744   9.185  22.370  0.00  0.00    +0.000 OA
ENDROOT
BRANCH   1  14
ATOM      4  C   UNL     1       1.685   2.992  21.666  0.00  0.00    +0.000 C 
ATOM      5  C   UNL     1       1.424   3.545  20.277  0.00  0.00    +0.000 C 
ATOM      6  C   UNL     1       2.405   2.935  19.238  0.00  0.00    +0.000 C 
ATOM      7  O   UNL     1       2.556   1.748  18.995  0.00  0.00    +0.000 OA
ATOM      8  N   UNL     1       3.065   4.003  18.641  0.00  0.00    +0.000 N 
ATOM      9  C   UNL     1       4.088   3.957  17.618  0.00  0.00    +0.000 C 
ATOM     10  C   UNL     1       4.171   5.284  16.853  0.00  0.00    +0.000 C 
ATOM     11  C   UNL     1       4.283   6.492  17.807  0.00  0.00    +0.000 C 
ATOM     12  C   UNL     1       3.204   6.450  18.856  0.00  0.00    +0.000 A 
ATOM     13  C   UNL     1       2.682   7.561  19.528  0.00  0.00    +0.000 A 
ATOM     14  C   UNL     1       1.663   7.388  20.498  0.00  0.00    +0.000 A 
ATOM     15  C   UNL     1       1.166   6.112  20.824  0.00  0.00    +0.000 A 
ATOM     16  C   UNL     1       1.714   5.021  20.176  0.00  0.00    +0.000 A 
ATOM     17  C   UNL     1       2.694   5.215  19.212  0.00  0.00    +0.000 A 
ENDBRANCH   1  14
BRANCH   1  18
ATOM     18  N   UNL     1       1.008  10.001  20.059  0.00  0.00    +0.000 NA
ATOM     19  C   UNL     1       0.710   9.591  18.650  0.00  0.00    +0.000 C 
ATOM     20  C   UNL     1      -0.804   9.662  18.317  0.00  0.00    +0.000 C 
ATOM     21  N   UNL     1      -1.348  11.006  18.628  0.00  0.00    +0.000 N 
ATOM     22  C   UNL     1      -1.084  11.424  20.031  0.00  0.00    +0.000 C 
ATOM     23  C   UNL     1       0.417  11.340  20.362  0.00  0.00    +0.000 C 
BRANCH  21  24
ATOM     24  C   UNL     1      -2.646  11.336  18.199  0.00  0.00    +0.000 A 
ATOM     25  C   UNL     1      -3.129  11.121  16.899  0.00  0.00    +0.000 A 
ATOM     26  C   UNL     1      -4.457  11.425  16.558  0.00  0.00    +0.000 A 
ATOM     27  C   UNL     1      -5.311  11.963  17.511  0.00  0.00    +0.000 A 
ATOM     28  F   UNL     1      -6.583  12.232  17.191  0.00  0.00    +0.000 F 
ATOM     29  C   UNL     1      -4.858  12.228  18.791  0.00  0.00    +0.000 A 
ATOM     30  C   UNL     1      -3.535  11.923  19.124  0.00  0.00    +0.000 A 
ENDBRANCH  21  24
ENDBRANCH   1  18
TORSDOF 3
ENDMDL
MODEL 2
REMARK VINA RESULT:      -8.6      4.507      9.158
REMARK  Name = 
REMARK  4 active torsions:
REMARK  status: ('A' for Active; 'I' for Inactive)
REMARK    1  A    between atoms: C_1  and  C_2
REMARK    2  A    between atoms: C_11  and  S_12
REMARK    3  A    between atoms: S_12  and  N_15
REMARK    4  A    between atoms: N_18  and  C_19
REMARK                            x       y       z     vdW  Elec       q    Type
REMARK                         _______ _______ _______ _____ _____    ______ ____
ROOT
ATOM      1  S   UNL     1       2.585   5.837  19.177  0.00  0.00    +0.000 S 
ATOM      2  O   UNL     1       2.427   4.889  20.258  0.00  0.00    +0.000 OA
ATOM      3  O   UNL     1       1.994   5.608  17.875  0.00  0.00    +0.000 OA
ENDROOT
BRANCH   1  14
ATOM      4  C   UNL     1       2.304  11.580  17.913  0.00  0.00    +0.000 C 
ATOM      5  C   UNL     1       1.035  10.941  18.446  0.00  0.00    +0.000 C 
ATOM      6  C   UNL     1       0.378  11.831  19.537  0.00  0.00    +0.000 C 
ATOM      7  O   UNL     1       0.021  12.992  19.407  0.00  0.00    +0.000 OA
ATOM      8  N   UNL     1       0.270  11.045  20.678  0.00  0.00    +0.000 N 
ATOM      9  C   UNL     1      -0.265  11.421  21.970  0.00  0.00    +0.000 C 
ATOM     10  C   UNL     1      -0.707  10.188  22.769  0.00  0.00    +0.000 C 
ATOM     11  C   UNL     1       0.400   9.114  22.830  0.00  0.00    +0.000 C 
ATOM     12  C   UNL     1       0.921   8.803  21.453  0.00  0.00    +0.000 A 
ATOM     13  C   UNL     1       1.509   7.593  21.062  0.00  0.00    +0.000 A 
ATOM     14  C   UNL     1       1.960   7.424  19.729  0.00  0.00    +0.000 A 
ATOM     15  C   UNL     1       1.852   8.456  18.778  0.00  0.00    +0.000 A 
ATOM     16  C   UNL     1       1.299   9.655  19.187  0.00  0.00    +0.000 A 
ATOM     17  C   UNL     1       0.842   9.791  20.490  0.00  0.00    +0.000 A 
ENDBRANCH   1  14
BRANCH   1  18
ATOM     18  N   UNL     1       4.244   6.133  18.975  0.00  0.00    +0.000 NA
ATOM     19  C   UNL     1       5.163   4.951  18.987  0.00  0.00    +0.000 C 
ATOM     20  C   UNL     1       5.295   4.285  17.591  0.00  0.00    +0.000 C 
ATOM     21  N   UNL     1       5.691   5.283  16.569  0.00  0.00    +0.000 N 
ATOM     22  C   UNL     1       4.776   6.456  16.523  0.00  0.00    +0.000 C 
ATOM     23  C   UNL     1       4.638   7.105  17.911  0.00  0.00    +0.000 C 
BRANCH  21  24
ATOM     24  C   UNL     1       6.067   4.840  15.288  0.00  0.00    +0.000 A 
ATOM     25  C   UNL     1       5.314   3.951  14.506  0.00  0.00    +0.000 A 
ATOM     26  C   UNL     1       5.726   3.595  13.211  0.00  0.00    +0.000 A 
ATOM     27  C   UNL     1       6.904   4.113  12.692  0.00  0.00    +0.000 A 
ATOM     28  F   UNL     1       7.285   3.790  11.449  0.00  0.00    +0.000 F 
ATOM     29  C   UNL     1       7.694   4.958  13.451  0.00  0.00    +0.000 A 
ATOM     30  C   UNL     1       7.279   5.308  14.739  0.00  0.00    +0.000 A 
ENDBRANCH  21  24
ENDBRANCH   1  18
TORSDOF 3
ENDMDL
MODEL 3
REMARK VINA RESULT:      -8.5      4.526      8.921
REMARK  Name = 
REMARK  4 active torsions:
REMARK  status: ('A' for Active; 'I' for Inactive)
REMARK    1  A    between atoms: C_1  and  C_2
REMARK    2  A    between atoms: C_11  and  S_12
REMARK    3  A    between atoms: S_12  and  N_15
REMARK    4  A    between atoms: N_18  and  C_19
REMARK                            x       y       z     vdW  Elec       q    Type
REMARK                         _______ _______ _______ _____ _____    ______ ____
ROOT
ATOM      1  S   UNL     1       2.772   5.501  19.057  0.00  0.00    +0.000 S 
ATOM      2  O   UNL     1       2.598   4.697  20.246  0.00  0.00    +0.000 OA
ATOM      3  O   UNL     1       2.212   5.101  17.782  0.00  0.00    +0.000 OA
ENDROOT
BRANCH   1  14
ATOM      4  C   UNL     1      -0.617   8.671  22.681  0.00  0.00    +0.000 C 
ATOM      5  C   UNL     1       0.675   9.321  22.219  0.00  0.00    +0.000 C 
ATOM      6  C   UNL     1       0.436  10.794  21.787  0.00  0.00    +0.000 C 
ATOM      7  O   UNL     1      -0.042  11.682  22.476  0.00  0.00    +0.000 OA
ATOM      8  N   UNL     1       0.880  10.900  20.474  0.00  0.00    +0.000 N 
ATOM      9  C   UNL     1       0.860  12.068  19.620  0.00  0.00    +0.000 C 
ATOM     10  C   UNL     1       1.891  11.949  18.490  0.00  0.00    +0.000 C 
ATOM     11  C   UNL     1       1.764  10.609  17.734  0.00  0.00    +0.000 C 
ATOM     12  C   UNL     1       1.763   9.450  18.694  0.00  0.00    +0.000 A 
ATOM     13  C   UNL     1       2.170   8.145  18.391  0.00  0.00    +0.000 A 
ATOM     14  C   UNL     1       2.122   7.139  19.388  0.00  0.00    +0.000 A 
ATOM     15  C   UNL     1       1.653   7.411  20.687  0.00  0.00    +0.000 A 
ATOM     16  C   UNL     1       1.223   8.695  20.962  0.00  0.00    +0.000 A 
ATOM     17  C   UNL     1       1.301   9.671  19.978  0.00  0.00    +0.000 A 
ENDBRANCH   1  14
BRANCH   1  18
ATOM     18  N   UNL     1       4.433   5.787  18.853  0.00  0.00    +0.000 NA
ATOM     19  C   UNL     1       5.335   4.594  18.775  0.00  0.00    +0.000 C 
ATOM     20  C   UNL     1       5.440   4.021  17.337  0.00  0.00    +0.000 C 
ATOM     21  N   UNL     1       5.838   5.080  16.378  0.00  0.00    +0.000 N 
ATOM     22  C   UNL     1       4.940   6.265  16.422  0.00  0.00    +0.000 C 
ATOM     23  C   UNL     1       4.828   6.822  17.851  0.00  0.00    +0.000 C 
BRANCH  21  24
ATOM     24  C   UNL     1       6.193   4.717  15.066  0.00  0.00    +0.000 A 
ATOM     25  C   UNL     1       5.464   3.821  14.268  0.00  0.00    +0.000 A 
ATOM     26  C   UNL     1       5.849   3.548  12.945  0.00  0.00    +0.000 A 
ATOM     27  C   UNL     1       6.976   4.159  12.412  0.00  0.00    +0.000 A 
ATOM     28  F   UNL     1       7.329   3.916  11.143  0.00  0.00    +0.000 F 
ATOM     29  C   UNL     1       7.742   5.015  13.182  0.00  0.00    +0.000 A 
ATOM     30  C   UNL     1       7.355   5.282  14.498  0.00  0.00    +0.000 A 
ENDBRANCH  21  24
ENDBRANCH   1  18
TORSDOF 3
ENDMDL
MODEL 4
REMARK VINA RESULT:      -8.5      0.834      2.355
REMARK  Name = 
REMARK  4 active torsions:
REMARK  status: ('A' for Active; 'I' for Inactive)
REMARK    1  A    between atoms: C_1  and  C_2
REMARK    2  A    between atoms: C_11  and  S_12
REMARK    3  A    between atoms: S_12  and  N_15
REMARK    4  A    between atoms: N_18  and  C_19
REMARK                            x       y       z     vdW  Elec       q    Type
REMARK                         _______ _______ _______ _____ _____    ______ ____
ROOT
ATOM      1  S   UNL     1       0.879   8.853  21.226  0.00  0.00    +0.000 S 
ATOM      2  O   UNL     1      -0.525   8.628  21.492  0.00  0.00    +0.000 OA
ATOM      3  O   UNL     1       1.803   9.214  22.281  0.00  0.00    +0.000 OA
ENDROOT
BRANCH   1  14
ATOM      4  C   UNL     1       4.236   6.813  16.841  0.00  0.00    +0.000 C 
ATOM      5  C   UNL     1       4.415   6.152  18.195  0.00  0.00    +0.000 C 
ATOM      6  C   UNL     1       4.464   4.605  18.059  0.00  0.00    +0.000 C 
ATOM      7  O   UNL     1       5.247   3.962  17.377  0.00  0.00    +0.000 OA
ATOM      8  N   UNL     1       3.452   4.103  18.869  0.00  0.00    +0.000 N 
ATOM      9  C   UNL     1       3.080   2.719  19.075  0.00  0.00    +0.000 C 
ATOM     10  C   UNL     1       2.323   2.537  20.396  0.00  0.00    +0.000 C 
ATOM     11  C   UNL     1       1.153   3.534  20.531  0.00  0.00    +0.000 C 
ATOM     12  C   UNL     1       1.615   4.942  20.274  0.00  0.00    +0.000 A 
ATOM     13  C   UNL     1       1.015   6.100  20.785  0.00  0.00    +0.000 A 
ATOM     14  C   UNL     1       1.549   7.373  20.468  0.00  0.00    +0.000 A 
ATOM     15  C   UNL     1       2.671   7.514  19.628  0.00  0.00    +0.000 A 
ATOM     16  C   UNL     1       3.233   6.364  19.106  0.00  0.00    +0.000 A 
ATOM     17  C   UNL     1       2.708   5.126  19.448  0.00  0.00    +0.000 A 
ENDBRANCH   1  14
BRANCH   1  18
ATOM     18  N   UNL     1       1.001  10.003  19.983  0.00  0.00    +0.000 NA
ATOM     19  C   UNL     1       0.678   9.553  18.592  0.00  0.00    +0.000 C 
ATOM     20  C   UNL     1      -0.839   9.636  18.276  0.00  0.00    +0.000 C 
ATOM     21  N   UNL     1      -1.359  10.997  18.551  0.00  0.00    +0.000 N 
ATOM     22  C   UNL     1      -1.070  11.455  19.936  0.00  0.00    +0.000 C 
ATOM     23  C   UNL     1       0.433  11.359  20.251  0.00  0.00    +0.000 C 
BRANCH  21  24
ATOM     24  C   UNL     1      -2.658  11.333  18.129  0.00  0.00    +0.000 A 
ATOM     25  C   UNL     1      -3.146  11.125  16.829  0.00  0.00    +0.000 A 
ATOM     26  C   UNL     1      -4.474  11.435  16.494  0.00  0.00    +0.000 A 
ATOM     27  C   UNL     1      -5.323  11.970  17.453  0.00  0.00    +0.000 A 
ATOM     28  F   UNL     1      -6.596  12.245  17.139  0.00  0.00    +0.000 F 
ATOM     29  C   UNL     1      -4.865  12.228  18.732  0.00  0.00    +0.000 A 
ATOM     30  C   UNL     1      -3.541  11.918  19.059  0.00  0.00    +0.000 A 
ENDBRANCH  21  24
ENDBRANCH   1  18
TORSDOF 3
ENDMDL
MODEL 5
REMARK VINA RESULT:      -8.5      0.986      1.244
REMARK  Name = 
REMARK  4 active torsions:
REMARK  status: ('A' for Active; 'I' for Inactive)
REMARK    1  A    between atoms: C_1  and  C_2
REMARK    2  A    between atoms: C_11  and  S_12
REMARK    3  A    between atoms: S_12  and  N_15
REMARK    4  A    between atoms: N_18  and  C_19
REMARK                            x       y       z     vdW  Elec       q    Type
REMARK                         _______ _______ _______ _____ _____    ______ ____
ROOT
ATOM      1  S   UNL     1       0.860   8.769  21.388  0.00  0.00    +0.000 S 
ATOM      2  O   UNL     1      -0.509   8.400  21.675  0.00  0.00    +0.000 OA
ATOM      3  O   UNL     1       1.769   9.186  22.436  0.00  0.00    +0.000 OA
ENDROOT
BRANCH   1  14
ATOM      4  C   UNL     1       1.834   2.968  21.639  0.00  0.00    +0.000 C 
ATOM      5  C   UNL     1       1.516   3.543  20.271  0.00  0.00    +0.000 C 
ATOM      6  C   UNL     1       2.483   2.984  19.191  0.00  0.00    +0.000 C 
ATOM      7  O   UNL     1       2.660   1.807  18.917  0.00  0.00    +0.000 OA
ATOM      8  N   UNL     1       3.094   4.083  18.598  0.00  0.00    +0.000 N 
ATOM      9  C   UNL     1       4.087   4.088  17.545  0.00  0.00    +0.000 C 
ATOM     10  C   UNL     1       4.110   5.433  16.808  0.00  0.00    +0.000 C 
ATOM     11  C   UNL     1       4.216   6.623  17.785  0.00  0.00    +0.000 C 
ATOM     12  C   UNL     1       3.170   6.527  18.863  0.00  0.00    +0.000 A 
ATOM     13  C   UNL     1       2.637   7.609  19.575  0.00  0.00    +0.000 A 
ATOM     14  C   UNL     1       1.653   7.386  20.569  0.00  0.00    +0.000 A 
ATOM     15  C   UNL     1       1.202   6.089  20.882  0.00  0.00    +0.000 A 
ATOM     16  C   UNL     1       1.761   5.028  20.194  0.00  0.00    +0.000 A 
ATOM     17  C   UNL     1       2.706   5.272  19.207  0.00  0.00    +0.000 A 
ENDBRANCH   1  14
BRANCH   1  18
ATOM     18  N   UNL     1       0.840   9.963  20.181  0.00  0.00    +0.000 NA
ATOM     19  C   UNL     1       0.015   9.697  18.960  0.00  0.00    +0.000 C 
ATOM     20  C   UNL     1      -1.470  10.111  19.143  0.00  0.00    +0.000 C 
ATOM     21  N   UNL     1      -1.570  11.524  19.581  0.00  0.00    +0.000 N 
ATOM     22  C   UNL     1      -0.777  11.805  20.807  0.00  0.00    +0.000 C 
ATOM     23  C   UNL     1       0.691  11.381  20.627  0.00  0.00    +0.000 C 
BRANCH  21  24
ATOM     24  C   UNL     1      -2.830  12.148  19.596  0.00  0.00    +0.000 A 
ATOM     25  C   UNL     1      -3.895  11.802  18.749  0.00  0.00    +0.000 A 
ATOM     26  C   UNL     1      -5.145  12.434  18.859  0.00  0.00    +0.000 A 
ATOM     27  C   UNL     1      -5.337  13.429  19.807  0.00  0.00    +0.000 A 
ATOM     28  F   UNL     1      -6.535  14.015  19.926  0.00  0.00    +0.000 F 
ATOM     29  C   UNL     1      -4.298  13.826  20.630  0.00  0.00    +0.000 A 
ATOM     30  C   UNL     1      -3.056  13.194  20.515  0.00  0.00    +0.000 A 
ENDBRANCH  21  24
ENDBRANCH   1  18
TORSDOF 3
ENDMDL
MODEL 6
REMARK VINA RESULT:      -8.5      4.421      8.690
REMARK  Name = 
REMARK  4 active torsions:
REMARK  status: ('A' for Active; 'I' for Inactive)
REMARK    1  A    between atoms: C_1  and  C_2
REMARK    2  A    between atoms: C_11  and  S_12
REMARK    3  A    between atoms: S_12  and  N_15
REMARK    4  A    between atoms: N_18  and  C_19
REMARK                            x       y       z     vdW  Elec       q    Type
REMARK                         _______ _______ _______ _____ _____    ______ ____
ROOT
ATOM      1  S   UNL     1       2.293   4.738  19.638  0.00  0.00    +0.000 S 
ATOM      2  O   UNL     1       1.864   4.112  20.869  0.00  0.00    +0.000 OA
ATOM      3  O   UNL     1       1.836   4.267  18.347  0.00  0.00    +0.000 OA
ENDROOT
BRANCH   1  14
ATOM      4  C   UNL     1      -0.587   8.827  22.744  0.00  0.00    +0.000 C 
ATOM      5  C   UNL     1       0.761   9.233  22.176  0.00  0.00    +0.000 C 
ATOM      6  C   UNL     1       0.690  10.639  21.519  0.00  0.00    +0.000 C 
ATOM      7  O   UNL     1       0.342  11.676  22.063  0.00  0.00    +0.000 OA
ATOM      8  N   UNL     1       1.108  10.484  20.203  0.00  0.00    +0.000 N 
ATOM      9  C   UNL     1       1.205  11.499  19.175  0.00  0.00    +0.000 C 
ATOM     10  C   UNL     1       2.183  11.079  18.069  0.00  0.00    +0.000 C 
ATOM     11  C   UNL     1       1.875   9.663  17.536  0.00  0.00    +0.000 C 
ATOM     12  C   UNL     1       1.760   8.677  18.666  0.00  0.00    +0.000 A 
ATOM     13  C   UNL     1       1.998   7.300  18.569  0.00  0.00    +0.000 A 
ATOM     14  C   UNL     1       1.856   6.475  19.712  0.00  0.00    +0.000 A 
ATOM     15  C   UNL     1       1.458   7.002  20.956  0.00  0.00    +0.000 A 
ATOM     16  C   UNL     1       1.195   8.357  21.029  0.00  0.00    +0.000 A 
ATOM     17  C   UNL     1       1.363   9.150  19.903  0.00  0.00    +0.000 A 
ENDBRANCH   1  14
BRANCH   1  18
ATOM     18  N   UNL     1       3.991   4.776  19.631  0.00  0.00    +0.000 NA
ATOM     19  C   UNL     1       4.708   3.518  19.250  0.00  0.00    +0.000 C 
ATOM     20  C   UNL     1       4.884   3.375  17.715  0.00  0.00    +0.000 C 
ATOM     21  N   UNL     1       5.538   4.578  17.147  0.00  0.00    +0.000 N 
ATOM     22  C   UNL     1       4.827   5.838  17.493  0.00  0.00    +0.000 C 
ATOM     23  C   UNL     1       4.643   5.970  19.015  0.00  0.00    +0.000 C 
BRANCH  21  24
ATOM     24  C   UNL     1       5.976   4.553  15.811  0.00  0.00    +0.000 A 
ATOM     25  C   UNL     1       7.127   5.206  15.343  0.00  0.00    +0.000 A 
ATOM     26  C   UNL     1       7.534   5.091  14.004  0.00  0.00    +0.000 A 
ATOM     27  C   UNL     1       6.784   4.333  13.115  0.00  0.00    +0.000 A 
ATOM     28  F   UNL     1       7.185   4.206  11.843  0.00  0.00    +0.000 F 
ATOM     29  C   UNL     1       5.621   3.710  13.530  0.00  0.00    +0.000 A 
ATOM     30  C   UNL     1       5.221   3.829  14.864  0.00  0.00    +0.000 A 
ENDBRANCH  21  24
ENDBRANCH   1  18
TORSDOF 3
ENDMDL
MODEL 7
REMARK VINA RESULT:      -8.4      1.808      2.261
REMARK  Name = 
REMARK  4 active torsions:
REMARK  status: ('A' for Active; 'I' for Inactive)
REMARK    1  A    between atoms: C_1  and  C_2
REMARK    2  A    between atoms: C_11  and  S_12
REMARK    3  A    between atoms: S_12  and  N_15
REMARK    4  A    between atoms: N_18  and  C_19
REMARK                            x       y       z     vdW  Elec       q    Type
REMARK                         _______ _______ _______ _____ _____    ______ ____
ROOT
ATOM      1  S   UNL     1       0.823   8.755  21.290  0.00  0.00    +0.000 S 
ATOM      2  O   UNL     1      -0.565   8.404  21.492  0.00  0.00    +0.000 OA
ATOM      3  O   UNL     1       1.673   9.155  22.391  0.00  0.00    +0.000 OA
ENDROOT
BRANCH   1  14
ATOM      4  C   UNL     1       1.878   2.977  21.694  0.00  0.00    +0.000 C 
ATOM      5  C   UNL     1       1.566   3.513  20.309  0.00  0.00    +0.000 C 
ATOM      6  C   UNL     1       2.551   2.942  19.253  0.00  0.00    +0.000 C 
ATOM      7  O   UNL     1       2.749   1.761  19.010  0.00  0.00    +0.000 OA
ATOM      8  N   UNL     1       3.153   4.035  18.639  0.00  0.00    +0.000 N 
ATOM      9  C   UNL     1       4.157   4.028  17.596  0.00  0.00    +0.000 C 
ATOM     10  C   UNL     1       4.167   5.355  16.826  0.00  0.00    +0.000 C 
ATOM     11  C   UNL     1       4.246   6.570  17.774  0.00  0.00    +0.000 C 
ATOM     12  C   UNL     1       3.191   6.486  18.844  0.00  0.00    +0.000 A 
ATOM     13  C   UNL     1       2.635   7.577  19.523  0.00  0.00    +0.000 A 
ATOM     14  C   UNL     1       1.644   7.364  20.513  0.00  0.00    +0.000 A 
ATOM     15  C   UNL     1       1.209   6.068  20.853  0.00  0.00    +0.000 A 
ATOM     16  C   UNL     1       1.790   4.999  20.197  0.00  0.00    +0.000 A 
ATOM     17  C   UNL     1       2.742   5.232  19.214  0.00  0.00    +0.000 A 
ENDBRANCH   1  14
BRANCH   1  18
ATOM     18  N   UNL     1       0.893   9.953  20.089  0.00  0.00    +0.000 NA
ATOM     19  C   UNL     1      -0.227  10.002  19.096  0.00  0.00    +0.000 C 
ATOM     20  C   UNL     1      -1.436  10.833  19.603  0.00  0.00    +0.000 C 
ATOM     21  N   UNL     1      -1.004  12.190  20.016  0.00  0.00    +0.000 N 
ATOM     22  C   UNL     1       0.092  12.164  21.021  0.00  0.00    +0.000 C 
ATOM     23  C   UNL     1       1.284  11.329  20.521  0.00  0.00    +0.000 C 
BRANCH  21  24
ATOM     24  C   UNL     1      -1.979  13.162  20.303  0.00  0.00    +0.000 A 
ATOM     25  C   UNL     1      -3.358  12.904  20.369  0.00  0.00    +0.000 A 
ATOM     26  C   UNL     1      -4.270  13.915  20.716  0.00  0.00    +0.000 A 
ATOM     27  C   UNL     1      -3.813  15.197  20.986  0.00  0.00    +0.000 A 
ATOM     28  F   UNL     1      -4.680  16.155  21.338  0.00  0.00    +0.000 F 
ATOM     29  C   UNL     1      -2.466  15.498  20.890  0.00  0.00    +0.000 A 
ATOM     30  C   UNL     1      -1.563  14.488  20.543  0.00  0.00    +0.000 A 
ENDBRANCH  21  24
ENDBRANCH   1  18
TORSDOF 3
ENDMDL
MODEL 8
REMARK VINA RESULT:      -8.4      2.875      3.877
REMARK  Name = 
REMARK  4 active torsions:
REMARK  status: ('A' for Active; 'I' for Inactive)
REMARK    1  A    between atoms: C_1  and  C_2
REMARK    2  A    between atoms: C_11  and  S_12
REMARK    3  A    between atoms: S_12  and  N_15
REMARK    4  A    between atoms: N_18  and  C_19
REMARK                            x       y       z     vdW  Elec       q    Type
REMARK                         _______ _______ _______ _____ _____    ______ ____
ROOT
ATOM      1  S   UNL     1       0.765   8.722  20.917  0.00  0.00    +0.000 S 
ATOM      2  O   UNL     1      -0.315   8.261  21.761  0.00  0.00    +0.000 OA
ATOM      3  O   UNL     1       1.802   9.598  21.421  0.00  0.00    +0.000 OA
ENDROOT
BRANCH   1  14
ATOM      4  C   UNL     1       1.683   2.951  21.637  0.00  0.00    +0.000 C 
ATOM      5  C   UNL     1       1.476   3.431  20.212  0.00  0.00    +0.000 C 
ATOM      6  C   UNL     1       2.521   2.799  19.252  0.00  0.00    +0.000 C 
ATOM      7  O   UNL     1       2.712   1.606  19.073  0.00  0.00    +0.000 OA
ATOM      8  N   UNL     1       3.183   3.855  18.635  0.00  0.00    +0.000 N 
ATOM      9  C   UNL     1       4.256   3.787  17.665  0.00  0.00    +0.000 C 
ATOM     10  C   UNL     1       4.343   5.079  16.842  0.00  0.00    +0.000 C 
ATOM     11  C   UNL     1       4.380   6.333  17.741  0.00  0.00    +0.000 C 
ATOM     12  C   UNL     1       3.253   6.311  18.738  0.00  0.00    +0.000 A 
ATOM     13  C   UNL     1       2.672   7.439  19.331  0.00  0.00    +0.000 A 
ATOM     14  C   UNL     1       1.612   7.285  20.258  0.00  0.00    +0.000 A 
ATOM     15  C   UNL     1       1.130   6.013  20.622  0.00  0.00    +0.000 A 
ATOM     16  C   UNL     1       1.735   4.907  20.054  0.00  0.00    +0.000 A 
ATOM     17  C   UNL     1       2.756   5.082  19.130  0.00  0.00    +0.000 A 
ENDBRANCH   1  14
BRANCH   1  18
ATOM     18  N   UNL     1       0.086   9.428  19.530  0.00  0.00    +0.000 NA
ATOM     19  C   UNL     1      -0.915  10.523  19.733  0.00  0.00    +0.000 C 
ATOM     20  C   UNL     1      -0.249  11.915  19.898  0.00  0.00    +0.000 C 
ATOM     21  N   UNL     1       0.659  12.200  18.761  0.00  0.00    +0.000 N 
ATOM     22  C   UNL     1       1.678  11.136  18.557  0.00  0.00    +0.000 C 
ATOM     23  C   UNL     1       1.015   9.755  18.407  0.00  0.00    +0.000 C 
BRANCH  21  24
ATOM     24  C   UNL     1       1.191  13.494  18.617  0.00  0.00    +0.000 A 
ATOM     25  C   UNL     1       0.497  14.674  18.927  0.00  0.00    +0.000 A 
ATOM     26  C   UNL     1       1.114  15.931  18.810  0.00  0.00    +0.000 A 
ATOM     27  C   UNL     1       2.425  16.021  18.367  0.00  0.00    +0.000 A 
ATOM     28  F   UNL     1       3.020  17.218  18.277  0.00  0.00    +0.000 F 
ATOM     29  C   UNL     1       3.126  14.882  18.012  0.00  0.00    +0.000 A 
ATOM     30  C   UNL     1       2.507  13.634  18.130  0.00  0.00    +0.000 A 
ENDBRANCH  21  24
ENDBRANCH   1  18
TORSDOF 3
ENDMDL
MODEL 9
REMARK VINA RESULT:      -8.1      2.466      3.050
REMARK  Name = 
REMARK  4 active torsions:
REMARK  status: ('A' for Active; 'I' for Inactive)
REMARK    1  A    between atoms: C_1  and  C_2
REMARK    2  A    between atoms: C_11  and  S_12
REMARK    3  A    between atoms: S_12  and  N_15
REMARK    4  A    between atoms: N_18  and  C_19
REMARK                            x       y       z     vdW  Elec       q    Type
REMARK                         _______ _______ _______ _____ _____    ______ ____
ROOT
ATOM      1  S   UNL     1       0.796   8.929  20.743  0.00  0.00    +0.000 S 
ATOM      2  O   UNL     1      -0.446   8.475  21.328  0.00  0.00    +0.000 OA
ATOM      3  O   UNL     1       1.753   9.706  21.502  0.00  0.00    +0.000 OA
ENDROOT
BRANCH   1  14
ATOM      4  C   UNL     1       2.098   3.292  21.838  0.00  0.00    +0.000 C 
ATOM      5  C   UNL     1       1.784   3.647  20.396  0.00  0.00    +0.000 C 
ATOM      6  C   UNL     1       2.811   3.002  19.425  0.00  0.00    +0.000 C 
ATOM      7  O   UNL     1       3.064   1.811  19.326  0.00  0.00    +0.000 OA
ATOM      8  N   UNL     1       3.374   4.041  18.694  0.00  0.00    +0.000 N 
ATOM      9  C   UNL     1       4.394   3.958  17.670  0.00  0.00    +0.000 C 
ATOM     10  C   UNL     1       4.359   5.184  16.748  0.00  0.00    +0.000 C 
ATOM     11  C   UNL     1       4.369   6.505  17.547  0.00  0.00    +0.000 C 
ATOM     12  C   UNL     1       3.301   6.498  18.608  0.00  0.00    +0.000 A 
ATOM     13  C   UNL     1       2.687   7.635  19.148  0.00  0.00    +0.000 A 
ATOM     14  C   UNL     1       1.690   7.495  20.145  0.00  0.00    +0.000 A 
ATOM     15  C   UNL     1       1.307   6.230  20.631  0.00  0.00    +0.000 A 
ATOM     16  C   UNL     1       1.945   5.119  20.112  0.00  0.00    +0.000 A 
ATOM     17  C   UNL     1       2.902   5.278  19.119  0.00  0.00    +0.000 A 
ENDBRANCH   1  14
BRANCH   1  18
ATOM     18  N   UNL     1       0.428   9.768  19.314  0.00  0.00    +0.000 NA
ATOM     19  C   UNL     1      -1.005  10.129  19.074  0.00  0.00    +0.000 C 
ATOM     20  C   UNL     1      -1.403  11.468  19.750  0.00  0.00    +0.000 C 
ATOM     21  N   UNL     1      -0.482  12.556  19.341  0.00  0.00    +0.000 N 
ATOM     22  C   UNL     1       0.947  12.228  19.593  0.00  0.00    +0.000 C 
ATOM     23  C   UNL     1       1.334  10.893  18.932  0.00  0.00    +0.000 C 
BRANCH  21  24
ATOM     24  C   UNL     1      -0.800  13.885  19.676  0.00  0.00    +0.000 A 
ATOM     25  C   UNL     1      -1.666  14.252  20.718  0.00  0.00    +0.000 A 
ATOM     26  C   UNL     1      -1.894  15.603  21.031  0.00  0.00    +0.000 A 
ATOM     27  C   UNL     1      -1.269  16.599  20.295  0.00  0.00    +0.000 A 
ATOM     28  F   UNL     1      -1.469  17.886  20.608  0.00  0.00    +0.000 F 
ATOM     29  C   UNL     1      -0.442  16.275  19.234  0.00  0.00    +0.000 A 
ATOM     30  C   UNL     1      -0.220  14.929  18.927  0.00  0.00    +0.000 A 
ENDBRANCH  21  24
ENDBRANCH   1  18
TORSDOF 3
ENDMDL
