MODEL 1
REMARK VINA RESULT:      -7.3      0.000      0.000
REMARK  Name = 
REMARK  7 active torsions:
REMARK  status: ('A' for Active; 'I' for Inactive)
REMARK    1  A    between atoms: C_2  and  C_3
REMARK    2  A    between atoms: C_6  and  S_7
REMARK    3  A    between atoms: S_7  and  C_8
REMARK    4  A    between atoms: C_8  and  C_9
REMARK    5  A    between atoms: C_13  and  C_14
REMARK    6  A    between atoms: C_18  and  C_19
REMARK    7  A    between atoms: C_21  and  C_22
REMARK                            x       y       z     vdW  Elec       q    Type
REMARK                         _______ _______ _______ _____ _____    ______ ____
ROOT
ATOM      1  C   UNL     1       3.597   4.122  19.798  0.00  0.00    +0.000 A 
ATOM      2  C   UNL     1       2.607   4.477  20.719  0.00  0.00    +0.000 A 
ATOM      3  N   UNL     1       1.985   5.680  20.771  0.00  0.00    +0.000 NA
ATOM      4  C   UNL     1       2.315   6.585  19.826  0.00  0.00    +0.000 A 
ATOM      5  C   UNL     1       3.249   6.301  18.809  0.00  0.00    +0.000 A 
ATOM      6  C   UNL     1       3.958   5.054  18.793  0.00  0.00    +0.000 A 
ENDROOT
BRANCH   6   7
ATOM      7  C   UNL     1       5.018   4.766  17.760  0.00  0.00    +0.000 A 
ATOM      8  C   UNL     1       6.383   5.010  18.021  0.00  0.00    +0.000 A 
ATOM      9  C   UNL     1       7.372   4.876  17.041  0.00  0.00    +0.000 A 
ATOM     10  C   UNL     1       7.044   4.378  15.790  0.00  0.00    +0.000 A 
ATOM     11  C   UNL     1       5.724   4.043  15.518  0.00  0.00    +0.000 A 
ATOM     12  C   UNL     1       4.723   4.266  16.476  0.00  0.00    +0.000 A 
ENDBRANCH   6   7
BRANCH   1  14
ATOM     13  N   UNL     1       4.623   1.753  20.051  0.00  0.00    +0.000 NA
ATOM     14  C   UNL     1       4.180   2.818  19.957  0.00  0.00    +0.000 C 
ENDBRANCH   1  14
BRANCH   5  15
ATOM     15  C   UNL     1       3.438   7.293  17.784  0.00  0.00    +0.000 C 
ATOM     16  N   UNL     1       3.567   8.074  16.934  0.00  0.00    +0.000 NA
ENDBRANCH   5  15
BRANCH   4  17
ATOM     17  S   UNL     1       1.410   8.136  19.841  0.00  0.00    +0.000 S 
BRANCH  17  18
ATOM     18  C   UNL     1       1.200   8.493  21.621  0.00  0.00    +0.000 C 
BRANCH  18  19
ATOM     19  C   UNL     1       0.282   9.692  21.788  0.00  0.00    +0.000 A 
ATOM     20  C   UNL     1      -0.377   9.913  23.005  0.00  0.00    +0.000 A 
ATOM     21  C   UNL     1      -1.285  10.964  23.146  0.00  0.00    +0.000 A 
ATOM     22  C   UNL     1      -1.555  11.814  22.071  0.00  0.00    +0.000 A 
ATOM     23  C   UNL     1      -0.912  11.617  20.844  0.00  0.00    +0.000 A 
ATOM     24  C   UNL     1       0.005  10.554  20.712  0.00  0.00    +0.000 A 
BRANCH  23  25
ATOM     25  C   UNL     1      -1.155  12.482  19.649  0.00  0.00    +0.000 C 
ATOM     26  N   UNL     1      -2.436  12.779  19.293  0.00  0.00    +0.000 N 
ATOM     27  O   UNL     1      -0.226  12.924  18.987  0.00  0.00    +0.000 OA
ATOM     28  H   UNL     1      -3.271  12.443  19.751  0.00  0.00    +0.000 HD
ATOM     29  H   UNL     1      -2.555  13.351  18.466  0.00  0.00    +0.000 HD
ENDBRANCH  23  25
ENDBRANCH  18  19
ENDBRANCH  17  18
ENDBRANCH   4  17
TORSDOF 7
ENDMDL
MODEL 2
REMARK VINA RESULT:      -7.1      0.563      1.079
REMARK  Name = 
REMARK  7 active torsions:
REMARK  status: ('A' for Active; 'I' for Inactive)
REMARK    1  A    between atoms: C_2  and  C_3
REMARK    2  A    between atoms: C_6  and  S_7
REMARK    3  A    between atoms: S_7  and  C_8
REMARK    4  A    between atoms: C_8  and  C_9
REMARK    5  A    between atoms: C_13  and  C_14
REMARK    6  A    between atoms: C_18  and  C_19
REMARK    7  A    between atoms: C_21  and  C_22
REMARK                            x       y       z     vdW  Elec       q    Type
REMARK                         _______ _______ _______ _____ _____    ______ ____
ROOT
ATOM      1  C   UNL     1       3.593   4.152  19.743  0.00  0.00    +0.000 A 
ATOM      2  C   UNL     1       2.588   4.486  20.654  0.00  0.00    +0.000 A 
ATOM      3  N   UNL     1       1.957   5.684  20.715  0.00  0.00    +0.000 NA
ATOM      4  C   UNL     1       2.295   6.606  19.788  0.00  0.00    +0.000 A 
ATOM      5  C   UNL     1       3.246   6.344  18.781  0.00  0.00    +0.000 A 
ATOM      6  C   UNL     1       3.963   5.100  18.757  0.00  0.00    +0.000 A 
ENDROOT
BRANCH   6   7
ATOM      7  C   UNL     1       5.040   4.835  17.736  0.00  0.00    +0.000 A 
ATOM      8  C   UNL     1       4.728   4.341  16.451  0.00  0.00    +0.000 A 
ATOM      9  C   UNL     1       5.712   3.964  15.531  0.00  0.00    +0.000 A 
ATOM     10  C   UNL     1       7.050   4.176  15.823  0.00  0.00    +0.000 A 
ATOM     11  C   UNL     1       7.397   4.740  17.043  0.00  0.00    +0.000 A 
ATOM     12  C   UNL     1       6.410   5.032  17.997  0.00  0.00    +0.000 A 
ENDBRANCH   6   7
BRANCH   1  14
ATOM     13  N   UNL     1       4.637   1.788  19.971  0.00  0.00    +0.000 NA
ATOM     14  C   UNL     1       4.182   2.849  19.891  0.00  0.00    +0.000 C 
ENDBRANCH   1  14
BRANCH   5  15
ATOM     15  C   UNL     1       3.444   7.352  17.775  0.00  0.00    +0.000 C 
ATOM     16  N   UNL     1       3.595   8.140  16.935  0.00  0.00    +0.000 NA
ENDBRANCH   5  15
BRANCH   4  17
ATOM     17  S   UNL     1       1.380   8.151  19.813  0.00  0.00    +0.000 S 
BRANCH  17  18
ATOM     18  C   UNL     1       1.117   8.465  21.594  0.00  0.00    +0.000 C 
BRANCH  18  19
ATOM     19  C   UNL     1       0.273   9.717  21.764  0.00  0.00    +0.000 A 
ATOM     20  C   UNL     1      -0.430   9.938  22.956  0.00  0.00    +0.000 A 
ATOM     21  C   UNL     1      -1.273  11.043  23.094  0.00  0.00    +0.000 A 
ATOM     22  C   UNL     1      -1.432  11.948  22.042  0.00  0.00    +0.000 A 
ATOM     23  C   UNL     1      -0.742  11.751  20.840  0.00  0.00    +0.000 A 
ATOM     24  C   UNL     1       0.108  10.634  20.711  0.00  0.00    +0.000 A 
BRANCH  23  25
ATOM     25  C   UNL     1      -0.869  12.672  19.670  0.00  0.00    +0.000 C 
ATOM     26  N   UNL     1      -0.307  12.318  18.480  0.00  0.00    +0.000 N 
ATOM     27  O   UNL     1      -1.465  13.737  19.764  0.00  0.00    +0.000 OA
ATOM     28  H   UNL     1       0.228  11.480  18.305  0.00  0.00    +0.000 HD
ATOM     29  H   UNL     1      -0.401  12.982  17.720  0.00  0.00    +0.000 HD
ENDBRANCH  23  25
ENDBRANCH  18  19
ENDBRANCH  17  18
ENDBRANCH   4  17
TORSDOF 7
ENDMDL
MODEL 3
REMARK VINA RESULT:      -7.1      3.956      7.620
REMARK  Name = 
REMARK  7 active torsions:
REMARK  status: ('A' for Active; 'I' for Inactive)
REMARK    1  A    between atoms: C_2  and  C_3
REMARK    2  A    between atoms: C_6  and  S_7
REMARK    3  A    between atoms: S_7  and  C_8
REMARK    4  A    between atoms: C_8  and  C_9
REMARK    5  A    between atoms: C_13  and  C_14
REMARK    6  A    between atoms: C_18  and  C_19
REMARK    7  A    between atoms: C_21  and  C_22
REMARK                            x       y       z     vdW  Elec       q    Type
REMARK                         _______ _______ _______ _____ _____    ______ ____
ROOT
ATOM      1  C   UNL     1       3.030   6.512  18.432  0.00  0.00    +0.000 A 
ATOM      2  C   UNL     1       3.717   7.130  17.384  0.00  0.00    +0.000 A 
ATOM      3  N   UNL     1       4.475   6.488  16.462  0.00  0.00    +0.000 NA
ATOM      4  C   UNL     1       4.524   5.141  16.536  0.00  0.00    +0.000 A 
ATOM      5  C   UNL     1       3.810   4.416  17.511  0.00  0.00    +0.000 A 
ATOM      6  C   UNL     1       3.062   5.099  18.528  0.00  0.00    +0.000 A 
ENDROOT
BRANCH   6   7
ATOM      7  C   UNL     1       2.358   4.342  19.626  0.00  0.00    +0.000 A 
ATOM      8  C   UNL     1       2.925   4.218  20.913  0.00  0.00    +0.000 A 
ATOM      9  C   UNL     1       2.359   3.416  21.910  0.00  0.00    +0.000 A 
ATOM     10  C   UNL     1       1.139   2.798  21.691  0.00  0.00    +0.000 A 
ATOM     11  C   UNL     1       0.503   2.965  20.468  0.00  0.00    +0.000 A 
ATOM     12  C   UNL     1       1.120   3.695  19.441  0.00  0.00    +0.000 A 
ENDBRANCH   6   7
BRANCH   1  14
ATOM     13  N   UNL     1       1.797   8.058  20.112  0.00  0.00    +0.000 NA
ATOM     14  C   UNL     1       2.338   7.382  19.343  0.00  0.00    +0.000 C 
ENDBRANCH   1  14
BRANCH   5  15
ATOM     15  C   UNL     1       3.838   2.981  17.426  0.00  0.00    +0.000 C 
ATOM     16  N   UNL     1       3.831   1.820  17.382  0.00  0.00    +0.000 NA
ENDBRANCH   5  15
BRANCH   4  17
ATOM     17  S   UNL     1       5.445   4.294  15.248  0.00  0.00    +0.000 S 
BRANCH  17  18
ATOM     18  C   UNL     1       6.991   5.259  15.120  0.00  0.00    +0.000 C 
BRANCH  18  19
ATOM     19  C   UNL     1       7.426   5.698  16.508  0.00  0.00    +0.000 A 
ATOM     20  C   UNL     1       7.492   4.768  17.554  0.00  0.00    +0.000 A 
ATOM     21  C   UNL     1       7.812   5.173  18.852  0.00  0.00    +0.000 A 
ATOM     22  C   UNL     1       8.070   6.517  19.130  0.00  0.00    +0.000 A 
ATOM     23  C   UNL     1       8.012   7.468  18.104  0.00  0.00    +0.000 A 
ATOM     24  C   UNL     1       7.690   7.048  16.797  0.00  0.00    +0.000 A 
BRANCH  23  25
ATOM     25  C   UNL     1       8.269   8.923  18.328  0.00  0.00    +0.000 C 
ATOM     26  N   UNL     1       9.104   9.304  19.335  0.00  0.00    +0.000 N 
ATOM     27  O   UNL     1       7.742   9.774  17.625  0.00  0.00    +0.000 OA
ATOM     28  H   UNL     1       9.564   8.686  19.988  0.00  0.00    +0.000 HD
ATOM     29  H   UNL     1       9.233  10.300  19.463  0.00  0.00    +0.000 HD
ENDBRANCH  23  25
ENDBRANCH  18  19
ENDBRANCH  17  18
ENDBRANCH   4  17
TORSDOF 7
ENDMDL
MODEL 4
REMARK VINA RESULT:      -6.9      3.236      8.486
REMARK  Name = 
REMARK  7 active torsions:
REMARK  status: ('A' for Active; 'I' for Inactive)
REMARK    1  A    between atoms: C_2  and  C_3
REMARK    2  A    between atoms: C_6  and  S_7
REMARK    3  A    between atoms: S_7  and  C_8
REMARK    4  A    between atoms: C_8  and  C_9
REMARK    5  A    between atoms: C_13  and  C_14
REMARK    6  A    between atoms: C_18  and  C_19
REMARK    7  A    between atoms: C_21  and  C_22
REMARK                            x       y       z     vdW  Elec       q    Type
REMARK                         _______ _______ _______ _____ _____    ______ ____
ROOT
ATOM      1  C   UNL     1       2.215   8.279  18.525  0.00  0.00    +0.000 A 
ATOM      2  C   UNL     1       2.809   7.635  17.436  0.00  0.00    +0.000 A 
ATOM      3  N   UNL     1       3.175   6.331  17.406  0.00  0.00    +0.000 NA
ATOM      4  C   UNL     1       2.894   5.587  18.497  0.00  0.00    +0.000 A 
ATOM      5  C   UNL     1       2.231   6.123  19.620  0.00  0.00    +0.000 A 
ATOM      6  C   UNL     1       1.905   7.519  19.680  0.00  0.00    +0.000 A 
ENDROOT
BRANCH   6   7
ATOM      7  C   UNL     1       1.270   8.126  20.906  0.00  0.00    +0.000 A 
ATOM      8  C   UNL     1      -0.129   8.106  21.094  0.00  0.00    +0.000 A 
ATOM      9  C   UNL     1      -0.755   8.772  22.153  0.00  0.00    +0.000 A 
ATOM     10  C   UNL     1       0.009   9.387  23.132  0.00  0.00    +0.000 A 
ATOM     11  C   UNL     1       1.394   9.356  23.031  0.00  0.00    +0.000 A 
ATOM     12  C   UNL     1       2.011   8.765  21.919  0.00  0.00    +0.000 A 
ENDBRANCH   6   7
BRANCH   1  14
ATOM     13  N   UNL     1       1.777  10.817  18.212  0.00  0.00    +0.000 NA
ATOM     14  C   UNL     1       1.968   9.687  18.377  0.00  0.00    +0.000 C 
ENDBRANCH   1  14
BRANCH   5  15
ATOM     15  C   UNL     1       1.875   5.216  20.678  0.00  0.00    +0.000 C 
ATOM     16  N   UNL     1       1.579   4.457  21.506  0.00  0.00    +0.000 NA
ENDBRANCH   5  15
BRANCH   4  17
ATOM     17  S   UNL     1       3.287   3.838  18.406  0.00  0.00    +0.000 S 
BRANCH  17  18
ATOM     18  C   UNL     1       4.946   3.731  19.164  0.00  0.00    +0.000 C 
BRANCH  18  19
ATOM     19  C   UNL     1       5.926   4.557  18.348  0.00  0.00    +0.000 A 
ATOM     20  C   UNL     1       6.612   5.626  18.939  0.00  0.00    +0.000 A 
ATOM     21  C   UNL     1       7.453   6.443  18.180  0.00  0.00    +0.000 A 
ATOM     22  C   UNL     1       7.623   6.208  16.814  0.00  0.00    +0.000 A 
ATOM     23  C   UNL     1       6.950   5.147  16.197  0.00  0.00    +0.000 A 
ATOM     24  C   UNL     1       6.104   4.327  16.973  0.00  0.00    +0.000 A 
BRANCH  23  25
ATOM     25  C   UNL     1       7.077   4.841  14.740  0.00  0.00    +0.000 C 
ATOM     26  N   UNL     1       6.403   3.776  14.223  0.00  0.00    +0.000 N 
ATOM     27  O   UNL     1       7.776   5.528  14.007  0.00  0.00    +0.000 OA
ATOM     28  H   UNL     1       5.827   3.131  14.744  0.00  0.00    +0.000 HD
ATOM     29  H   UNL     1       6.535   3.593  13.235  0.00  0.00    +0.000 HD
ENDBRANCH  23  25
ENDBRANCH  18  19
ENDBRANCH  17  18
ENDBRANCH   4  17
TORSDOF 7
ENDMDL
MODEL 5
REMARK VINA RESULT:      -6.8      1.238      1.621
REMARK  Name = 
REMARK  7 active torsions:
REMARK  status: ('A' for Active; 'I' for Inactive)
REMARK    1  A    between atoms: C_2  and  C_3
REMARK    2  A    between atoms: C_6  and  S_7
REMARK    3  A    between atoms: S_7  and  C_8
REMARK    4  A    between atoms: C_8  and  C_9
REMARK    5  A    between atoms: C_13  and  C_14
REMARK    6  A    between atoms: C_18  and  C_19
REMARK    7  A    between atoms: C_21  and  C_22
REMARK                            x       y       z     vdW  Elec       q    Type
REMARK                         _______ _______ _______ _____ _____    ______ ____
ROOT
ATOM      1  C   UNL     1       3.603   3.447  20.219  0.00  0.00    +0.000 A 
ATOM      2  C   UNL     1       2.485   3.439  21.057  0.00  0.00    +0.000 A 
ATOM      3  N   UNL     1       1.594   4.454  21.179  0.00  0.00    +0.000 NA
ATOM      4  C   UNL     1       1.778   5.532  20.387  0.00  0.00    +0.000 A 
ATOM      5  C   UNL     1       2.832   5.608  19.456  0.00  0.00    +0.000 A 
ATOM      6  C   UNL     1       3.815   4.565  19.375  0.00  0.00    +0.000 A 
ENDROOT
BRANCH   6   7
ATOM      7  C   UNL     1       4.995   4.667  18.441  0.00  0.00    +0.000 A 
ATOM      8  C   UNL     1       4.919   4.207  17.109  0.00  0.00    +0.000 A 
ATOM      9  C   UNL     1       6.031   4.170  16.262  0.00  0.00    +0.000 A 
ATOM     10  C   UNL     1       7.239   4.702  16.683  0.00  0.00    +0.000 A 
ATOM     11  C   UNL     1       7.335   5.245  17.957  0.00  0.00    +0.000 A 
ATOM     12  C   UNL     1       6.240   5.196  18.833  0.00  0.00    +0.000 A 
ENDBRANCH   6   7
BRANCH   1  14
ATOM     13  N   UNL     1       5.164   1.376  20.304  0.00  0.00    +0.000 NA
ATOM     14  C   UNL     1       4.462   2.296  20.290  0.00  0.00    +0.000 C 
ENDBRANCH   1  14
BRANCH   5  15
ATOM     15  C   UNL     1       2.866   6.749  18.581  0.00  0.00    +0.000 C 
ATOM     16  N   UNL     1       2.931   7.665  17.870  0.00  0.00    +0.000 NA
ENDBRANCH   5  15
BRANCH   4  17
ATOM     17  S   UNL     1       0.534   6.824  20.480  0.00  0.00    +0.000 S 
BRANCH  17  18
ATOM     18  C   UNL     1       1.419   8.216  21.266  0.00  0.00    +0.000 C 
BRANCH  18  19
ATOM     19  C   UNL     1       0.655   9.504  21.011  0.00  0.00    +0.000 A 
ATOM     20  C   UNL     1       0.391  10.389  22.066  0.00  0.00    +0.000 A 
ATOM     21  C   UNL     1      -0.379  11.536  21.861  0.00  0.00    +0.000 A 
ATOM     22  C   UNL     1      -0.901  11.821  20.597  0.00  0.00    +0.000 A 
ATOM     23  C   UNL     1      -0.653  10.955  19.525  0.00  0.00    +0.000 A 
ATOM     24  C   UNL     1       0.127   9.801  19.743  0.00  0.00    +0.000 A 
BRANCH  23  25
ATOM     25  C   UNL     1      -1.184  11.191  18.149  0.00  0.00    +0.000 C 
ATOM     26  N   UNL     1      -1.362  12.470  17.715  0.00  0.00    +0.000 N 
ATOM     27  O   UNL     1      -1.462  10.257  17.409  0.00  0.00    +0.000 OA
ATOM     28  H   UNL     1      -1.193  13.307  18.254  0.00  0.00    +0.000 HD
ATOM     29  H   UNL     1      -1.743  12.583  16.783  0.00  0.00    +0.000 HD
ENDBRANCH  23  25
ENDBRANCH  18  19
ENDBRANCH  17  18
ENDBRANCH   4  17
TORSDOF 7
ENDMDL
MODEL 6
REMARK VINA RESULT:      -6.7      2.367      3.926
REMARK  Name = 
REMARK  7 active torsions:
REMARK  status: ('A' for Active; 'I' for Inactive)
REMARK    1  A    between atoms: C_2  and  C_3
REMARK    2  A    between atoms: C_6  and  S_7
REMARK    3  A    between atoms: S_7  and  C_8
REMARK    4  A    between atoms: C_8  and  C_9
REMARK    5  A    between atoms: C_13  and  C_14
REMARK    6  A    between atoms: C_18  and  C_19
REMARK    7  A    between atoms: C_21  and  C_22
REMARK                            x       y       z     vdW  Elec       q    Type
REMARK                         _______ _______ _______ _____ _____    ______ ____
ROOT
ATOM      1  C   UNL     1       3.957   6.679  17.251  0.00  0.00    +0.000 A 
ATOM      2  C   UNL     1       3.722   8.056  17.269  0.00  0.00    +0.000 A 
ATOM      3  N   UNL     1       2.855   8.688  18.097  0.00  0.00    +0.000 NA
ATOM      4  C   UNL     1       2.210   7.930  19.008  0.00  0.00    +0.000 A 
ATOM      5  C   UNL     1       2.429   6.543  19.121  0.00  0.00    +0.000 A 
ATOM      6  C   UNL     1       3.295   5.861  18.201  0.00  0.00    +0.000 A 
ENDROOT
BRANCH   6   7
ATOM      7  C   UNL     1       3.479   4.366  18.256  0.00  0.00    +0.000 A 
ATOM      8  C   UNL     1       2.709   3.501  17.449  0.00  0.00    +0.000 A 
ATOM      9  C   UNL     1       2.765   2.109  17.572  0.00  0.00    +0.000 A 
ATOM     10  C   UNL     1       3.684   1.527  18.431  0.00  0.00    +0.000 A 
ATOM     11  C   UNL     1       4.522   2.341  19.181  0.00  0.00    +0.000 A 
ATOM     12  C   UNL     1       4.397   3.737  19.120  0.00  0.00    +0.000 A 
ENDBRANCH   6   7
BRANCH   1  14
ATOM     13  N   UNL     1       5.568   5.828  15.404  0.00  0.00    +0.000 NA
ATOM     14  C   UNL     1       4.866   6.199  16.246  0.00  0.00    +0.000 C 
ENDBRANCH   1  14
BRANCH   5  15
ATOM     15  C   UNL     1       1.779   5.852  20.202  0.00  0.00    +0.000 C 
ATOM     16  N   UNL     1       1.228   5.322  21.076  0.00  0.00    +0.000 NA
ENDBRANCH   5  15
BRANCH   4  17
ATOM     17  S   UNL     1       1.144   8.793  20.168  0.00  0.00    +0.000 S 
BRANCH  17  18
ATOM     18  C   UNL     1       0.905  10.431  19.395  0.00  0.00    +0.000 C 
BRANCH  18  19
ATOM     19  C   UNL     1      -0.490  10.506  18.798  0.00  0.00    +0.000 A 
ATOM     20  C   UNL     1      -0.792   9.811  17.618  0.00  0.00    +0.000 A 
ATOM     21  C   UNL     1      -2.045   9.936  17.016  0.00  0.00    +0.000 A 
ATOM     22  C   UNL     1      -3.022  10.760  17.579  0.00  0.00    +0.000 A 
ATOM     23  C   UNL     1      -2.749  11.466  18.757  0.00  0.00    +0.000 A 
ATOM     24  C   UNL     1      -1.481  11.331  19.358  0.00  0.00    +0.000 A 
BRANCH  23  25
ATOM     25  C   UNL     1      -3.741  12.370  19.412  0.00  0.00    +0.000 C 
ATOM     26  N   UNL     1      -4.919  12.636  18.780  0.00  0.00    +0.000 N 
ATOM     27  O   UNL     1      -3.513  12.876  20.503  0.00  0.00    +0.000 OA
ATOM     28  H   UNL     1      -5.191  12.295  17.869  0.00  0.00    +0.000 HD
ATOM     29  H   UNL     1      -5.553  13.270  19.251  0.00  0.00    +0.000 HD
ENDBRANCH  23  25
ENDBRANCH  18  19
ENDBRANCH  17  18
ENDBRANCH   4  17
TORSDOF 7
ENDMDL
MODEL 7
REMARK VINA RESULT:      -6.7      2.189      4.248
REMARK  Name = 
REMARK  7 active torsions:
REMARK  status: ('A' for Active; 'I' for Inactive)
REMARK    1  A    between atoms: C_2  and  C_3
REMARK    2  A    between atoms: C_6  and  S_7
REMARK    3  A    between atoms: S_7  and  C_8
REMARK    4  A    between atoms: C_8  and  C_9
REMARK    5  A    between atoms: C_13  and  C_14
REMARK    6  A    between atoms: C_18  and  C_19
REMARK    7  A    between atoms: C_21  and  C_22
REMARK                            x       y       z     vdW  Elec       q    Type
REMARK                         _______ _______ _______ _____ _____    ______ ____
ROOT
ATOM      1  C   UNL     1       3.538   5.868  17.762  0.00  0.00    +0.000 A 
ATOM      2  C   UNL     1       3.858   7.005  17.015  0.00  0.00    +0.000 A 
ATOM      3  N   UNL     1       3.326   8.237  17.204  0.00  0.00    +0.000 NA
ATOM      4  C   UNL     1       2.459   8.384  18.228  0.00  0.00    +0.000 A 
ATOM      5  C   UNL     1       2.125   7.317  19.086  0.00  0.00    +0.000 A 
ATOM      6  C   UNL     1       2.634   5.997  18.846  0.00  0.00    +0.000 A 
ENDROOT
BRANCH   6   7
ATOM      7  C   UNL     1       2.223   4.828  19.705  0.00  0.00    +0.000 A 
ATOM      8  C   UNL     1       1.211   3.934  19.295  0.00  0.00    +0.000 A 
ATOM      9  C   UNL     1       0.720   2.921  20.125  0.00  0.00    +0.000 A 
ATOM     10  C   UNL     1       1.308   2.691  21.358  0.00  0.00    +0.000 A 
ATOM     11  C   UNL     1       2.366   3.493  21.765  0.00  0.00    +0.000 A 
ATOM     12  C   UNL     1       2.793   4.565  20.967  0.00  0.00    +0.000 A 
ENDBRANCH   6   7
BRANCH   1  14
ATOM     13  N   UNL     1       4.628   3.631  17.028  0.00  0.00    +0.000 NA
ATOM     14  C   UNL     1       4.165   4.640  17.355  0.00  0.00    +0.000 C 
ENDBRANCH   1  14
BRANCH   5  15
ATOM     15  C   UNL     1       1.283   7.610  20.215  0.00  0.00    +0.000 C 
ATOM     16  N   UNL     1       0.636   7.850  21.149  0.00  0.00    +0.000 NA
ENDBRANCH   5  15
BRANCH   4  17
ATOM     17  S   UNL     1       1.841  10.042  18.533  0.00  0.00    +0.000 S 
BRANCH  17  18
ATOM     18  C   UNL     1       0.138   9.994  17.872  0.00  0.00    +0.000 C 
BRANCH  18  19
ATOM     19  C   UNL     1      -0.781  10.776  18.794  0.00  0.00    +0.000 A 
ATOM     20  C   UNL     1      -2.039  11.199  18.344  0.00  0.00    +0.000 A 
ATOM     21  C   UNL     1      -2.860  11.987  19.154  0.00  0.00    +0.000 A 
ATOM     22  C   UNL     1      -2.438  12.370  20.430  0.00  0.00    +0.000 A 
ATOM     23  C   UNL     1      -1.187  11.961  20.905  0.00  0.00    +0.000 A 
ATOM     24  C   UNL     1      -0.367  11.164  20.080  0.00  0.00    +0.000 A 
BRANCH  23  25
ATOM     25  C   UNL     1      -0.667  12.337  22.254  0.00  0.00    +0.000 C 
ATOM     26  N   UNL     1      -0.331  13.634  22.501  0.00  0.00    +0.000 N 
ATOM     27  O   UNL     1      -0.537  11.500  23.138  0.00  0.00    +0.000 OA
ATOM     28  H   UNL     1      -0.372  14.392  21.835  0.00  0.00    +0.000 HD
ATOM     29  H   UNL     1       0.036  13.839  23.423  0.00  0.00    +0.000 HD
ENDBRANCH  23  25
ENDBRANCH  18  19
ENDBRANCH  17  18
ENDBRANCH   4  17
TORSDOF 7
ENDMDL
MODEL 8
REMARK VINA RESULT:      -6.6      2.198      4.162
REMARK  Name = 
REMARK  7 active torsions:
REMARK  status: ('A' for Active; 'I' for Inactive)
REMARK    1  A    between atoms: C_2  and  C_3
REMARK    2  A    between atoms: C_6  and  S_7
REMARK    3  A    between atoms: S_7  and  C_8
REMARK    4  A    between atoms: C_8  and  C_9
REMARK    5  A    between atoms: C_13  and  C_14
REMARK    6  A    between atoms: C_18  and  C_19
REMARK    7  A    between atoms: C_21  and  C_22
REMARK                            x       y       z     vdW  Elec       q    Type
REMARK                         _______ _______ _______ _____ _____    ______ ____
ROOT
ATOM      1  C   UNL     1       3.517   5.738  17.782  0.00  0.00    +0.000 A 
ATOM      2  C   UNL     1       3.861   6.862  17.026  0.00  0.00    +0.000 A 
ATOM      3  N   UNL     1       3.377   8.113  17.224  0.00  0.00    +0.000 NA
ATOM      4  C   UNL     1       2.538   8.291  18.266  0.00  0.00    +0.000 A 
ATOM      5  C   UNL     1       2.185   7.237  19.134  0.00  0.00    +0.000 A 
ATOM      6  C   UNL     1       2.642   5.900  18.885  0.00  0.00    +0.000 A 
ENDROOT
BRANCH   6   7
ATOM      7  C   UNL     1       2.210   4.747  19.755  0.00  0.00    +0.000 A 
ATOM      8  C   UNL     1       2.898   4.426  20.944  0.00  0.00    +0.000 A 
ATOM      9  C   UNL     1       2.601   3.288  21.702  0.00  0.00    +0.000 A 
ATOM     10  C   UNL     1       1.523   2.489  21.356  0.00  0.00    +0.000 A 
ATOM     11  C   UNL     1       0.764   2.818  20.241  0.00  0.00    +0.000 A 
ATOM     12  C   UNL     1       1.124   3.908  19.435  0.00  0.00    +0.000 A 
ENDBRANCH   6   7
BRANCH   1  14
ATOM     13  N   UNL     1       4.514   3.461  17.040  0.00  0.00    +0.000 NA
ATOM     14  C   UNL     1       4.091   4.488  17.363  0.00  0.00    +0.000 C 
ENDBRANCH   1  14
BRANCH   5  15
ATOM     15  C   UNL     1       1.380   7.561  20.281  0.00  0.00    +0.000 C 
ATOM     16  N   UNL     1       0.754   7.802  21.229  0.00  0.00    +0.000 NA
ENDBRANCH   5  15
BRANCH   4  17
ATOM     17  S   UNL     1       1.986   9.970  18.583  0.00  0.00    +0.000 S 
BRANCH  17  18
ATOM     18  C   UNL     1       0.254   9.969  18.001  0.00  0.00    +0.000 C 
BRANCH  18  19
ATOM     19  C   UNL     1      -0.591  10.814  18.940  0.00  0.00    +0.000 A 
ATOM     20  C   UNL     1      -1.462  11.784  18.426  0.00  0.00    +0.000 A 
ATOM     21  C   UNL     1      -2.183  12.621  19.279  0.00  0.00    +0.000 A 
ATOM     22  C   UNL     1      -2.047  12.507  20.665  0.00  0.00    +0.000 A 
ATOM     23  C   UNL     1      -1.185  11.546  21.206  0.00  0.00    +0.000 A 
ATOM     24  C   UNL     1      -0.462  10.704  20.335  0.00  0.00    +0.000 A 
BRANCH  23  25
ATOM     25  C   UNL     1      -0.983  11.371  22.676  0.00  0.00    +0.000 C 
ATOM     26  N   UNL     1      -0.567  10.164  23.151  0.00  0.00    +0.000 N 
ATOM     27  O   UNL     1      -1.186  12.291  23.457  0.00  0.00    +0.000 OA
ATOM     28  H   UNL     1      -0.400   9.336  22.598  0.00  0.00    +0.000 HD
ATOM     29  H   UNL     1      -0.462  10.085  24.156  0.00  0.00    +0.000 HD
ENDBRANCH  23  25
ENDBRANCH  18  19
ENDBRANCH  17  18
ENDBRANCH   4  17
TORSDOF 7
ENDMDL
MODEL 9
REMARK VINA RESULT:      -6.6      2.252      3.766
REMARK  Name = 
REMARK  7 active torsions:
REMARK  status: ('A' for Active; 'I' for Inactive)
REMARK    1  A    between atoms: C_2  and  C_3
REMARK    2  A    between atoms: C_6  and  S_7
REMARK    3  A    between atoms: S_7  and  C_8
REMARK    4  A    between atoms: C_8  and  C_9
REMARK    5  A    between atoms: C_13  and  C_14
REMARK    6  A    between atoms: C_18  and  C_19
REMARK    7  A    between atoms: C_21  and  C_22
REMARK                            x       y       z     vdW  Elec       q    Type
REMARK                         _______ _______ _______ _____ _____    ______ ____
ROOT
ATOM      1  C   UNL     1       4.350   6.165  17.084  0.00  0.00    +0.000 A 
ATOM      2  C   UNL     1       4.197   7.541  16.899  0.00  0.00    +0.000 A 
ATOM      3  N   UNL     1       3.311   8.324  17.562  0.00  0.00    +0.000 NA
ATOM      4  C   UNL     1       2.555   7.730  18.510  0.00  0.00    +0.000 A 
ATOM      5  C   UNL     1       2.683   6.362  18.824  0.00  0.00    +0.000 A 
ATOM      6  C   UNL     1       3.572   5.519  18.077  0.00  0.00    +0.000 A 
ENDROOT
BRANCH   6   7
ATOM      7  C   UNL     1       3.662   4.038  18.345  0.00  0.00    +0.000 A 
ATOM      8  C   UNL     1       2.932   3.107  17.577  0.00  0.00    +0.000 A 
ATOM      9  C   UNL     1       2.894   1.743  17.884  0.00  0.00    +0.000 A 
ATOM     10  C   UNL     1       3.682   1.243  18.908  0.00  0.00    +0.000 A 
ATOM     11  C   UNL     1       4.483   2.113  19.636  0.00  0.00    +0.000 A 
ATOM     12  C   UNL     1       4.446   3.492  19.380  0.00  0.00    +0.000 A 
ENDBRANCH   6   7
BRANCH   1  14
ATOM     13  N   UNL     1       6.042   4.992  15.505  0.00  0.00    +0.000 NA
ATOM     14  C   UNL     1       5.301   5.508  16.229  0.00  0.00    +0.000 C 
ENDBRANCH   1  14
BRANCH   5  15
ATOM     15  C   UNL     1       1.914   5.859  19.931  0.00  0.00    +0.000 C 
ATOM     16  N   UNL     1       1.272   5.432  20.800  0.00  0.00    +0.000 NA
ENDBRANCH   5  15
BRANCH   4  17
ATOM     17  S   UNL     1       1.460   8.795  19.454  0.00  0.00    +0.000 S 
BRANCH  17  18
ATOM     18  C   UNL     1       0.996  10.100  18.261  0.00  0.00    +0.000 C 
BRANCH  18  19
ATOM     19  C   UNL     1      -0.233  10.833  18.771  0.00  0.00    +0.000 A 
ATOM     20  C   UNL     1      -0.198  11.498  20.004  0.00  0.00    +0.000 A 
ATOM     21  C   UNL     1      -1.344  12.106  20.521  0.00  0.00    +0.000 A 
ATOM     22  C   UNL     1      -2.549  12.060  19.815  0.00  0.00    +0.000 A 
ATOM     23  C   UNL     1      -2.613  11.403  18.581  0.00  0.00    +0.000 A 
ATOM     24  C   UNL     1      -1.449  10.793  18.067  0.00  0.00    +0.000 A 
BRANCH  23  25
ATOM     25  C   UNL     1      -3.867  11.307  17.775  0.00  0.00    +0.000 C 
ATOM     26  N   UNL     1      -3.898  11.849  16.525  0.00  0.00    +0.000 N 
ATOM     27  O   UNL     1      -4.864  10.752  18.218  0.00  0.00    +0.000 OA
ATOM     28  H   UNL     1      -3.144  12.352  16.080  0.00  0.00    +0.000 HD
ATOM     29  H   UNL     1      -4.775  11.778  16.023  0.00  0.00    +0.000 HD
ENDBRANCH  23  25
ENDBRANCH  18  19
ENDBRANCH  17  18
ENDBRANCH   4  17
TORSDOF 7
ENDMDL
