MODEL 1
REMARK VINA RESULT:      -7.7      0.000      0.000
REMARK  Name = 
REMARK  11 active torsions:
REMARK  status: ('A' for Active; 'I' for Inactive)
REMARK    1  A    between atoms: C_1  and  C_2
REMARK    2  A    between atoms: C_2  and  N_3
REMARK    3  A    between atoms: N_3  and  C_4
REMARK    4  A    between atoms: N_3  and  C_6
REMARK    5  A    between atoms: C_4  and  C_5
REMARK    6  A    between atoms: C_9  and  N_10
REMARK    7  A    between atoms: N_10  and  S_11
REMARK    8  A    between atoms: S_11  and  C_14
REMARK    9  A    between atoms: C_17  and  C_18
REMARK   10  A    between atoms: C_21  and  C_22
REMARK   11  A    between atoms: C_26  and  C_27
REMARK                            x       y       z     vdW  Elec       q    Type
REMARK                         _______ _______ _______ _____ _____    ______ ____
ROOT
ATOM      1  S   UNL     1       1.992   5.187  20.525  0.00  0.00    +0.000 S 
ATOM      2  O   UNL     1       2.372   4.377  21.665  0.00  0.00    +0.000 OA
ATOM      3  O   UNL     1       0.643   5.135  19.999  0.00  0.00    +0.000 OA
ENDROOT
BRANCH   1   4
ATOM      4  C   UNL     1       3.115   4.776  19.197  0.00  0.00    +0.000 A 
ATOM      5  C   UNL     1       2.626   4.314  17.971  0.00  0.00    +0.000 A 
ATOM      6  C   UNL     1       3.502   4.163  16.884  0.00  0.00    +0.000 A 
ATOM      7  C   UNL     1       4.861   4.496  17.001  0.00  0.00    +0.000 A 
ATOM      8  C   UNL     1       5.339   4.936  18.246  0.00  0.00    +0.000 A 
ATOM      9  C   UNL     1       4.471   5.080  19.337  0.00  0.00    +0.000 A 
BRANCH   7  10
ATOM     10  C   UNL     1       5.733   4.420  15.839  0.00  0.00    +0.000 A 
ATOM     11  C   UNL     1       7.050   4.812  15.783  0.00  0.00    +0.000 A 
ATOM     12  O   UNL     1       7.504   4.609  14.515  0.00  0.00    +0.000 OA
ATOM     13  C   UNL     1       6.421   4.106  13.849  0.00  0.00    +0.000 A 
ATOM     14  C   UNL     1       6.614   3.785  12.422  0.00  0.00    +0.000 C 
ATOM     15  N   UNL     1       5.334   3.984  14.593  0.00  0.00    +0.000 NA
ENDBRANCH   7  10
ENDBRANCH   1   4
BRANCH   1  16
ATOM     16  N   UNL     1       2.351   6.759  20.949  0.00  0.00    +0.000 N 
ATOM     17  H   UNL     1       3.076   6.899  21.650  0.00  0.00    +0.000 HD
BRANCH  16  21
ATOM     18  C   UNL     1      -0.027   9.948  19.416  0.00  0.00    +0.000 A 
ATOM     19  C   UNL     1      -0.199   9.406  20.700  0.00  0.00    +0.000 A 
ATOM     20  C   UNL     1       0.610   8.378  21.193  0.00  0.00    +0.000 A 
ATOM     21  C   UNL     1       1.648   7.867  20.424  0.00  0.00    +0.000 A 
ATOM     22  C   UNL     1       1.876   8.376  19.145  0.00  0.00    +0.000 A 
ATOM     23  C   UNL     1       2.938   7.872  18.209  0.00  0.00    +0.000 C 
ATOM     24  C   UNL     1       1.046   9.422  18.676  0.00  0.00    +0.000 A 
BRANCH  18  25
ATOM     25  N   UNL     1      -0.876  10.943  18.900  0.00  0.00    +0.000 N 
BRANCH  25  27
ATOM     26  C   UNL     1      -2.078   9.995  16.920  0.00  0.00    +0.000 C 
ATOM     27  C   UNL     1      -2.180  10.552  18.336  0.00  0.00    +0.000 C 
ENDBRANCH  25  27
BRANCH  25  28
ATOM     28  C   UNL     1      -0.644  12.327  19.355  0.00  0.00    +0.000 C 
ATOM     29  C   UNL     1      -0.530  13.383  18.272  0.00  0.00    +0.000 C 
ENDBRANCH  25  28
ENDBRANCH  18  25
ENDBRANCH  16  21
ENDBRANCH   1  16
TORSDOF 7
ENDMDL
MODEL 2
REMARK VINA RESULT:      -7.6      3.213      4.979
REMARK  Name = 
REMARK  11 active torsions:
REMARK  status: ('A' for Active; 'I' for Inactive)
REMARK    1  A    between atoms: C_1  and  C_2
REMARK    2  A    between atoms: C_2  and  N_3
REMARK    3  A    between atoms: N_3  and  C_4
REMARK    4  A    between atoms: N_3  and  C_6
REMARK    5  A    between atoms: C_4  and  C_5
REMARK    6  A    between atoms: C_9  and  N_10
REMARK    7  A    between atoms: N_10  and  S_11
REMARK    8  A    between atoms: S_11  and  C_14
REMARK    9  A    between atoms: C_17  and  C_18
REMARK   10  A    between atoms: C_21  and  C_22
REMARK   11  A    between atoms: C_26  and  C_27
REMARK                            x       y       z     vdW  Elec       q    Type
REMARK                         _______ _______ _______ _____ _____    ______ ____
ROOT
ATOM      1  S   UNL     1       0.223  10.281  20.513  0.00  0.00    +0.000 S 
ATOM      2  O   UNL     1       1.039  11.117  21.370  0.00  0.00    +0.000 OA
ATOM      3  O   UNL     1      -0.917   9.565  21.049  0.00  0.00    +0.000 OA
ENDROOT
BRANCH   1   4
ATOM      4  C   UNL     1       1.315   9.086  19.758  0.00  0.00    +0.000 A 
ATOM      5  C   UNL     1       1.659   7.911  20.433  0.00  0.00    +0.000 A 
ATOM      6  C   UNL     1       2.373   6.905  19.762  0.00  0.00    +0.000 A 
ATOM      7  C   UNL     1       2.725   7.049  18.410  0.00  0.00    +0.000 A 
ATOM      8  C   UNL     1       2.392   8.246  17.755  0.00  0.00    +0.000 A 
ATOM      9  C   UNL     1       1.687   9.257  18.421  0.00  0.00    +0.000 A 
BRANCH   7  10
ATOM     10  C   UNL     1       3.383   5.958  17.708  0.00  0.00    +0.000 A 
ATOM     11  C   UNL     1       3.011   4.633  17.734  0.00  0.00    +0.000 A 
ATOM     12  O   UNL     1       3.894   3.926  16.975  0.00  0.00    +0.000 OA
ATOM     13  C   UNL     1       4.778   4.868  16.527  0.00  0.00    +0.000 A 
ATOM     14  C   UNL     1       5.874   4.387  15.663  0.00  0.00    +0.000 C 
ATOM     15  N   UNL     1       4.524   6.096  16.946  0.00  0.00    +0.000 NA
ENDBRANCH   7  10
ENDBRANCH   1   4
BRANCH   1  16
ATOM     16  N   UNL     1      -0.290  11.270  19.273  0.00  0.00    +0.000 N 
ATOM     17  H   UNL     1       0.420  11.809  18.783  0.00  0.00    +0.000 HD
BRANCH  16  21
ATOM     18  C   UNL     1      -4.474  11.674  18.558  0.00  0.00    +0.000 A 
ATOM     19  C   UNL     1      -3.786  12.404  19.540  0.00  0.00    +0.000 A 
ATOM     20  C   UNL     1      -2.408  12.276  19.739  0.00  0.00    +0.000 A 
ATOM     21  C   UNL     1      -1.655  11.425  18.940  0.00  0.00    +0.000 A 
ATOM     22  C   UNL     1      -2.283  10.683  17.939  0.00  0.00    +0.000 A 
ATOM     23  C   UNL     1      -1.580   9.701  17.044  0.00  0.00    +0.000 C 
ATOM     24  C   UNL     1      -3.677  10.840  17.754  0.00  0.00    +0.000 A 
BRANCH  18  25
ATOM     25  N   UNL     1      -5.868  11.761  18.394  0.00  0.00    +0.000 N 
BRANCH  25  27
ATOM     26  C   UNL     1      -7.722  13.378  17.939  0.00  0.00    +0.000 C 
ATOM     27  C   UNL     1      -6.419  12.753  17.454  0.00  0.00    +0.000 C 
ENDBRANCH  25  27
BRANCH  25  28
ATOM     28  C   UNL     1      -6.666  10.587  18.794  0.00  0.00    +0.000 C 
ATOM     29  C   UNL     1      -7.195  10.583  20.217  0.00  0.00    +0.000 C 
ENDBRANCH  25  28
ENDBRANCH  18  25
ENDBRANCH  16  21
ENDBRANCH   1  16
TORSDOF 7
ENDMDL
MODEL 3
REMARK VINA RESULT:      -7.6      0.565      1.412
REMARK  Name = 
REMARK  11 active torsions:
REMARK  status: ('A' for Active; 'I' for Inactive)
REMARK    1  A    between atoms: C_1  and  C_2
REMARK    2  A    between atoms: C_2  and  N_3
REMARK    3  A    between atoms: N_3  and  C_4
REMARK    4  A    between atoms: N_3  and  C_6
REMARK    5  A    between atoms: C_4  and  C_5
REMARK    6  A    between atoms: C_9  and  N_10
REMARK    7  A    between atoms: N_10  and  S_11
REMARK    8  A    between atoms: S_11  and  C_14
REMARK    9  A    between atoms: C_17  and  C_18
REMARK   10  A    between atoms: C_21  and  C_22
REMARK   11  A    between atoms: C_26  and  C_27
REMARK                            x       y       z     vdW  Elec       q    Type
REMARK                         _______ _______ _______ _____ _____    ______ ____
ROOT
ATOM      1  S   UNL     1       1.958   5.232  20.581  0.00  0.00    +0.000 S 
ATOM      2  O   UNL     1       2.383   4.463  21.733  0.00  0.00    +0.000 OA
ATOM      3  O   UNL     1       0.627   5.066  20.033  0.00  0.00    +0.000 OA
ENDROOT
BRANCH   1   4
ATOM      4  C   UNL     1       3.133   4.906  19.275  0.00  0.00    +0.000 A 
ATOM      5  C   UNL     1       2.724   4.285  18.090  0.00  0.00    +0.000 A 
ATOM      6  C   UNL     1       3.614   4.194  17.008  0.00  0.00    +0.000 A 
ATOM      7  C   UNL     1       4.904   4.743  17.087  0.00  0.00    +0.000 A 
ATOM      8  C   UNL     1       5.306   5.341  18.293  0.00  0.00    +0.000 A 
ATOM      9  C   UNL     1       4.425   5.427  19.379  0.00  0.00    +0.000 A 
BRANCH   7  10
ATOM     10  C   UNL     1       5.779   4.720  15.924  0.00  0.00    +0.000 A 
ATOM     11  C   UNL     1       6.998   5.347  15.811  0.00  0.00    +0.000 A 
ATOM     12  O   UNL     1       7.487   5.110  14.562  0.00  0.00    +0.000 OA
ATOM     13  C   UNL     1       6.521   4.349  13.965  0.00  0.00    +0.000 A 
ATOM     14  C   UNL     1       6.777   3.932  12.573  0.00  0.00    +0.000 C 
ATOM     15  N   UNL     1       5.474   4.097  14.733  0.00  0.00    +0.000 NA
ENDBRANCH   7  10
ENDBRANCH   1   4
BRANCH   1  16
ATOM     16  N   UNL     1       2.180   6.830  20.999  0.00  0.00    +0.000 N 
ATOM     17  H   UNL     1       2.808   7.026  21.774  0.00  0.00    +0.000 HD
BRANCH  16  21
ATOM     18  C   UNL     1       0.354  10.139  19.025  0.00  0.00    +0.000 A 
ATOM     19  C   UNL     1       1.328   9.325  18.425  0.00  0.00    +0.000 A 
ATOM     20  C   UNL     1       1.895   8.228  19.081  0.00  0.00    +0.000 A 
ATOM     21  C   UNL     1       1.485   7.885  20.363  0.00  0.00    +0.000 A 
ATOM     22  C   UNL     1       0.510   8.649  21.005  0.00  0.00    +0.000 A 
ATOM     23  C   UNL     1       0.021   8.399  22.404  0.00  0.00    +0.000 C 
ATOM     24  C   UNL     1      -0.052   9.748  20.312  0.00  0.00    +0.000 A 
BRANCH  18  25
ATOM     25  N   UNL     1      -0.175  11.274  18.386  0.00  0.00    +0.000 N 
BRANCH  25  27
ATOM     26  C   UNL     1      -1.908   9.981  17.128  0.00  0.00    +0.000 C 
ATOM     27  C   UNL     1      -1.570  11.245  17.909  0.00  0.00    +0.000 C 
ENDBRANCH  25  27
BRANCH  25  28
ATOM     28  C   UNL     1       0.503  12.561  18.632  0.00  0.00    +0.000 C 
ATOM     29  C   UNL     1      -0.378  13.712  19.083  0.00  0.00    +0.000 C 
ENDBRANCH  25  28
ENDBRANCH  18  25
ENDBRANCH  16  21
ENDBRANCH   1  16
TORSDOF 7
ENDMDL
MODEL 4
REMARK VINA RESULT:      -7.4      0.623      1.342
REMARK  Name = 
REMARK  11 active torsions:
REMARK  status: ('A' for Active; 'I' for Inactive)
REMARK    1  A    between atoms: C_1  and  C_2
REMARK    2  A    between atoms: C_2  and  N_3
REMARK    3  A    between atoms: N_3  and  C_4
REMARK    4  A    between atoms: N_3  and  C_6
REMARK    5  A    between atoms: C_4  and  C_5
REMARK    6  A    between atoms: C_9  and  N_10
REMARK    7  A    between atoms: N_10  and  S_11
REMARK    8  A    between atoms: S_11  and  C_14
REMARK    9  A    between atoms: C_17  and  C_18
REMARK   10  A    between atoms: C_21  and  C_22
REMARK   11  A    between atoms: C_26  and  C_27
REMARK                            x       y       z     vdW  Elec       q    Type
REMARK                         _______ _______ _______ _____ _____    ______ ____
ROOT
ATOM      1  S   UNL     1       2.035   5.173  20.399  0.00  0.00    +0.000 S 
ATOM      2  O   UNL     1       2.394   4.328  21.520  0.00  0.00    +0.000 OA
ATOM      3  O   UNL     1       0.692   5.148  19.857  0.00  0.00    +0.000 OA
ENDROOT
BRANCH   1   4
ATOM      4  C   UNL     1       3.168   4.788  19.072  0.00  0.00    +0.000 A 
ATOM      5  C   UNL     1       2.697   4.267  17.863  0.00  0.00    +0.000 A 
ATOM      6  C   UNL     1       3.572   4.135  16.773  0.00  0.00    +0.000 A 
ATOM      7  C   UNL     1       4.911   4.545  16.869  0.00  0.00    +0.000 A 
ATOM      8  C   UNL     1       5.373   5.044  18.098  0.00  0.00    +0.000 A 
ATOM      9  C   UNL     1       4.507   5.171  19.192  0.00  0.00    +0.000 A 
BRANCH   7  10
ATOM     10  C   UNL     1       5.777   4.487  15.701  0.00  0.00    +0.000 A 
ATOM     11  C   UNL     1       7.033   5.037  15.591  0.00  0.00    +0.000 A 
ATOM     12  O   UNL     1       7.500   4.790  14.335  0.00  0.00    +0.000 OA
ATOM     13  C   UNL     1       6.485   4.102  13.731  0.00  0.00    +0.000 A 
ATOM     14  C   UNL     1       6.708   3.692  12.331  0.00  0.00    +0.000 C 
ATOM     15  N   UNL     1       5.428   3.904  14.501  0.00  0.00    +0.000 NA
ENDBRANCH   7  10
ENDBRANCH   1   4
BRANCH   1  16
ATOM     16  N   UNL     1       2.403   6.729  20.871  0.00  0.00    +0.000 N 
ATOM     17  H   UNL     1       3.208   6.852  21.481  0.00  0.00    +0.000 HD
BRANCH  16  21
ATOM     18  C   UNL     1      -0.238   9.915  19.846  0.00  0.00    +0.000 A 
ATOM     19  C   UNL     1      -0.246   9.279  21.098  0.00  0.00    +0.000 A 
ATOM     20  C   UNL     1       0.647   8.253  21.422  0.00  0.00    +0.000 A 
ATOM     21  C   UNL     1       1.609   7.840  20.508  0.00  0.00    +0.000 A 
ATOM     22  C   UNL     1       1.674   8.446  19.253  0.00  0.00    +0.000 A 
ATOM     23  C   UNL     1       2.641   8.053  18.172  0.00  0.00    +0.000 C 
ATOM     24  C   UNL     1       0.763   9.487  18.956  0.00  0.00    +0.000 A 
BRANCH  18  25
ATOM     25  N   UNL     1      -1.172  10.907  19.500  0.00  0.00    +0.000 N 
BRANCH  25  27
ATOM     26  C   UNL     1      -0.037  12.970  20.347  0.00  0.00    +0.000 C 
ATOM     27  C   UNL     1      -1.293  12.106  20.349  0.00  0.00    +0.000 C 
ENDBRANCH  25  27
BRANCH  25  28
ATOM     28  C   UNL     1      -1.638  10.933  18.101  0.00  0.00    +0.000 C 
ATOM     29  C   UNL     1      -3.132  11.096  17.890  0.00  0.00    +0.000 C 
ENDBRANCH  25  28
ENDBRANCH  18  25
ENDBRANCH  16  21
ENDBRANCH   1  16
TORSDOF 7
ENDMDL
MODEL 5
REMARK VINA RESULT:      -7.4      3.475      5.494
REMARK  Name = 
REMARK  11 active torsions:
REMARK  status: ('A' for Active; 'I' for Inactive)
REMARK    1  A    between atoms: C_1  and  C_2
REMARK    2  A    between atoms: C_2  and  N_3
REMARK    3  A    between atoms: N_3  and  C_4
REMARK    4  A    between atoms: N_3  and  C_6
REMARK    5  A    between atoms: C_4  and  C_5
REMARK    6  A    between atoms: C_9  and  N_10
REMARK    7  A    between atoms: N_10  and  S_11
REMARK    8  A    between atoms: S_11  and  C_14
REMARK    9  A    between atoms: C_17  and  C_18
REMARK   10  A    between atoms: C_21  and  C_22
REMARK   11  A    between atoms: C_26  and  C_27
REMARK                            x       y       z     vdW  Elec       q    Type
REMARK                         _______ _______ _______ _____ _____    ______ ____
ROOT
ATOM      1  S   UNL     1       0.132  11.010  20.612  0.00  0.00    +0.000 S 
ATOM      2  O   UNL     1       1.075  11.964  21.159  0.00  0.00    +0.000 OA
ATOM      3  O   UNL     1      -0.928  10.464  21.435  0.00  0.00    +0.000 OA
ENDROOT
BRANCH   1   4
ATOM      4  C   UNL     1       1.086   9.643  19.970  0.00  0.00    +0.000 A 
ATOM      5  C   UNL     1       1.348   8.523  20.766  0.00  0.00    +0.000 A 
ATOM      6  C   UNL     1       1.945   7.388  20.196  0.00  0.00    +0.000 A 
ATOM      7  C   UNL     1       2.260   7.348  18.828  0.00  0.00    +0.000 A 
ATOM      8  C   UNL     1       2.012   8.490  18.049  0.00  0.00    +0.000 A 
ATOM      9  C   UNL     1       1.424   9.629  18.614  0.00  0.00    +0.000 A 
BRANCH   7  10
ATOM     10  C   UNL     1       2.793   6.129  18.238  0.00  0.00    +0.000 A 
ATOM     11  C   UNL     1       3.942   6.023  17.489  0.00  0.00    +0.000 A 
ATOM     12  O   UNL     1       4.079   4.725  17.096  0.00  0.00    +0.000 OA
ATOM     13  C   UNL     1       2.984   4.100  17.625  0.00  0.00    +0.000 A 
ATOM     14  C   UNL     1       2.857   2.654  17.358  0.00  0.00    +0.000 C 
ATOM     15  N   UNL     1       2.178   4.897  18.307  0.00  0.00    +0.000 NA
ENDBRANCH   7  10
ENDBRANCH   1   4
BRANCH   1  16
ATOM     16  N   UNL     1      -0.542  11.755  19.281  0.00  0.00    +0.000 N 
ATOM     17  H   UNL     1       0.090  12.242  18.650  0.00  0.00    +0.000 HD
BRANCH  16  21
ATOM     18  C   UNL     1      -4.786  11.775  18.878  0.00  0.00    +0.000 A 
ATOM     19  C   UNL     1      -4.094  12.590  19.789  0.00  0.00    +0.000 A 
ATOM     20  C   UNL     1      -2.699  12.587  19.885  0.00  0.00    +0.000 A 
ATOM     21  C   UNL     1      -1.935  11.781  19.050  0.00  0.00    +0.000 A 
ATOM     22  C   UNL     1      -2.568  10.960  18.115  0.00  0.00    +0.000 A 
ATOM     23  C   UNL     1      -1.849  10.018  17.191  0.00  0.00    +0.000 C 
ATOM     24  C   UNL     1      -3.981  10.991  18.034  0.00  0.00    +0.000 A 
BRANCH  18  25
ATOM     25  N   UNL     1      -6.190  11.737  18.820  0.00  0.00    +0.000 N 
BRANCH  25  27
ATOM     26  C   UNL     1      -6.731  13.694  17.357  0.00  0.00    +0.000 C 
ATOM     27  C   UNL     1      -6.870  12.194  17.594  0.00  0.00    +0.000 C 
ENDBRANCH  25  27
BRANCH  25  28
ATOM     28  C   UNL     1      -6.878  10.835  19.762  0.00  0.00    +0.000 C 
ATOM     29  C   UNL     1      -7.488  11.482  20.992  0.00  0.00    +0.000 C 
ENDBRANCH  25  28
ENDBRANCH  18  25
ENDBRANCH  16  21
ENDBRANCH   1  16
TORSDOF 7
ENDMDL
MODEL 6
REMARK VINA RESULT:      -7.4      3.206      5.082
REMARK  Name = 
REMARK  11 active torsions:
REMARK  status: ('A' for Active; 'I' for Inactive)
REMARK    1  A    between atoms: C_1  and  C_2
REMARK    2  A    between atoms: C_2  and  N_3
REMARK    3  A    between atoms: N_3  and  C_4
REMARK    4  A    between atoms: N_3  and  C_6
REMARK    5  A    between atoms: C_4  and  C_5
REMARK    6  A    between atoms: C_9  and  N_10
REMARK    7  A    between atoms: N_10  and  S_11
REMARK    8  A    between atoms: S_11  and  C_14
REMARK    9  A    between atoms: C_17  and  C_18
REMARK   10  A    between atoms: C_21  and  C_22
REMARK   11  A    between atoms: C_26  and  C_27
REMARK                            x       y       z     vdW  Elec       q    Type
REMARK                         _______ _______ _______ _____ _____    ______ ____
ROOT
ATOM      1  S   UNL     1       0.364  10.418  20.474  0.00  0.00    +0.000 S 
ATOM      2  O   UNL     1       1.268  11.377  21.076  0.00  0.00    +0.000 OA
ATOM      3  O   UNL     1      -0.670   9.781  21.264  0.00  0.00    +0.000 OA
ENDROOT
BRANCH   1   4
ATOM      4  C   UNL     1       1.373   9.132  19.753  0.00  0.00    +0.000 A 
ATOM      5  C   UNL     1       1.652   7.962  20.468  0.00  0.00    +0.000 A 
ATOM      6  C   UNL     1       2.295   6.891  19.827  0.00  0.00    +0.000 A 
ATOM      7  C   UNL     1       2.640   6.965  18.468  0.00  0.00    +0.000 A 
ATOM      8  C   UNL     1       2.374   8.156  17.773  0.00  0.00    +0.000 A 
ATOM      9  C   UNL     1       1.740   9.232  18.408  0.00  0.00    +0.000 A 
BRANCH   7  10
ATOM     10  C   UNL     1       3.222   5.811  17.800  0.00  0.00    +0.000 A 
ATOM     11  C   UNL     1       2.725   4.528  17.812  0.00  0.00    +0.000 A 
ATOM     12  O   UNL     1       3.570   3.734  17.097  0.00  0.00    +0.000 OA
ATOM     13  C   UNL     1       4.560   4.584  16.689  0.00  0.00    +0.000 A 
ATOM     14  C   UNL     1       5.643   3.995  15.878  0.00  0.00    +0.000 C 
ATOM     15  N   UNL     1       4.405   5.834  17.092  0.00  0.00    +0.000 NA
ENDBRANCH   7  10
ENDBRANCH   1   4
BRANCH   1  16
ATOM     16  N   UNL     1      -0.344  11.210  19.189  0.00  0.00    +0.000 N 
ATOM     17  H   UNL     1       0.275  11.688  18.539  0.00  0.00    +0.000 HD
BRANCH  16  21
ATOM     18  C   UNL     1      -4.523  11.472  18.389  0.00  0.00    +0.000 A 
ATOM     19  C   UNL     1      -3.680  10.528  17.782  0.00  0.00    +0.000 A 
ATOM     20  C   UNL     1      -2.316  10.442  18.079  0.00  0.00    +0.000 A 
ATOM     21  C   UNL     1      -1.745  11.287  19.023  0.00  0.00    +0.000 A 
ATOM     22  C   UNL     1      -2.537  12.236  19.669  0.00  0.00    +0.000 A 
ATOM     23  C   UNL     1      -2.022  13.229  20.672  0.00  0.00    +0.000 C 
ATOM     24  C   UNL     1      -3.916  12.294  19.354  0.00  0.00    +0.000 A 
BRANCH  18  25
ATOM     25  N   UNL     1      -5.882  11.596  18.049  0.00  0.00    +0.000 N 
BRANCH  25  27
ATOM     26  C   UNL     1      -6.927   9.666  19.252  0.00  0.00    +0.000 C 
ATOM     27  C   UNL     1      -6.906  11.173  19.022  0.00  0.00    +0.000 C 
ENDBRANCH  25  27
BRANCH  25  28
ATOM     28  C   UNL     1      -6.222  12.544  16.972  0.00  0.00    +0.000 C 
ATOM     29  C   UNL     1      -6.771  13.890  17.407  0.00  0.00    +0.000 C 
ENDBRANCH  25  28
ENDBRANCH  18  25
ENDBRANCH  16  21
ENDBRANCH   1  16
TORSDOF 7
ENDMDL
MODEL 7
REMARK VINA RESULT:      -7.3      3.254      4.973
REMARK  Name = 
REMARK  11 active torsions:
REMARK  status: ('A' for Active; 'I' for Inactive)
REMARK    1  A    between atoms: C_1  and  C_2
REMARK    2  A    between atoms: C_2  and  N_3
REMARK    3  A    between atoms: N_3  and  C_4
REMARK    4  A    between atoms: N_3  and  C_6
REMARK    5  A    between atoms: C_4  and  C_5
REMARK    6  A    between atoms: C_9  and  N_10
REMARK    7  A    between atoms: N_10  and  S_11
REMARK    8  A    between atoms: S_11  and  C_14
REMARK    9  A    between atoms: C_17  and  C_18
REMARK   10  A    between atoms: C_21  and  C_22
REMARK   11  A    between atoms: C_26  and  C_27
REMARK                            x       y       z     vdW  Elec       q    Type
REMARK                         _______ _______ _______ _____ _____    ______ ____
ROOT
ATOM      1  S   UNL     1       0.315  10.391  20.592  0.00  0.00    +0.000 S 
ATOM      2  O   UNL     1       1.327  11.219  21.216  0.00  0.00    +0.000 OA
ATOM      3  O   UNL     1      -0.805   9.888  21.360  0.00  0.00    +0.000 OA
ENDROOT
BRANCH   1   4
ATOM      4  C   UNL     1       1.159   8.991  19.871  0.00  0.00    +0.000 A 
ATOM      5  C   UNL     1       1.679   9.064  18.575  0.00  0.00    +0.000 A 
ATOM      6  C   UNL     1       2.488   8.024  18.089  0.00  0.00    +0.000 A 
ATOM      7  C   UNL     1       2.806   6.920  18.896  0.00  0.00    +0.000 A 
ATOM      8  C   UNL     1       2.255   6.852  20.186  0.00  0.00    +0.000 A 
ATOM      9  C   UNL     1       1.440   7.882  20.674  0.00  0.00    +0.000 A 
BRANCH   7  10
ATOM     10  C   UNL     1       3.720   5.900  18.407  0.00  0.00    +0.000 A 
ATOM     11  C   UNL     1       4.482   5.053  19.178  0.00  0.00    +0.000 A 
ATOM     12  O   UNL     1       5.224   4.268  18.348  0.00  0.00    +0.000 OA
ATOM     13  C   UNL     1       4.880   4.690  17.094  0.00  0.00    +0.000 A 
ATOM     14  C   UNL     1       5.540   4.009  15.964  0.00  0.00    +0.000 C 
ATOM     15  N   UNL     1       3.993   5.671  17.075  0.00  0.00    +0.000 NA
ENDBRANCH   7  10
ENDBRANCH   1   4
BRANCH   1  16
ATOM     16  N   UNL     1      -0.263  11.280  19.305  0.00  0.00    +0.000 N 
ATOM     17  H   UNL     1       0.423  11.682  18.671  0.00  0.00    +0.000 HD
BRANCH  16  21
ATOM     18  C   UNL     1      -4.459  11.984  19.031  0.00  0.00    +0.000 A 
ATOM     19  C   UNL     1      -3.630  12.621  19.969  0.00  0.00    +0.000 A 
ATOM     20  C   UNL     1      -2.251  12.396  20.024  0.00  0.00    +0.000 A 
ATOM     21  C   UNL     1      -1.640  11.537  19.118  0.00  0.00    +0.000 A 
ATOM     22  C   UNL     1      -2.411  10.887  18.154  0.00  0.00    +0.000 A 
ATOM     23  C   UNL     1      -1.868   9.907  17.153  0.00  0.00    +0.000 C 
ATOM     24  C   UNL     1      -3.803  11.142  18.117  0.00  0.00    +0.000 A 
BRANCH  18  25
ATOM     25  N   UNL     1      -5.853  12.169  19.012  0.00  0.00    +0.000 N 
BRANCH  25  27
ATOM     26  C   UNL     1      -6.918  13.232  17.014  0.00  0.00    +0.000 C 
ATOM     27  C   UNL     1      -6.590  11.941  17.756  0.00  0.00    +0.000 C 
ENDBRANCH  25  27
BRANCH  25  28
ATOM     28  C   UNL     1      -6.555  12.120  20.309  0.00  0.00    +0.000 C 
ATOM     29  C   UNL     1      -7.497  10.950  20.522  0.00  0.00    +0.000 C 
ENDBRANCH  25  28
ENDBRANCH  18  25
ENDBRANCH  16  21
ENDBRANCH   1  16
TORSDOF 7
ENDMDL
MODEL 8
REMARK VINA RESULT:      -7.3      3.870      5.676
REMARK  Name = 
REMARK  11 active torsions:
REMARK  status: ('A' for Active; 'I' for Inactive)
REMARK    1  A    between atoms: C_1  and  C_2
REMARK    2  A    between atoms: C_2  and  N_3
REMARK    3  A    between atoms: N_3  and  C_4
REMARK    4  A    between atoms: N_3  and  C_6
REMARK    5  A    between atoms: C_4  and  C_5
REMARK    6  A    between atoms: C_9  and  N_10
REMARK    7  A    between atoms: N_10  and  S_11
REMARK    8  A    between atoms: S_11  and  C_14
REMARK    9  A    between atoms: C_17  and  C_18
REMARK   10  A    between atoms: C_21  and  C_22
REMARK   11  A    between atoms: C_26  and  C_27
REMARK                            x       y       z     vdW  Elec       q    Type
REMARK                         _______ _______ _______ _____ _____    ______ ____
ROOT
ATOM      1  S   UNL     1       0.905  10.611  19.122  0.00  0.00    +0.000 S 
ATOM      2  O   UNL     1      -0.512  10.472  18.855  0.00  0.00    +0.000 OA
ATOM      3  O   UNL     1       1.730  11.473  18.299  0.00  0.00    +0.000 OA
ENDROOT
BRANCH   1   4
ATOM      4  C   UNL     1       1.609   8.970  19.073  0.00  0.00    +0.000 A 
ATOM      5  C   UNL     1       2.389   8.563  17.986  0.00  0.00    +0.000 A 
ATOM      6  C   UNL     1       3.077   7.340  18.042  0.00  0.00    +0.000 A 
ATOM      7  C   UNL     1       3.016   6.529  19.186  0.00  0.00    +0.000 A 
ATOM      8  C   UNL     1       2.208   6.942  20.258  0.00  0.00    +0.000 A 
ATOM      9  C   UNL     1       1.512   8.157  20.206  0.00  0.00    +0.000 A 
BRANCH   7  10
ATOM     10  C   UNL     1       3.809   5.311  19.260  0.00  0.00    +0.000 A 
ATOM     11  C   UNL     1       5.129   5.177  18.894  0.00  0.00    +0.000 A 
ATOM     12  O   UNL     1       5.496   3.879  19.085  0.00  0.00    +0.000 OA
ATOM     13  C   UNL     1       4.362   3.277  19.553  0.00  0.00    +0.000 A 
ATOM     14  C   UNL     1       4.456   1.835  19.853  0.00  0.00    +0.000 C 
ATOM     15  N   UNL     1       3.322   4.087  19.665  0.00  0.00    +0.000 NA
ENDBRANCH   7  10
ENDBRANCH   1   4
BRANCH   1  16
ATOM     16  N   UNL     1       1.019  11.104  20.710  0.00  0.00    +0.000 N 
ATOM     17  H   UNL     1       1.909  10.961  21.180  0.00  0.00    +0.000 HD
BRANCH  16  21
ATOM     18  C   UNL     1      -2.125  12.959  22.913  0.00  0.00    +0.000 A 
ATOM     19  C   UNL     1      -1.476  13.574  21.830  0.00  0.00    +0.000 A 
ATOM     20  C   UNL     1      -0.465  12.936  21.104  0.00  0.00    +0.000 A 
ATOM     21  C   UNL     1      -0.081  11.639  21.420  0.00  0.00    +0.000 A 
ATOM     22  C   UNL     1      -0.701  10.973  22.477  0.00  0.00    +0.000 A 
ATOM     23  C   UNL     1      -0.339   9.588  22.936  0.00  0.00    +0.000 C 
ATOM     24  C   UNL     1      -1.726  11.640  23.189  0.00  0.00    +0.000 A 
BRANCH  18  25
ATOM     25  N   UNL     1      -3.102  13.621  23.677  0.00  0.00    +0.000 N 
BRANCH  25  27
ATOM     26  C   UNL     1      -2.363  15.116  25.542  0.00  0.00    +0.000 C 
ATOM     27  C   UNL     1      -2.860  15.011  24.105  0.00  0.00    +0.000 C 
ENDBRANCH  25  27
BRANCH  25  28
ATOM     28  C   UNL     1      -4.476  13.087  23.620  0.00  0.00    +0.000 C 
ATOM     29  C   UNL     1      -4.969  12.358  24.857  0.00  0.00    +0.000 C 
ENDBRANCH  25  28
ENDBRANCH  18  25
ENDBRANCH  16  21
ENDBRANCH   1  16
TORSDOF 7
ENDMDL
MODEL 9
REMARK VINA RESULT:      -7.1      2.397      4.087
REMARK  Name = 
REMARK  11 active torsions:
REMARK  status: ('A' for Active; 'I' for Inactive)
REMARK    1  A    between atoms: C_1  and  C_2
REMARK    2  A    between atoms: C_2  and  N_3
REMARK    3  A    between atoms: N_3  and  C_4
REMARK    4  A    between atoms: N_3  and  C_6
REMARK    5  A    between atoms: C_4  and  C_5
REMARK    6  A    between atoms: C_9  and  N_10
REMARK    7  A    between atoms: N_10  and  S_11
REMARK    8  A    between atoms: S_11  and  C_14
REMARK    9  A    between atoms: C_17  and  C_18
REMARK   10  A    between atoms: C_21  and  C_22
REMARK   11  A    between atoms: C_26  and  C_27
REMARK                            x       y       z     vdW  Elec       q    Type
REMARK                         _______ _______ _______ _____ _____    ______ ____
ROOT
ATOM      1  S   UNL     1       0.644   9.084  21.435  0.00  0.00    +0.000 S 
ATOM      2  O   UNL     1       1.432   9.459  22.591  0.00  0.00    +0.000 OA
ATOM      3  O   UNL     1      -0.663   8.479  21.596  0.00  0.00    +0.000 OA
ENDROOT
BRANCH   1   4
ATOM      4  C   UNL     1       1.646   7.971  20.460  0.00  0.00    +0.000 A 
ATOM      5  C   UNL     1       1.822   6.641  20.857  0.00  0.00    +0.000 A 
ATOM      6  C   UNL     1       2.463   5.737  19.995  0.00  0.00    +0.000 A 
ATOM      7  C   UNL     1       2.907   6.140  18.726  0.00  0.00    +0.000 A 
ATOM      8  C   UNL     1       2.743   7.484  18.354  0.00  0.00    +0.000 A 
ATOM      9  C   UNL     1       2.112   8.394  19.212  0.00  0.00    +0.000 A 
BRANCH   7  10
ATOM     10  C   UNL     1       3.485   5.166  17.812  0.00  0.00    +0.000 A 
ATOM     11  C   UNL     1       3.026   3.889  17.588  0.00  0.00    +0.000 A 
ATOM     12  O   UNL     1       3.854   3.287  16.689  0.00  0.00    +0.000 OA
ATOM     13  C   UNL     1       4.797   4.239  16.415  0.00  0.00    +0.000 A 
ATOM     14  C   UNL     1       5.851   3.866  15.453  0.00  0.00    +0.000 C 
ATOM     15  N   UNL     1       4.628   5.376  17.069  0.00  0.00    +0.000 NA
ENDBRANCH   7  10
ENDBRANCH   1   4
BRANCH   1  16
ATOM     16  N   UNL     1       0.493  10.471  20.522  0.00  0.00    +0.000 N 
ATOM     17  H   UNL     1       1.217  11.177  20.625  0.00  0.00    +0.000 HD
BRANCH  16  21
ATOM     18  C   UNL     1      -2.669  11.246  17.769  0.00  0.00    +0.000 A 
ATOM     19  C   UNL     1      -1.683  10.269  17.556  0.00  0.00    +0.000 A 
ATOM     20  C   UNL     1      -0.671  10.013  18.485  0.00  0.00    +0.000 A 
ATOM     21  C   UNL     1      -0.620  10.712  19.685  0.00  0.00    +0.000 A 
ATOM     22  C   UNL     1      -1.582  11.685  19.958  0.00  0.00    +0.000 A 
ATOM     23  C   UNL     1      -1.602  12.532  21.199  0.00  0.00    +0.000 C 
ATOM     24  C   UNL     1      -2.600  11.917  19.002  0.00  0.00    +0.000 A 
BRANCH  18  25
ATOM     25  N   UNL     1      -3.654  11.542  16.810  0.00  0.00    +0.000 N 
BRANCH  25  27
ATOM     26  C   UNL     1      -3.878   9.916  14.922  0.00  0.00    +0.000 C 
ATOM     27  C   UNL     1      -3.374  11.277  15.388  0.00  0.00    +0.000 C 
ENDBRANCH  25  27
BRANCH  25  28
ATOM     28  C   UNL     1      -5.045  11.654  17.289  0.00  0.00    +0.000 C 
ATOM     29  C   UNL     1      -5.523  10.566  18.233  0.00  0.00    +0.000 C 
ENDBRANCH  25  28
ENDBRANCH  18  25
ENDBRANCH  16  21
ENDBRANCH   1  16
TORSDOF 7
ENDMDL
