MODEL 1
REMARK VINA RESULT:      -7.8      0.000      0.000
REMARK  Name = 
REMARK  3 active torsions:
REMARK  status: ('A' for Active; 'I' for Inactive)
REMARK    1  A    between atoms: C_2  and  C_15
REMARK    2  A    between atoms: N_3  and  C_4
REMARK    3  A    between atoms: C_8  and  N_9
REMARK                            x       y       z     vdW  Elec       q    Type
REMARK                         _______ _______ _______ _____ _____    ______ ____
ROOT
ATOM      1  O   UNL     1       1.583   8.450  17.501  0.00  0.00    +0.000 OA
ATOM      2  C   UNL     1       1.697   8.242  18.704  0.00  0.00    +0.000 C 
ATOM      3  N   UNL     1       2.124   7.068  19.305  0.00  0.00    +0.000 N 
ATOM      4  H   UNL     1       1.968   6.970  20.300  0.00  0.00    +0.000 HD
ENDROOT
BRANCH   2   5
ATOM      5  C   UNL     1       1.283   9.328  19.626  0.00  0.00    +0.000 A 
ATOM      6  C   UNL     1       1.204  10.662  19.207  0.00  0.00    +0.000 A 
ATOM      7  C   UNL     1       0.782  11.645  20.103  0.00  0.00    +0.000 A 
ATOM      8  C   UNL     1       0.435  11.298  21.411  0.00  0.00    +0.000 A 
ATOM      9  C   UNL     1       0.497   9.965  21.817  0.00  0.00    +0.000 A 
ATOM     10 CL   UNL     1       0.055   9.540  23.425  0.00  0.00    +0.000 Cl
ATOM     11  C   UNL     1       0.912   8.977  20.931  0.00  0.00    +0.000 A 
ENDBRANCH   2   5
BRANCH   3  12
ATOM     12  C   UNL     1       2.622   5.930  18.629  0.00  0.00    +0.000 A 
ATOM     13  C   UNL     1       1.798   4.885  18.207  0.00  0.00    +0.000 A 
ATOM     14  C   UNL     1       2.324   3.778  17.543  0.00  0.00    +0.000 A 
ATOM     15  C   UNL     1       3.690   3.695  17.295  0.00  0.00    +0.000 A 
ATOM     16  C   UNL     1       4.536   4.730  17.710  0.00  0.00    +0.000 A 
ATOM     17  C   UNL     1       3.998   5.858  18.363  0.00  0.00    +0.000 A 
BRANCH  16  18
ATOM     18  N   UNL     1       5.932   4.631  17.495  0.00  0.00    +0.000 N 
ATOM     19  C   UNL     1       6.628   4.576  16.312  0.00  0.00    +0.000 A 
ATOM     20  N   UNL     1       7.911   4.463  16.565  0.00  0.00    +0.000 NA
ATOM     21  N   UNL     1       8.019   4.451  17.931  0.00  0.00    +0.000 NA
ATOM     22  N   UNL     1       6.829   4.557  18.505  0.00  0.00    +0.000 NA
ENDBRANCH  16  18
ENDBRANCH   3  12
TORSDOF 3
ENDMDL
MODEL 2
REMARK VINA RESULT:      -7.7      1.087      1.100
REMARK  Name = 
REMARK  3 active torsions:
REMARK  status: ('A' for Active; 'I' for Inactive)
REMARK    1  A    between atoms: C_2  and  C_15
REMARK    2  A    between atoms: N_3  and  C_4
REMARK    3  A    between atoms: C_8  and  N_9
REMARK                            x       y       z     vdW  Elec       q    Type
REMARK                         _______ _______ _______ _____ _____    ______ ____
ROOT
ATOM      1  O   UNL     1       1.690   6.624  20.948  0.00  0.00    +0.000 OA
ATOM      2  C   UNL     1       1.654   7.411  20.008  0.00  0.00    +0.000 C 
ATOM      3  N   UNL     1       2.122   7.189  18.722  0.00  0.00    +0.000 N 
ATOM      4  H   UNL     1       2.218   7.993  18.115  0.00  0.00    +0.000 HD
ENDROOT
BRANCH   2   5
ATOM      5  C   UNL     1       1.112   8.766  20.273  0.00  0.00    +0.000 A 
ATOM      6  C   UNL     1       1.220   9.800  19.335  0.00  0.00    +0.000 A 
ATOM      7  C   UNL     1       0.668  11.052  19.617  0.00  0.00    +0.000 A 
ATOM      8  C   UNL     1       0.008  11.269  20.829  0.00  0.00    +0.000 A 
ATOM      9  C   UNL     1      -0.113  10.230  21.751  0.00  0.00    +0.000 A 
ATOM     10 CL   UNL     1      -0.940  10.497  23.236  0.00  0.00    +0.000 Cl
ATOM     11  C   UNL     1       0.429   8.978  21.478  0.00  0.00    +0.000 A 
ENDBRANCH   2   5
BRANCH   3  12
ATOM     12  C   UNL     1       2.621   5.962  18.227  0.00  0.00    +0.000 A 
ATOM     13  C   UNL     1       1.818   4.830  18.072  0.00  0.00    +0.000 A 
ATOM     14  C   UNL     1       2.345   3.637  17.581  0.00  0.00    +0.000 A 
ATOM     15  C   UNL     1       3.691   3.554  17.242  0.00  0.00    +0.000 A 
ATOM     16  C   UNL     1       4.516   4.674  17.390  0.00  0.00    +0.000 A 
ATOM     17  C   UNL     1       3.975   5.886  17.868  0.00  0.00    +0.000 A 
BRANCH  16  18
ATOM     18  N   UNL     1       5.895   4.583  17.083  0.00  0.00    +0.000 N 
ATOM     19  C   UNL     1       6.522   4.663  15.864  0.00  0.00    +0.000 A 
ATOM     20  N   UNL     1       7.815   4.501  16.026  0.00  0.00    +0.000 NA
ATOM     21  N   UNL     1       7.999   4.318  17.371  0.00  0.00    +0.000 NA
ATOM     22  N   UNL     1       6.845   4.370  18.022  0.00  0.00    +0.000 NA
ENDBRANCH  16  18
ENDBRANCH   3  12
TORSDOF 3
ENDMDL
MODEL 3
REMARK VINA RESULT:      -7.6      2.289      3.412
REMARK  Name = 
REMARK  3 active torsions:
REMARK  status: ('A' for Active; 'I' for Inactive)
REMARK    1  A    between atoms: C_2  and  C_15
REMARK    2  A    between atoms: N_3  and  C_4
REMARK    3  A    between atoms: C_8  and  N_9
REMARK                            x       y       z     vdW  Elec       q    Type
REMARK                         _______ _______ _______ _____ _____    ______ ____
ROOT
ATOM      1  O   UNL     1       2.901   5.542  18.712  0.00  0.00    +0.000 OA
ATOM      2  C   UNL     1       3.268   6.683  18.454  0.00  0.00    +0.000 C 
ATOM      3  N   UNL     1       4.508   7.065  17.965  0.00  0.00    +0.000 N 
ATOM      4  H   UNL     1       4.739   8.049  17.999  0.00  0.00    +0.000 HD
ENDROOT
BRANCH   2   5
ATOM      5  C   UNL     1       2.320   7.786  18.746  0.00  0.00    +0.000 A 
ATOM      6  C   UNL     1       1.862   8.649  17.742  0.00  0.00    +0.000 A 
ATOM      7  C   UNL     1       0.948   9.656  18.059  0.00  0.00    +0.000 A 
ATOM      8  C   UNL     1       0.489   9.797  19.371  0.00  0.00    +0.000 A 
ATOM      9  C   UNL     1       0.935   8.923  20.362  0.00  0.00    +0.000 A 
ATOM     10 CL   UNL     1       0.356   9.092  21.974  0.00  0.00    +0.000 Cl
ATOM     11  C   UNL     1       1.842   7.914  20.056  0.00  0.00    +0.000 A 
ENDBRANCH   2   5
BRANCH   3  12
ATOM     12  C   UNL     1       5.540   6.187  17.560  0.00  0.00    +0.000 A 
ATOM     13  C   UNL     1       6.427   5.600  18.464  0.00  0.00    +0.000 A 
ATOM     14  C   UNL     1       7.433   4.739  18.029  0.00  0.00    +0.000 A 
ATOM     15  C   UNL     1       7.572   4.455  16.674  0.00  0.00    +0.000 A 
ATOM     16  C   UNL     1       6.696   5.032  15.749  0.00  0.00    +0.000 A 
ATOM     17  C   UNL     1       5.666   5.887  16.195  0.00  0.00    +0.000 A 
BRANCH  16  18
ATOM     18  N   UNL     1       6.858   4.776  14.366  0.00  0.00    +0.000 N 
ATOM     19  C   UNL     1       6.204   3.873  13.565  0.00  0.00    +0.000 A 
ATOM     20  N   UNL     1       6.681   3.946  12.344  0.00  0.00    +0.000 NA
ATOM     21  N   UNL     1       7.648   4.915  12.382  0.00  0.00    +0.000 NA
ATOM     22  N   UNL     1       7.762   5.428  13.599  0.00  0.00    +0.000 NA
ENDBRANCH  16  18
ENDBRANCH   3  12
TORSDOF 3
ENDMDL
MODEL 4
REMARK VINA RESULT:      -7.6      4.518      7.884
REMARK  Name = 
REMARK  3 active torsions:
REMARK  status: ('A' for Active; 'I' for Inactive)
REMARK    1  A    between atoms: C_2  and  C_15
REMARK    2  A    between atoms: N_3  and  C_4
REMARK    3  A    between atoms: C_8  and  N_9
REMARK                            x       y       z     vdW  Elec       q    Type
REMARK                         _______ _______ _______ _____ _____    ______ ____
ROOT
ATOM      1  O   UNL     1       6.708   5.219  16.934  0.00  0.00    +0.000 OA
ATOM      2  C   UNL     1       5.868   5.142  16.044  0.00  0.00    +0.000 C 
ATOM      3  N   UNL     1       4.494   5.259  16.189  0.00  0.00    +0.000 N 
ATOM      4  H   UNL     1       3.917   4.966  15.411  0.00  0.00    +0.000 HD
ENDROOT
BRANCH   2   5
ATOM      5  C   UNL     1       6.350   4.833  14.676  0.00  0.00    +0.000 A 
ATOM      6  C   UNL     1       7.515   5.412  14.156  0.00  0.00    +0.000 A 
ATOM      7  C   UNL     1       7.946   5.069  12.873  0.00  0.00    +0.000 A 
ATOM      8  C   UNL     1       7.220   4.147  12.114  0.00  0.00    +0.000 A 
ATOM      9  C   UNL     1       6.072   3.559  12.645  0.00  0.00    +0.000 A 
ATOM     10 CL   UNL     1       5.189   2.413  11.713  0.00  0.00    +0.000 Cl
ATOM     11  C   UNL     1       5.637   3.891  13.924  0.00  0.00    +0.000 A 
ENDBRANCH   2   5
BRANCH   3  12
ATOM     12  C   UNL     1       3.818   5.610  17.380  0.00  0.00    +0.000 A 
ATOM     13  C   UNL     1       3.441   6.922  17.673  0.00  0.00    +0.000 A 
ATOM     14  C   UNL     1       2.774   7.230  18.858  0.00  0.00    +0.000 A 
ATOM     15  C   UNL     1       2.479   6.228  19.776  0.00  0.00    +0.000 A 
ATOM     16  C   UNL     1       2.848   4.906  19.505  0.00  0.00    +0.000 A 
ATOM     17  C   UNL     1       3.504   4.594  18.296  0.00  0.00    +0.000 A 
BRANCH  16  18
ATOM     18  N   UNL     1       2.585   3.889  20.454  0.00  0.00    +0.000 N 
ATOM     19  C   UNL     1       1.417   3.597  21.114  0.00  0.00    +0.000 A 
ATOM     20  N   UNL     1       1.616   2.586  21.928  0.00  0.00    +0.000 NA
ATOM     21  N   UNL     1       2.931   2.238  21.771  0.00  0.00    +0.000 NA
ATOM     22  N   UNL     1       3.527   3.016  20.878  0.00  0.00    +0.000 NA
ENDBRANCH  16  18
ENDBRANCH   3  12
TORSDOF 3
ENDMDL
MODEL 5
REMARK VINA RESULT:      -7.6      6.066      7.069
REMARK  Name = 
REMARK  3 active torsions:
REMARK  status: ('A' for Active; 'I' for Inactive)
REMARK    1  A    between atoms: C_2  and  C_15
REMARK    2  A    between atoms: N_3  and  C_4
REMARK    3  A    between atoms: C_8  and  N_9
REMARK                            x       y       z     vdW  Elec       q    Type
REMARK                         _______ _______ _______ _____ _____    ______ ____
ROOT
ATOM      1  O   UNL     1       7.441   9.534  17.496  0.00  0.00    +0.000 OA
ATOM      2  C   UNL     1       8.334   9.218  18.274  0.00  0.00    +0.000 C 
ATOM      3  N   UNL     1       8.553   7.961  18.818  0.00  0.00    +0.000 N 
ATOM      4  H   UNL     1       9.192   7.897  19.600  0.00  0.00    +0.000 HD
ENDROOT
BRANCH   2   5
ATOM      5  C   UNL     1       9.246  10.292  18.738  0.00  0.00    +0.000 A 
ATOM      6  C   UNL     1       9.460  10.539  20.100  0.00  0.00    +0.000 A 
ATOM      7  C   UNL     1      10.350  11.542  20.490  0.00  0.00    +0.000 A 
ATOM      8  C   UNL     1      11.026  12.291  19.525  0.00  0.00    +0.000 A 
ATOM      9  C   UNL     1      10.824  12.027  18.171  0.00  0.00    +0.000 A 
ATOM     10 CL   UNL     1      11.671  12.943  16.985  0.00  0.00    +0.000 Cl
ATOM     11  C   UNL     1       9.943  11.027  17.772  0.00  0.00    +0.000 A 
ENDBRANCH   2   5
BRANCH   3  12
ATOM     12  C   UNL     1       7.852   6.782  18.476  0.00  0.00    +0.000 A 
ATOM     13  C   UNL     1       7.303   5.929  19.435  0.00  0.00    +0.000 A 
ATOM     14  C   UNL     1       6.617   4.774  19.062  0.00  0.00    +0.000 A 
ATOM     15  C   UNL     1       6.475   4.449  17.717  0.00  0.00    +0.000 A 
ATOM     16  C   UNL     1       7.019   5.288  16.738  0.00  0.00    +0.000 A 
ATOM     17  C   UNL     1       7.693   6.466  17.118  0.00  0.00    +0.000 A 
BRANCH  16  18
ATOM     18  N   UNL     1       6.910   4.941  15.369  0.00  0.00    +0.000 N 
ATOM     19  C   UNL     1       6.098   4.011  14.769  0.00  0.00    +0.000 A 
ATOM     20  N   UNL     1       6.335   3.991  13.478  0.00  0.00    +0.000 NA
ATOM     21  N   UNL     1       7.311   4.929  13.267  0.00  0.00    +0.000 NA
ATOM     22  N   UNL     1       7.664   5.514  14.403  0.00  0.00    +0.000 NA
ENDBRANCH  16  18
ENDBRANCH   3  12
TORSDOF 3
ENDMDL
MODEL 6
REMARK VINA RESULT:      -7.5      1.049      1.050
REMARK  Name = 
REMARK  3 active torsions:
REMARK  status: ('A' for Active; 'I' for Inactive)
REMARK    1  A    between atoms: C_2  and  C_15
REMARK    2  A    between atoms: N_3  and  C_4
REMARK    3  A    between atoms: C_8  and  N_9
REMARK                            x       y       z     vdW  Elec       q    Type
REMARK                         _______ _______ _______ _____ _____    ______ ____
ROOT
ATOM      1  O   UNL     1       1.339   8.803  17.444  0.00  0.00    +0.000 OA
ATOM      2  C   UNL     1       1.556   8.613  18.636  0.00  0.00    +0.000 C 
ATOM      3  N   UNL     1       2.124   7.484  19.206  0.00  0.00    +0.000 N 
ATOM      4  H   UNL     1       2.048   7.381  20.210  0.00  0.00    +0.000 HD
ENDROOT
BRANCH   2   5
ATOM      5  C   UNL     1       1.116   9.665  19.585  0.00  0.00    +0.000 A 
ATOM      6  C   UNL     1       1.087  11.018  19.224  0.00  0.00    +0.000 A 
ATOM      7  C   UNL     1       0.637  11.970  20.142  0.00  0.00    +0.000 A 
ATOM      8  C   UNL     1       0.214  11.572  21.412  0.00  0.00    +0.000 A 
ATOM      9  C   UNL     1       0.227  10.221  21.759  0.00  0.00    +0.000 A 
ATOM     10 CL   UNL     1      -0.309   9.734  23.320  0.00  0.00    +0.000 Cl
ATOM     11  C   UNL     1       0.668   9.265  20.851  0.00  0.00    +0.000 A 
ENDBRANCH   2   5
BRANCH   3  12
ATOM     12  C   UNL     1       2.670   6.389  18.498  0.00  0.00    +0.000 A 
ATOM     13  C   UNL     1       2.029   5.152  18.415  0.00  0.00    +0.000 A 
ATOM     14  C   UNL     1       2.597   4.094  17.706  0.00  0.00    +0.000 A 
ATOM     15  C   UNL     1       3.825   4.256  17.072  0.00  0.00    +0.000 A 
ATOM     16  C   UNL     1       4.487   5.486  17.143  0.00  0.00    +0.000 A 
ATOM     17  C   UNL     1       3.899   6.561  17.843  0.00  0.00    +0.000 A 
BRANCH  16  18
ATOM     18  N   UNL     1       5.754   5.644  16.532  0.00  0.00    +0.000 N 
ATOM     19  C   UNL     1       6.295   4.971  15.465  0.00  0.00    +0.000 A 
ATOM     20  N   UNL     1       7.510   5.414  15.239  0.00  0.00    +0.000 NA
ATOM     21  N   UNL     1       7.732   6.384  16.181  0.00  0.00    +0.000 NA
ATOM     22  N   UNL     1       6.675   6.535  16.967  0.00  0.00    +0.000 NA
ENDBRANCH  16  18
ENDBRANCH   3  12
TORSDOF 3
ENDMDL
MODEL 7
REMARK VINA RESULT:      -7.5      4.172      8.135
REMARK  Name = 
REMARK  3 active torsions:
REMARK  status: ('A' for Active; 'I' for Inactive)
REMARK    1  A    between atoms: C_2  and  C_15
REMARK    2  A    between atoms: N_3  and  C_4
REMARK    3  A    between atoms: C_8  and  N_9
REMARK                            x       y       z     vdW  Elec       q    Type
REMARK                         _______ _______ _______ _____ _____    ______ ____
ROOT
ATOM      1  O   UNL     1       6.944   5.211  16.739  0.00  0.00    +0.000 OA
ATOM      2  C   UNL     1       6.074   4.850  15.954  0.00  0.00    +0.000 C 
ATOM      3  N   UNL     1       4.757   4.542  16.260  0.00  0.00    +0.000 N 
ATOM      4  H   UNL     1       4.215   4.060  15.554  0.00  0.00    +0.000 HD
ENDROOT
BRANCH   2   5
ATOM      5  C   UNL     1       6.470   4.660  14.537  0.00  0.00    +0.000 A 
ATOM      6  C   UNL     1       7.516   5.391  13.959  0.00  0.00    +0.000 A 
ATOM      7  C   UNL     1       7.872   5.157  12.630  0.00  0.00    +0.000 A 
ATOM      8  C   UNL     1       7.190   4.194  11.882  0.00  0.00    +0.000 A 
ATOM      9  C   UNL     1       6.163   3.455  12.468  0.00  0.00    +0.000 A 
ATOM     10 CL   UNL     1       5.337   2.259  11.548  0.00  0.00    +0.000 Cl
ATOM     11  C   UNL     1       5.804   3.677  13.793  0.00  0.00    +0.000 A 
ENDBRANCH   2   5
BRANCH   3  12
ATOM     12  C   UNL     1       4.145   4.706  17.524  0.00  0.00    +0.000 A 
ATOM     13  C   UNL     1       4.126   3.696  18.488  0.00  0.00    +0.000 A 
ATOM     14  C   UNL     1       3.513   3.894  19.724  0.00  0.00    +0.000 A 
ATOM     15  C   UNL     1       2.901   5.108  20.015  0.00  0.00    +0.000 A 
ATOM     16  C   UNL     1       2.906   6.135  19.065  0.00  0.00    +0.000 A 
ATOM     17  C   UNL     1       3.545   5.939  17.823  0.00  0.00    +0.000 A 
BRANCH  16  18
ATOM     18  N   UNL     1       2.250   7.358  19.342  0.00  0.00    +0.000 N 
ATOM     19  C   UNL     1       1.661   7.786  20.506  0.00  0.00    +0.000 A 
ATOM     20  N   UNL     1       1.145   8.979  20.323  0.00  0.00    +0.000 NA
ATOM     21  N   UNL     1       1.419   9.305  19.021  0.00  0.00    +0.000 NA
ATOM     22  N   UNL     1       2.092   8.334  18.418  0.00  0.00    +0.000 NA
ENDBRANCH  16  18
ENDBRANCH   3  12
TORSDOF 3
ENDMDL
MODEL 8
REMARK VINA RESULT:      -7.5      1.732      2.029
REMARK  Name = 
REMARK  3 active torsions:
REMARK  status: ('A' for Active; 'I' for Inactive)
REMARK    1  A    between atoms: C_2  and  C_15
REMARK    2  A    between atoms: N_3  and  C_4
REMARK    3  A    between atoms: C_8  and  N_9
REMARK                            x       y       z     vdW  Elec       q    Type
REMARK                         _______ _______ _______ _____ _____    ______ ____
ROOT
ATOM      1  O   UNL     1       2.362   7.988  18.953  0.00  0.00    +0.000 OA
ATOM      2  C   UNL     1       1.836   7.691  20.020  0.00  0.00    +0.000 C 
ATOM      3  N   UNL     1       1.846   6.446  20.631  0.00  0.00    +0.000 N 
ATOM      4  H   UNL     1       1.199   6.297  21.395  0.00  0.00    +0.000 HD
ENDROOT
BRANCH   2   5
ATOM      5  C   UNL     1       1.054   8.745  20.713  0.00  0.00    +0.000 A 
ATOM      6  C   UNL     1       0.966   8.800  22.110  0.00  0.00    +0.000 A 
ATOM      7  C   UNL     1       0.242   9.827  22.718  0.00  0.00    +0.000 A 
ATOM      8  C   UNL     1      -0.387  10.798  21.935  0.00  0.00    +0.000 A 
ATOM      9  C   UNL     1      -0.279  10.750  20.545  0.00  0.00    +0.000 A 
ATOM     10 CL   UNL     1      -1.043  11.957  19.586  0.00  0.00    +0.000 Cl
ATOM     11  C   UNL     1       0.444   9.733  19.930  0.00  0.00    +0.000 A 
ENDBRANCH   2   5
BRANCH   3  12
ATOM     12  C   UNL     1       2.571   5.316  20.188  0.00  0.00    +0.000 A 
ATOM     13  C   UNL     1       2.073   4.016  20.287  0.00  0.00    +0.000 A 
ATOM     14  C   UNL     1       2.816   2.925  19.838  0.00  0.00    +0.000 A 
ATOM     15  C   UNL     1       4.079   3.118  19.287  0.00  0.00    +0.000 A 
ATOM     16  C   UNL     1       4.599   4.412  19.179  0.00  0.00    +0.000 A 
ATOM     17  C   UNL     1       3.836   5.515  19.615  0.00  0.00    +0.000 A 
BRANCH  16  18
ATOM     18  N   UNL     1       5.900   4.610  18.655  0.00  0.00    +0.000 N 
ATOM     19  C   UNL     1       6.348   4.473  17.364  0.00  0.00    +0.000 A 
ATOM     20  N   UNL     1       7.634   4.729  17.319  0.00  0.00    +0.000 NA
ATOM     21  N   UNL     1       7.997   5.035  18.604  0.00  0.00    +0.000 NA
ATOM     22  N   UNL     1       6.955   4.971  19.421  0.00  0.00    +0.000 NA
ENDBRANCH  16  18
ENDBRANCH   3  12
TORSDOF 3
ENDMDL
MODEL 9
REMARK VINA RESULT:      -7.4      1.726      2.146
REMARK  Name = 
REMARK  3 active torsions:
REMARK  status: ('A' for Active; 'I' for Inactive)
REMARK    1  A    between atoms: C_2  and  C_15
REMARK    2  A    between atoms: N_3  and  C_4
REMARK    3  A    between atoms: C_8  and  N_9
REMARK                            x       y       z     vdW  Elec       q    Type
REMARK                         _______ _______ _______ _____ _____    ______ ____
ROOT
ATOM      1  O   UNL     1       1.809   6.584  21.062  0.00  0.00    +0.000 OA
ATOM      2  C   UNL     1       1.669   7.424  20.180  0.00  0.00    +0.000 C 
ATOM      3  N   UNL     1       2.043   7.299  18.850  0.00  0.00    +0.000 N 
ATOM      4  H   UNL     1       2.060   8.142  18.290  0.00  0.00    +0.000 HD
ENDROOT
BRANCH   2   5
ATOM      5  C   UNL     1       1.099   8.736  20.571  0.00  0.00    +0.000 A 
ATOM      6  C   UNL     1       0.635   8.981  21.870  0.00  0.00    +0.000 A 
ATOM      7  C   UNL     1       0.133  10.241  22.200  0.00  0.00    +0.000 A 
ATOM      8  C   UNL     1       0.098  11.254  21.238  0.00  0.00    +0.000 A 
ATOM      9  C   UNL     1       0.578  11.010  19.952  0.00  0.00    +0.000 A 
ATOM     10 CL   UNL     1       0.547  12.265  18.775  0.00  0.00    +0.000 Cl
ATOM     11  C   UNL     1       1.085   9.760  19.615  0.00  0.00    +0.000 A 
ENDBRANCH   2   5
BRANCH   3  12
ATOM     12  C   UNL     1       2.547   6.126  18.242  0.00  0.00    +0.000 A 
ATOM     13  C   UNL     1       1.814   4.940  18.172  0.00  0.00    +0.000 A 
ATOM     14  C   UNL     1       2.344   3.803  17.565  0.00  0.00    +0.000 A 
ATOM     15  C   UNL     1       3.624   3.832  17.020  0.00  0.00    +0.000 A 
ATOM     16  C   UNL     1       4.377   5.009  17.080  0.00  0.00    +0.000 A 
ATOM     17  C   UNL     1       3.831   6.164  17.677  0.00  0.00    +0.000 A 
BRANCH  16  18
ATOM     18  N   UNL     1       5.695   5.032  16.562  0.00  0.00    +0.000 N 
ATOM     19  C   UNL     1       6.804   4.334  16.973  0.00  0.00    +0.000 A 
ATOM     20  N   UNL     1       7.833   4.672  16.231  0.00  0.00    +0.000 NA
ATOM     21  N   UNL     1       7.358   5.596  15.338  0.00  0.00    +0.000 NA
ATOM     22  N   UNL     1       6.064   5.819  15.525  0.00  0.00    +0.000 NA
ENDBRANCH  16  18
ENDBRANCH   3  12
TORSDOF 3
ENDMDL
