MODEL 1
REMARK VINA RESULT:      -9.8      0.000      0.000
REMARK  Name = 
REMARK  4 active torsions:
REMARK  status: ('A' for Active; 'I' for Inactive)
REMARK    1  A    between atoms: O_1  and  N_2
REMARK    2  A    between atoms: C_8  and  C_9
REMARK    3  A    between atoms: N_11  and  C_12
REMARK    4  A    between atoms: C_19  and  C_20
REMARK                            x       y       z     vdW  Elec       q    Type
REMARK                         _______ _______ _______ _____ _____    ______ ____
ROOT
ATOM      1  C   UNL     1       2.987   7.180  18.268  0.00  0.00    +0.000 A 
ATOM      2  C   UNL     1       3.980   7.579  17.396  0.00  0.00    +0.000 A 
ATOM      3  N   UNL     1       4.706   6.465  17.092  0.00  0.00    +0.000 N 
ATOM      4  N   UNL     1       4.212   5.352  17.660  0.00  0.00    +0.000 NA
ATOM      5  C   UNL     1       3.153   5.762  18.376  0.00  0.00    +0.000 A 
ENDROOT
BRANCH   1  12
ATOM      6  N   UNL     1      -1.402  11.615  20.367  0.00  0.00    +0.000 NA
ATOM      7  C   UNL     1      -0.642  10.676  20.833  0.00  0.00    +0.000 C 
ATOM      8  C   UNL     1      -0.533  10.215  22.268  0.00  0.00    +0.000 C 
ATOM      9  C   UNL     1       0.473   9.054  22.242  0.00  0.00    +0.000 C 
ATOM     10  C   UNL     1       0.896   8.965  20.811  0.00  0.00    +0.000 A 
ATOM     11  C   UNL     1       1.806   8.075  20.258  0.00  0.00    +0.000 A 
ATOM     12  C   UNL     1       2.043   8.111  18.873  0.00  0.00    +0.000 A 
ATOM     13  C   UNL     1       1.352   9.048  18.073  0.00  0.00    +0.000 A 
ATOM     14  C   UNL     1       0.462   9.964  18.639  0.00  0.00    +0.000 A 
ATOM     15  C   UNL     1       0.251   9.890  20.002  0.00  0.00    +0.000 A 
BRANCH   6  16
ATOM     16  O   UNL     1      -2.157  12.187  21.397  0.00  0.00    +0.000 OA
ATOM     17  H   UNL     1      -2.219  13.119  21.114  0.00  0.00    +0.000 HD
ENDBRANCH   6  16
ENDBRANCH   1  12
BRANCH   3  18
ATOM     18  C   UNL     1       5.842   6.402  16.170  0.00  0.00    +0.000 C 
ATOM     19  C   UNL     1       5.873   5.138  15.293  0.00  0.00    +0.000 C 
ATOM     20  C   UNL     1       6.297   3.908  16.095  0.00  0.00    +0.000 C 
ATOM     21  N   UNL     1       7.590   4.108  16.752  0.00  0.00    +0.000 NA
ATOM     22  C   UNL     1       7.562   5.268  17.642  0.00  0.00    +0.000 C 
ATOM     23  C   UNL     1       7.194   6.543  16.889  0.00  0.00    +0.000 C 
ATOM     24  H   UNL     1       8.314   4.232  16.046  0.00  0.00    +0.000 HD
ENDBRANCH   3  18
BRANCH   5  25
ATOM     25  C   UNL     1       2.341   4.785  19.103  0.00  0.00    +0.000 A 
ATOM     26  C   UNL     1       1.473   3.937  18.413  0.00  0.00    +0.000 A 
ATOM     27  C   UNL     1       0.734   3.017  19.140  0.00  0.00    +0.000 A 
ATOM     28  N   UNL     1       0.811   2.885  20.480  0.00  0.00    +0.000 NA
ATOM     29  C   UNL     1       1.643   3.726  21.129  0.00  0.00    +0.000 A 
ATOM     30  C   UNL     1       2.408   4.688  20.495  0.00  0.00    +0.000 A 
ENDBRANCH   5  25
TORSDOF 4
ENDMDL
MODEL 2
REMARK VINA RESULT:      -9.5      0.696      1.678
REMARK  Name = 
REMARK  4 active torsions:
REMARK  status: ('A' for Active; 'I' for Inactive)
REMARK    1  A    between atoms: O_1  and  N_2
REMARK    2  A    between atoms: C_8  and  C_9
REMARK    3  A    between atoms: N_11  and  C_12
REMARK    4  A    between atoms: C_19  and  C_20
REMARK                            x       y       z     vdW  Elec       q    Type
REMARK                         _______ _______ _______ _____ _____    ______ ____
ROOT
ATOM      1  C   UNL     1       2.976   6.990  18.439  0.00  0.00    +0.000 A 
ATOM      2  C   UNL     1       3.957   7.457  17.587  0.00  0.00    +0.000 A 
ATOM      3  N   UNL     1       4.626   6.363  17.123  0.00  0.00    +0.000 N 
ATOM      4  N   UNL     1       4.106   5.208  17.567  0.00  0.00    +0.000 NA
ATOM      5  C   UNL     1       3.087   5.565  18.366  0.00  0.00    +0.000 A 
ENDROOT
BRANCH   1  12
ATOM      6  N   UNL     1      -0.877  10.595  22.377  0.00  0.00    +0.000 NA
ATOM      7  C   UNL     1      -0.477  10.557  21.145  0.00  0.00    +0.000 C 
ATOM      8  C   UNL     1      -0.824  11.529  20.041  0.00  0.00    +0.000 C 
ATOM      9  C   UNL     1      -0.045  11.035  18.812  0.00  0.00    +0.000 C 
ATOM     10  C   UNL     1       0.651   9.801  19.288  0.00  0.00    +0.000 A 
ATOM     11  C   UNL     1       1.483   8.970  18.552  0.00  0.00    +0.000 A 
ATOM     12  C   UNL     1       2.091   7.873  19.188  0.00  0.00    +0.000 A 
ATOM     13  C   UNL     1       1.844   7.639  20.560  0.00  0.00    +0.000 A 
ATOM     14  C   UNL     1       0.979   8.460  21.288  0.00  0.00    +0.000 A 
ATOM     15  C   UNL     1       0.410   9.531  20.628  0.00  0.00    +0.000 A 
BRANCH   6  16
ATOM     16  O   UNL     1      -1.711  11.699  22.585  0.00  0.00    +0.000 OA
ATOM     17  H   UNL     1      -1.384  12.332  21.919  0.00  0.00    +0.000 HD
ENDBRANCH   6  16
ENDBRANCH   1  12
BRANCH   3  18
ATOM     18  C   UNL     1       5.729   6.373  16.158  0.00  0.00    +0.000 C 
ATOM     19  C   UNL     1       5.767   5.146  15.231  0.00  0.00    +0.000 C 
ATOM     20  C   UNL     1       6.259   3.900  15.968  0.00  0.00    +0.000 C 
ATOM     21  N   UNL     1       7.569   4.118  16.587  0.00  0.00    +0.000 NA
ATOM     22  C   UNL     1       7.537   5.241  17.522  0.00  0.00    +0.000 C 
ATOM     23  C   UNL     1       7.102   6.532  16.834  0.00  0.00    +0.000 C 
ATOM     24  H   UNL     1       8.262   4.293  15.861  0.00  0.00    +0.000 HD
ENDBRANCH   3  18
BRANCH   5  25
ATOM     25  C   UNL     1       2.259   4.535  18.997  0.00  0.00    +0.000 A 
ATOM     26  C   UNL     1       2.267   4.376  20.384  0.00  0.00    +0.000 A 
ATOM     27  C   UNL     1       1.457   3.399  20.940  0.00  0.00    +0.000 A 
ATOM     28  N   UNL     1       0.650   2.594  20.219  0.00  0.00    +0.000 NA
ATOM     29  C   UNL     1       0.671   2.753  18.879  0.00  0.00    +0.000 A 
ATOM     30  C   UNL     1       1.457   3.688  18.230  0.00  0.00    +0.000 A 
ENDBRANCH   5  25
TORSDOF 4
ENDMDL
MODEL 3
REMARK VINA RESULT:      -9.4      0.944      1.531
REMARK  Name = 
REMARK  4 active torsions:
REMARK  status: ('A' for Active; 'I' for Inactive)
REMARK    1  A    between atoms: O_1  and  N_2
REMARK    2  A    between atoms: C_8  and  C_9
REMARK    3  A    between atoms: N_11  and  C_12
REMARK    4  A    between atoms: C_19  and  C_20
REMARK                            x       y       z     vdW  Elec       q    Type
REMARK                         _______ _______ _______ _____ _____    ______ ____
ROOT
ATOM      1  C   UNL     1       2.766   7.153  18.741  0.00  0.00    +0.000 A 
ATOM      2  C   UNL     1       3.590   7.612  17.734  0.00  0.00    +0.000 A 
ATOM      3  N   UNL     1       4.248   6.525  17.239  0.00  0.00    +0.000 N 
ATOM      4  N   UNL     1       3.859   5.376  17.815  0.00  0.00    +0.000 NA
ATOM      5  C   UNL     1       2.943   5.732  18.731  0.00  0.00    +0.000 A 
ENDROOT
BRANCH   1  12
ATOM      6  N   UNL     1      -0.728  10.778  22.983  0.00  0.00    +0.000 NA
ATOM      7  C   UNL     1      -0.453  10.723  21.719  0.00  0.00    +0.000 C 
ATOM      8  C   UNL     1      -0.923  11.670  20.639  0.00  0.00    +0.000 C 
ATOM      9  C   UNL     1      -0.264  11.164  19.347  0.00  0.00    +0.000 C 
ATOM     10  C   UNL     1       0.495   9.948  19.772  0.00  0.00    +0.000 A 
ATOM     11  C   UNL     1       1.262   9.114  18.970  0.00  0.00    +0.000 A 
ATOM     12  C   UNL     1       1.947   8.037  19.560  0.00  0.00    +0.000 A 
ATOM     13  C   UNL     1       1.841   7.826  20.953  0.00  0.00    +0.000 A 
ATOM     14  C   UNL     1       1.041   8.648  21.751  0.00  0.00    +0.000 A 
ATOM     15  C   UNL     1       0.393   9.699  21.133  0.00  0.00    +0.000 A 
BRANCH   6  16
ATOM     16  O   UNL     1      -1.554  11.875  23.256  0.00  0.00    +0.000 OA
ATOM     17  H   UNL     1      -1.109  12.281  24.022  0.00  0.00    +0.000 HD
ENDBRANCH   6  16
ENDBRANCH   1  12
BRANCH   3  18
ATOM     18  C   UNL     1       5.203   6.527  16.128  0.00  0.00    +0.000 C 
ATOM     19  C   UNL     1       5.391   5.157  15.455  0.00  0.00    +0.000 C 
ATOM     20  C   UNL     1       6.218   4.212  16.327  0.00  0.00    +0.000 C 
ATOM     21  N   UNL     1       7.516   4.795  16.678  0.00  0.00    +0.000 NA
ATOM     22  C   UNL     1       7.356   6.068  17.378  0.00  0.00    +0.000 C 
ATOM     23  C   UNL     1       6.580   7.077  16.537  0.00  0.00    +0.000 C 
ATOM     24  H   UNL     1       8.066   4.931  15.832  0.00  0.00    +0.000 HD
ENDBRANCH   3  18
BRANCH   5  25
ATOM     25  C   UNL     1       2.269   4.706  19.527  0.00  0.00    +0.000 A 
ATOM     26  C   UNL     1       1.304   3.882  18.945  0.00  0.00    +0.000 A 
ATOM     27  C   UNL     1       0.703   2.914  19.733  0.00  0.00    +0.000 A 
ATOM     28  N   UNL     1       1.001   2.713  21.033  0.00  0.00    +0.000 NA
ATOM     29  C   UNL     1       1.923   3.532  21.580  0.00  0.00    +0.000 A 
ATOM     30  C   UNL     1       2.567   4.537  20.882  0.00  0.00    +0.000 A 
ENDBRANCH   5  25
TORSDOF 4
ENDMDL
MODEL 4
REMARK VINA RESULT:      -8.8      0.802      1.057
REMARK  Name = 
REMARK  4 active torsions:
REMARK  status: ('A' for Active; 'I' for Inactive)
REMARK    1  A    between atoms: O_1  and  N_2
REMARK    2  A    between atoms: C_8  and  C_9
REMARK    3  A    between atoms: N_11  and  C_12
REMARK    4  A    between atoms: C_19  and  C_20
REMARK                            x       y       z     vdW  Elec       q    Type
REMARK                         _______ _______ _______ _____ _____    ______ ____
ROOT
ATOM      1  C   UNL     1       3.294   6.835  18.218  0.00  0.00    +0.000 A 
ATOM      2  C   UNL     1       4.354   7.151  17.392  0.00  0.00    +0.000 A 
ATOM      3  N   UNL     1       5.077   6.006  17.225  0.00  0.00    +0.000 N 
ATOM      4  N   UNL     1       4.521   4.947  17.837  0.00  0.00    +0.000 NA
ATOM      5  C   UNL     1       3.423   5.426  18.443  0.00  0.00    +0.000 A 
ENDROOT
BRANCH   1  12
ATOM      6  N   UNL     1      -1.127  11.493  19.665  0.00  0.00    +0.000 NA
ATOM      7  C   UNL     1      -0.435  10.567  20.250  0.00  0.00    +0.000 C 
ATOM      8  C   UNL     1      -0.459  10.194  21.714  0.00  0.00    +0.000 C 
ATOM      9  C   UNL     1       0.512   9.011  21.844  0.00  0.00    +0.000 C 
ATOM     10  C   UNL     1       1.050   8.823  20.462  0.00  0.00    +0.000 A 
ATOM     11  C   UNL     1       1.977   7.879  20.043  0.00  0.00    +0.000 A 
ATOM     12  C   UNL     1       2.330   7.823  18.683  0.00  0.00    +0.000 A 
ATOM     13  C   UNL     1       1.735   8.724  17.773  0.00  0.00    +0.000 A 
ATOM     14  C   UNL     1       0.827   9.694  18.204  0.00  0.00    +0.000 A 
ATOM     15  C   UNL     1       0.501   9.710  19.546  0.00  0.00    +0.000 A 
BRANCH   6  16
ATOM     16  O   UNL     1      -1.949  12.145  20.591  0.00  0.00    +0.000 OA
ATOM     17  H   UNL     1      -1.309  12.689  21.087  0.00  0.00    +0.000 HD
ENDBRANCH   6  16
ENDBRANCH   1  12
BRANCH   3  18
ATOM     18  C   UNL     1       6.273   5.856  16.393  0.00  0.00    +0.000 C 
ATOM     19  C   UNL     1       6.013   5.999  14.883  0.00  0.00    +0.000 C 
ATOM     20  C   UNL     1       5.311   4.766  14.314  0.00  0.00    +0.000 C 
ATOM     21  N   UNL     1       6.061   3.538  14.592  0.00  0.00    +0.000 NA
ATOM     22  C   UNL     1       6.261   3.350  16.028  0.00  0.00    +0.000 C 
ATOM     23  C   UNL     1       7.006   4.528  16.649  0.00  0.00    +0.000 C 
ATOM     24  H   UNL     1       6.962   3.577  14.119  0.00  0.00    +0.000 HD
ENDBRANCH   3  18
BRANCH   5  25
ATOM     25  C   UNL     1       2.542   4.520  19.180  0.00  0.00    +0.000 A 
ATOM     26  C   UNL     1       1.639   3.703  18.497  0.00  0.00    +0.000 A 
ATOM     27  C   UNL     1       0.835   2.849  19.235  0.00  0.00    +0.000 A 
ATOM     28  N   UNL     1       0.878   2.753  20.580  0.00  0.00    +0.000 NA
ATOM     29  C   UNL     1       1.745   3.564  21.221  0.00  0.00    +0.000 A 
ATOM     30  C   UNL     1       2.577   4.460  20.576  0.00  0.00    +0.000 A 
ENDBRANCH   5  25
TORSDOF 4
ENDMDL
MODEL 5
REMARK VINA RESULT:      -8.6      1.246      1.771
REMARK  Name = 
REMARK  4 active torsions:
REMARK  status: ('A' for Active; 'I' for Inactive)
REMARK    1  A    between atoms: O_1  and  N_2
REMARK    2  A    between atoms: C_8  and  C_9
REMARK    3  A    between atoms: N_11  and  C_12
REMARK    4  A    between atoms: C_19  and  C_20
REMARK                            x       y       z     vdW  Elec       q    Type
REMARK                         _______ _______ _______ _____ _____    ______ ____
ROOT
ATOM      1  C   UNL     1       3.602   6.309  19.026  0.00  0.00    +0.000 A 
ATOM      2  C   UNL     1       4.923   6.575  18.726  0.00  0.00    +0.000 A 
ATOM      3  N   UNL     1       5.583   5.382  18.765  0.00  0.00    +0.000 N 
ATOM      4  N   UNL     1       4.766   4.344  19.009  0.00  0.00    +0.000 NA
ATOM      5  C   UNL     1       3.545   4.884  19.161  0.00  0.00    +0.000 A 
ENDROOT
BRANCH   1  12
ATOM      6  N   UNL     1      -0.894  11.116  18.901  0.00  0.00    +0.000 NA
ATOM      7  C   UNL     1      -0.356  10.283  19.734  0.00  0.00    +0.000 C 
ATOM      8  C   UNL     1      -0.682  10.120  21.201  0.00  0.00    +0.000 C 
ATOM      9  C   UNL     1       0.213   8.968  21.685  0.00  0.00    +0.000 C 
ATOM     10  C   UNL     1       1.010   8.589  20.478  0.00  0.00    +0.000 A 
ATOM     11  C   UNL     1       1.976   7.597  20.388  0.00  0.00    +0.000 A 
ATOM     12  C   UNL     1       2.591   7.351  19.148  0.00  0.00    +0.000 A 
ATOM     13  C   UNL     1       2.213   8.114  18.021  0.00  0.00    +0.000 A 
ATOM     14  C   UNL     1       1.263   9.134  18.124  0.00  0.00    +0.000 A 
ATOM     15  C   UNL     1       0.678   9.337  19.358  0.00  0.00    +0.000 A 
BRANCH   6  16
ATOM     16  O   UNL     1      -1.865  11.891  19.543  0.00  0.00    +0.000 OA
ATOM     17  H   UNL     1      -2.349  12.281  18.791  0.00  0.00    +0.000 HD
ENDBRANCH   6  16
ENDBRANCH   1  12
BRANCH   3  18
ATOM     18  C   UNL     1       7.003   5.173  18.474  0.00  0.00    +0.000 C 
ATOM     19  C   UNL     1       7.848   6.458  18.502  0.00  0.00    +0.000 C 
ATOM     20  C   UNL     1       7.595   7.324  17.267  0.00  0.00    +0.000 C 
ATOM     21  N   UNL     1       7.830   6.580  16.027  0.00  0.00    +0.000 NA
ATOM     22  C   UNL     1       6.987   5.389  15.952  0.00  0.00    +0.000 C 
ATOM     23  C   UNL     1       7.230   4.454  17.133  0.00  0.00    +0.000 C 
ATOM     24  H   UNL     1       8.812   6.314  15.972  0.00  0.00    +0.000 HD
ENDBRANCH   3  18
BRANCH   5  25
ATOM     25  C   UNL     1       2.390   4.020  19.402  0.00  0.00    +0.000 A 
ATOM     26  C   UNL     1       1.731   3.409  18.333  0.00  0.00    +0.000 A 
ATOM     27  C   UNL     1       0.650   2.587  18.609  0.00  0.00    +0.000 A 
ATOM     28  N   UNL     1       0.199   2.332  19.854  0.00  0.00    +0.000 NA
ATOM     29  C   UNL     1       0.839   2.946  20.871  0.00  0.00    +0.000 A 
ATOM     30  C   UNL     1       1.916   3.796  20.697  0.00  0.00    +0.000 A 
ENDBRANCH   5  25
TORSDOF 4
ENDMDL
MODEL 6
REMARK VINA RESULT:      -8.1      1.144      2.024
REMARK  Name = 
REMARK  4 active torsions:
REMARK  status: ('A' for Active; 'I' for Inactive)
REMARK    1  A    between atoms: O_1  and  N_2
REMARK    2  A    between atoms: C_8  and  C_9
REMARK    3  A    between atoms: N_11  and  C_12
REMARK    4  A    between atoms: C_19  and  C_20
REMARK                            x       y       z     vdW  Elec       q    Type
REMARK                         _______ _______ _______ _____ _____    ______ ____
ROOT
ATOM      1  C   UNL     1       3.244   6.761  18.614  0.00  0.00    +0.000 A 
ATOM      2  C   UNL     1       4.426   7.123  18.000  0.00  0.00    +0.000 A 
ATOM      3  N   UNL     1       5.123   5.972  17.780  0.00  0.00    +0.000 N 
ATOM      4  N   UNL     1       4.445   4.875  18.154  0.00  0.00    +0.000 NA
ATOM      5  C   UNL     1       3.287   5.330  18.658  0.00  0.00    +0.000 A 
ENDROOT
BRANCH   1  12
ATOM      6  N   UNL     1      -1.104  10.906  21.308  0.00  0.00    +0.000 NA
ATOM      7  C   UNL     1      -0.592  10.619  20.153  0.00  0.00    +0.000 C 
ATOM      8  C   UNL     1      -0.877  11.297  18.833  0.00  0.00    +0.000 C 
ATOM      9  C   UNL     1       0.032  10.591  17.814  0.00  0.00    +0.000 C 
ATOM     10  C   UNL     1       0.733   9.540  18.613  0.00  0.00    +0.000 A 
ATOM     11  C   UNL     1       1.664   8.619  18.154  0.00  0.00    +0.000 A 
ATOM     12  C   UNL     1       2.257   7.731  19.070  0.00  0.00    +0.000 A 
ATOM     13  C   UNL     1       1.896   7.795  20.434  0.00  0.00    +0.000 A 
ATOM     14  C   UNL     1       0.933   8.702  20.885  0.00  0.00    +0.000 A 
ATOM     15  C   UNL     1       0.382   9.561  19.956  0.00  0.00    +0.000 A 
BRANCH   6  16
ATOM     16  O   UNL     1      -1.999  11.975  21.192  0.00  0.00    +0.000 OA
ATOM     17  H   UNL     1      -1.731  12.378  20.345  0.00  0.00    +0.000 HD
ENDBRANCH   6  16
ENDBRANCH   1  12
BRANCH   3  18
ATOM     18  C   UNL     1       6.424   5.866  17.115  0.00  0.00    +0.000 C 
ATOM     19  C   UNL     1       7.466   5.044  17.893  0.00  0.00    +0.000 C 
ATOM     20  C   UNL     1       8.005   5.815  19.097  0.00  0.00    +0.000 C 
ATOM     21  N   UNL     1       8.563   7.111  18.705  0.00  0.00    +0.000 NA
ATOM     22  C   UNL     1       7.568   7.935  18.021  0.00  0.00    +0.000 C 
ATOM     23  C   UNL     1       7.026   7.241  16.776  0.00  0.00    +0.000 C 
ATOM     24  H   UNL     1       9.367   6.964  18.097  0.00  0.00    +0.000 HD
ENDBRANCH   3  18
BRANCH   5  25
ATOM     25  C   UNL     1       2.274   4.385  19.129  0.00  0.00    +0.000 A 
ATOM     26  C   UNL     1       1.512   3.654  18.216  0.00  0.00    +0.000 A 
ATOM     27  C   UNL     1       0.575   2.759  18.706  0.00  0.00    +0.000 A 
ATOM     28  N   UNL     1       0.358   2.544  20.020  0.00  0.00    +0.000 NA
ATOM     29  C   UNL     1       1.093   3.274  20.885  0.00  0.00    +0.000 A 
ATOM     30  C   UNL     1       2.040   4.203  20.494  0.00  0.00    +0.000 A 
ENDBRANCH   5  25
TORSDOF 4
ENDMDL
MODEL 7
REMARK VINA RESULT:      -8.0      1.345      2.293
REMARK  Name = 
REMARK  4 active torsions:
REMARK  status: ('A' for Active; 'I' for Inactive)
REMARK    1  A    between atoms: O_1  and  N_2
REMARK    2  A    between atoms: C_8  and  C_9
REMARK    3  A    between atoms: N_11  and  C_12
REMARK    4  A    between atoms: C_19  and  C_20
REMARK                            x       y       z     vdW  Elec       q    Type
REMARK                         _______ _______ _______ _____ _____    ______ ____
ROOT
ATOM      1  C   UNL     1       3.643   6.154  19.260  0.00  0.00    +0.000 A 
ATOM      2  C   UNL     1       4.962   6.434  18.964  0.00  0.00    +0.000 A 
ATOM      3  N   UNL     1       5.602   5.236  18.850  0.00  0.00    +0.000 N 
ATOM      4  N   UNL     1       4.773   4.189  18.988  0.00  0.00    +0.000 NA
ATOM      5  C   UNL     1       3.565   4.724  19.229  0.00  0.00    +0.000 A 
ENDROOT
BRANCH   1  12
ATOM      6  N   UNL     1      -0.858  10.592  21.099  0.00  0.00    +0.000 NA
ATOM      7  C   UNL     1      -0.159  10.262  20.060  0.00  0.00    +0.000 C 
ATOM      8  C   UNL     1      -0.149  10.942  18.711  0.00  0.00    +0.000 C 
ATOM      9  C   UNL     1       0.887  10.170  17.879  0.00  0.00    +0.000 C 
ATOM     10  C   UNL     1       1.358   9.085  18.794  0.00  0.00    +0.000 A 
ATOM     11  C   UNL     1       2.298   8.102  18.515  0.00  0.00    +0.000 A 
ATOM     12  C   UNL     1       2.652   7.189  19.524  0.00  0.00    +0.000 A 
ATOM     13  C   UNL     1       2.047   7.290  20.797  0.00  0.00    +0.000 A 
ATOM     14  C   UNL     1       1.077   8.260  21.062  0.00  0.00    +0.000 A 
ATOM     15  C   UNL     1       0.765   9.142  20.047  0.00  0.00    +0.000 A 
BRANCH   6  16
ATOM     16  O   UNL     1      -1.647  11.714  20.820  0.00  0.00    +0.000 OA
ATOM     17  H   UNL     1      -2.127  11.433  20.019  0.00  0.00    +0.000 HD
ENDBRANCH   6  16
ENDBRANCH   1  12
BRANCH   3  18
ATOM     18  C   UNL     1       7.012   5.041  18.506  0.00  0.00    +0.000 C 
ATOM     19  C   UNL     1       7.868   6.315  18.610  0.00  0.00    +0.000 C 
ATOM     20  C   UNL     1       7.590   7.276  17.454  0.00  0.00    +0.000 C 
ATOM     21  N   UNL     1       7.787   6.630  16.154  0.00  0.00    +0.000 NA
ATOM     22  C   UNL     1       6.933   5.453  16.009  0.00  0.00    +0.000 C 
ATOM     23  C   UNL     1       7.199   4.428  17.107  0.00  0.00    +0.000 C 
ATOM     24  H   UNL     1       8.764   6.363  16.052  0.00  0.00    +0.000 HD
ENDBRANCH   3  18
BRANCH   5  25
ATOM     25  C   UNL     1       2.399   3.854  19.392  0.00  0.00    +0.000 A 
ATOM     26  C   UNL     1       1.831   3.222  18.284  0.00  0.00    +0.000 A 
ATOM     27  C   UNL     1       0.738   2.395  18.487  0.00  0.00    +0.000 A 
ATOM     28  N   UNL     1       0.192   2.157  19.696  0.00  0.00    +0.000 NA
ATOM     29  C   UNL     1       0.745   2.792  20.751  0.00  0.00    +0.000 A 
ATOM     30  C   UNL     1       1.826   3.648  20.649  0.00  0.00    +0.000 A 
ENDBRANCH   5  25
TORSDOF 4
ENDMDL
MODEL 8
REMARK VINA RESULT:      -7.8      1.257      1.804
REMARK  Name = 
REMARK  4 active torsions:
REMARK  status: ('A' for Active; 'I' for Inactive)
REMARK    1  A    between atoms: O_1  and  N_2
REMARK    2  A    between atoms: C_8  and  C_9
REMARK    3  A    between atoms: N_11  and  C_12
REMARK    4  A    between atoms: C_19  and  C_20
REMARK                            x       y       z     vdW  Elec       q    Type
REMARK                         _______ _______ _______ _____ _____    ______ ____
ROOT
ATOM      1  C   UNL     1       3.672   6.046  18.426  0.00  0.00    +0.000 A 
ATOM      2  C   UNL     1       4.771   6.121  17.594  0.00  0.00    +0.000 A 
ATOM      3  N   UNL     1       5.381   4.902  17.639  0.00  0.00    +0.000 N 
ATOM      4  N   UNL     1       4.715   4.016  18.396  0.00  0.00    +0.000 NA
ATOM      5  C   UNL     1       3.658   4.688  18.880  0.00  0.00    +0.000 A 
ENDROOT
BRANCH   1  12
ATOM      6  N   UNL     1      -0.162  11.369  18.980  0.00  0.00    +0.000 NA
ATOM      7  C   UNL     1       0.242  10.361  19.686  0.00  0.00    +0.000 C 
ATOM      8  C   UNL     1      -0.140  10.030  21.110  0.00  0.00    +0.000 C 
ATOM      9  C   UNL     1       0.586   8.713  21.424  0.00  0.00    +0.000 C 
ATOM     10  C   UNL     1       1.358   8.412  20.181  0.00  0.00    +0.000 A 
ATOM     11  C   UNL     1       2.191   7.325  19.952  0.00  0.00    +0.000 A 
ATOM     12  C   UNL     1       2.801   7.183  18.693  0.00  0.00    +0.000 A 
ATOM     13  C   UNL     1       2.554   8.145  17.688  0.00  0.00    +0.000 A 
ATOM     14  C   UNL     1       1.741   9.255  17.934  0.00  0.00    +0.000 A 
ATOM     15  C   UNL     1       1.155   9.352  19.181  0.00  0.00    +0.000 A 
BRANCH   6  16
ATOM     16  O   UNL     1      -1.042  12.163  19.724  0.00  0.00    +0.000 OA
ATOM     17  H   UNL     1      -0.625  12.163  20.605  0.00  0.00    +0.000 HD
ENDBRANCH   6  16
ENDBRANCH   1  12
BRANCH   3  18
ATOM     18  C   UNL     1       6.570   4.506  16.881  0.00  0.00    +0.000 C 
ATOM     19  C   UNL     1       7.355   5.683  16.277  0.00  0.00    +0.000 C 
ATOM     20  C   UNL     1       6.632   6.279  15.069  0.00  0.00    +0.000 C 
ATOM     21  N   UNL     1       6.358   5.265  14.047  0.00  0.00    +0.000 NA
ATOM     22  C   UNL     1       5.557   4.168  14.586  0.00  0.00    +0.000 C 
ATOM     23  C   UNL     1       6.250   3.495  15.767  0.00  0.00    +0.000 C 
ATOM     24  H   UNL     1       7.238   4.904  13.683  0.00  0.00    +0.000 HD
ENDBRANCH   3  18
BRANCH   5  25
ATOM     25  C   UNL     1       2.681   4.002  19.727  0.00  0.00    +0.000 A 
ATOM     26  C   UNL     1       1.464   3.573  19.193  0.00  0.00    +0.000 A 
ATOM     27  C   UNL     1       0.575   2.914  20.027  0.00  0.00    +0.000 A 
ATOM     28  N   UNL     1       0.819   2.653  21.328  0.00  0.00    +0.000 NA
ATOM     29  C   UNL     1       1.993   3.092  21.827  0.00  0.00    +0.000 A 
ATOM     30  C   UNL     1       2.938   3.773  21.081  0.00  0.00    +0.000 A 
ENDBRANCH   5  25
TORSDOF 4
ENDMDL
MODEL 9
REMARK VINA RESULT:      -7.8      3.747      8.272
REMARK  Name = 
REMARK  4 active torsions:
REMARK  status: ('A' for Active; 'I' for Inactive)
REMARK    1  A    between atoms: O_1  and  N_2
REMARK    2  A    between atoms: C_8  and  C_9
REMARK    3  A    between atoms: N_11  and  C_12
REMARK    4  A    between atoms: C_19  and  C_20
REMARK                            x       y       z     vdW  Elec       q    Type
REMARK                         _______ _______ _______ _____ _____    ______ ____
ROOT
ATOM      1  C   UNL     1       0.906  11.394  18.995  0.00  0.00    +0.000 A 
ATOM      2  C   UNL     1       1.791  12.442  19.147  0.00  0.00    +0.000 A 
ATOM      3  N   UNL     1       1.147  13.566  18.719  0.00  0.00    +0.000 N 
ATOM      4  N   UNL     1      -0.124  13.329  18.355  0.00  0.00    +0.000 NA
ATOM      5  C   UNL     1      -0.300  12.009  18.526  0.00  0.00    +0.000 A 
ENDROOT
BRANCH   1  12
ATOM      6  N   UNL     1       2.155   5.218  20.900  0.00  0.00    +0.000 NA
ATOM      7  C   UNL     1       2.363   6.006  19.893  0.00  0.00    +0.000 C 
ATOM      8  C   UNL     1       3.067   5.669  18.599  0.00  0.00    +0.000 C 
ATOM      9  C   UNL     1       2.986   6.949  17.753  0.00  0.00    +0.000 C 
ATOM     10  C   UNL     1       2.284   7.930  18.636  0.00  0.00    +0.000 A 
ATOM     11  C   UNL     1       1.968   9.249  18.340  0.00  0.00    +0.000 A 
ATOM     12  C   UNL     1       1.257  10.010  19.285  0.00  0.00    +0.000 A 
ATOM     13  C   UNL     1       0.880   9.420  20.512  0.00  0.00    +0.000 A 
ATOM     14  C   UNL     1       1.229   8.103  20.819  0.00  0.00    +0.000 A 
ATOM     15  C   UNL     1       1.919   7.387  19.860  0.00  0.00    +0.000 A 
BRANCH   6  16
ATOM     16  O   UNL     1       2.683   3.948  20.643  0.00  0.00    +0.000 OA
ATOM     17  H   UNL     1       3.279   3.815  21.403  0.00  0.00    +0.000 HD
ENDBRANCH   6  16
ENDBRANCH   1  12
BRANCH   3  18
ATOM     18  C   UNL     1       1.688  14.927  18.731  0.00  0.00    +0.000 C 
ATOM     19  C   UNL     1       2.858  15.131  19.709  0.00  0.00    +0.000 C 
ATOM     20  C   UNL     1       2.377  15.176  21.160  0.00  0.00    +0.000 C 
ATOM     21  N   UNL     1       1.354  16.205  21.360  0.00  0.00    +0.000 NA
ATOM     22  C   UNL     1       0.203  15.990  20.485  0.00  0.00    +0.000 C 
ATOM     23  C   UNL     1       0.610  15.987  19.014  0.00  0.00    +0.000 C 
ATOM     24  H   UNL     1       1.757  17.123  21.182  0.00  0.00    +0.000 HD
ENDBRANCH   3  18
BRANCH   5  25
ATOM     25  C   UNL     1      -1.606  11.406  18.259  0.00  0.00    +0.000 A 
ATOM     26  C   UNL     1      -2.769  11.989  18.765  0.00  0.00    +0.000 A 
ATOM     27  C   UNL     1      -3.986  11.392  18.476  0.00  0.00    +0.000 A 
ATOM     28  N   UNL     1      -4.116  10.282  17.722  0.00  0.00    +0.000 NA
ATOM     29  C   UNL     1      -2.979   9.725  17.257  0.00  0.00    +0.000 A 
ATOM     30  C   UNL     1      -1.717  10.234  17.505  0.00  0.00    +0.000 A 
ENDBRANCH   5  25
TORSDOF 4
ENDMDL
