MODEL 1
REMARK VINA RESULT:      -4.9      0.000      0.000
REMARK  Name = 
REMARK  1 active torsions:
REMARK  status: ('A' for Active; 'I' for Inactive)
REMARK    1  A    between atoms: N_2  and  C_4
REMARK                            x       y       z     vdW  Elec       q    Type
REMARK                         _______ _______ _______ _____ _____    ______ ____
ROOT
ATOM      1  C   UNL     1       3.269   2.729  19.861  0.00  0.00    +0.000 A 
ATOM      2  C   UNL     1       2.627   2.344  18.676  0.00  0.00    +0.000 A 
ATOM      3  C   UNL     1       1.240   2.467  18.577  0.00  0.00    +0.000 A 
ATOM      4  C   UNL     1       0.504   2.971  19.652  0.00  0.00    +0.000 A 
ATOM      5  C   UNL     1       1.147   3.346  20.834  0.00  0.00    +0.000 A 
ATOM      6  C   UNL     1       2.533   3.226  20.945  0.00  0.00    +0.000 A 
ENDROOT
BRANCH   1   8
ATOM      7  O   UNL     1       5.415   3.493  19.412  0.00  0.00    +0.000 OA
ATOM      8  N   UNL     1       4.730   2.619  19.965  0.00  0.00    +0.000 N 
ATOM      9  O   UNL     1       5.194   1.664  20.601  0.00  0.00    +0.000 OA
ENDBRANCH   1   8
TORSDOF 1
ENDMDL
MODEL 2
REMARK VINA RESULT:      -4.9      0.203      1.054
REMARK  Name = 
REMARK  1 active torsions:
REMARK  status: ('A' for Active; 'I' for Inactive)
REMARK    1  A    between atoms: N_2  and  C_4
REMARK                            x       y       z     vdW  Elec       q    Type
REMARK                         _______ _______ _______ _____ _____    ______ ____
ROOT
ATOM      1  C   UNL     1       3.281   2.759  19.874  0.00  0.00    +0.000 A 
ATOM      2  C   UNL     1       2.644   2.666  18.629  0.00  0.00    +0.000 A 
ATOM      3  C   UNL     1       1.257   2.798  18.556  0.00  0.00    +0.000 A 
ATOM      4  C   UNL     1       0.513   3.022  19.717  0.00  0.00    +0.000 A 
ATOM      5  C   UNL     1       1.150   3.107  20.958  0.00  0.00    +0.000 A 
ATOM      6  C   UNL     1       2.537   2.974  21.043  0.00  0.00    +0.000 A 
ENDROOT
BRANCH   1   8
ATOM      7  O   UNL     1       5.208   1.672  20.576  0.00  0.00    +0.000 OA
ATOM      8  N   UNL     1       4.742   2.639  19.956  0.00  0.00    +0.000 N 
ATOM      9  O   UNL     1       5.425   3.509  19.399  0.00  0.00    +0.000 OA
ENDBRANCH   1   8
TORSDOF 1
ENDMDL
MODEL 3
REMARK VINA RESULT:      -4.9      0.522      1.888
REMARK  Name = 
REMARK  1 active torsions:
REMARK  status: ('A' for Active; 'I' for Inactive)
REMARK    1  A    between atoms: N_2  and  C_4
REMARK                            x       y       z     vdW  Elec       q    Type
REMARK                         _______ _______ _______ _____ _____    ______ ____
ROOT
ATOM      1  C   UNL     1       3.318   2.927  19.942  0.00  0.00    +0.000 A 
ATOM      2  C   UNL     1       2.594   2.790  21.134  0.00  0.00    +0.000 A 
ATOM      3  C   UNL     1       1.209   2.964  21.119  0.00  0.00    +0.000 A 
ATOM      4  C   UNL     1       0.556   3.271  19.924  0.00  0.00    +0.000 A 
ATOM      5  C   UNL     1       1.281   3.415  18.739  0.00  0.00    +0.000 A 
ATOM      6  C   UNL     1       2.667   3.244  18.742  0.00  0.00    +0.000 A 
ENDROOT
BRANCH   1   8
ATOM      7  O   UNL     1       5.215   1.721  20.522  0.00  0.00    +0.000 OA
ATOM      8  N   UNL     1       4.773   2.727  19.947  0.00  0.00    +0.000 N 
ATOM      9  O   UNL     1       5.475   3.572  19.375  0.00  0.00    +0.000 OA
ENDBRANCH   1   8
TORSDOF 1
ENDMDL
MODEL 4
REMARK VINA RESULT:      -4.8      4.147      4.897
REMARK  Name = 
REMARK  1 active torsions:
REMARK  status: ('A' for Active; 'I' for Inactive)
REMARK    1  A    between atoms: N_2  and  C_4
REMARK                            x       y       z     vdW  Elec       q    Type
REMARK                         _______ _______ _______ _____ _____    ______ ____
ROOT
ATOM      1  C   UNL     1       5.760   5.092  16.775  0.00  0.00    +0.000 A 
ATOM      2  C   UNL     1       5.265   6.331  17.204  0.00  0.00    +0.000 A 
ATOM      3  C   UNL     1       3.958   6.418  17.684  0.00  0.00    +0.000 A 
ATOM      4  C   UNL     1       3.154   5.277  17.735  0.00  0.00    +0.000 A 
ATOM      5  C   UNL     1       3.648   4.045  17.299  0.00  0.00    +0.000 A 
ATOM      6  C   UNL     1       4.954   3.947  16.816  0.00  0.00    +0.000 A 
ENDROOT
BRANCH   1   8
ATOM      7  O   UNL     1       7.957   4.374  16.988  0.00  0.00    +0.000 OA
ATOM      8  N   UNL     1       7.141   4.990  16.286  0.00  0.00    +0.000 N 
ATOM      9  O   UNL     1       7.411   5.521  15.200  0.00  0.00    +0.000 OA
ENDBRANCH   1   8
TORSDOF 1
ENDMDL
MODEL 5
REMARK VINA RESULT:      -4.8      4.092      4.706
REMARK  Name = 
REMARK  1 active torsions:
REMARK  status: ('A' for Active; 'I' for Inactive)
REMARK    1  A    between atoms: N_2  and  C_4
REMARK                            x       y       z     vdW  Elec       q    Type
REMARK                         _______ _______ _______ _____ _____    ______ ____
ROOT
ATOM      1  C   UNL     1       5.767   5.061  16.843  0.00  0.00    +0.000 A 
ATOM      2  C   UNL     1       4.950   3.923  16.795  0.00  0.00    +0.000 A 
ATOM      3  C   UNL     1       3.632   4.006  17.247  0.00  0.00    +0.000 A 
ATOM      4  C   UNL     1       3.136   5.214  17.740  0.00  0.00    +0.000 A 
ATOM      5  C   UNL     1       3.955   6.345  17.793  0.00  0.00    +0.000 A 
ATOM      6  C   UNL     1       5.276   6.273  17.345  0.00  0.00    +0.000 A 
ENDROOT
BRANCH   1   8
ATOM      7  O   UNL     1       7.972   4.362  17.038  0.00  0.00    +0.000 OA
ATOM      8  N   UNL     1       7.149   4.986  16.352  0.00  0.00    +0.000 N 
ATOM      9  O   UNL     1       7.413   5.548  15.280  0.00  0.00    +0.000 OA
ENDBRANCH   1   8
TORSDOF 1
ENDMDL
MODEL 6
REMARK VINA RESULT:      -4.7      3.602      4.548
REMARK  Name = 
REMARK  1 active torsions:
REMARK  status: ('A' for Active; 'I' for Inactive)
REMARK    1  A    between atoms: N_2  and  C_4
REMARK                            x       y       z     vdW  Elec       q    Type
REMARK                         _______ _______ _______ _____ _____    ______ ____
ROOT
ATOM      1  C   UNL     1       5.910   4.798  17.424  0.00  0.00    +0.000 A 
ATOM      2  C   UNL     1       5.698   5.259  18.730  0.00  0.00    +0.000 A 
ATOM      3  C   UNL     1       4.434   5.125  19.308  0.00  0.00    +0.000 A 
ATOM      4  C   UNL     1       3.394   4.535  18.587  0.00  0.00    +0.000 A 
ATOM      5  C   UNL     1       3.607   4.082  17.283  0.00  0.00    +0.000 A 
ATOM      6  C   UNL     1       4.866   4.213  16.694  0.00  0.00    +0.000 A 
ENDROOT
BRANCH   1   8
ATOM      7  O   UNL     1       8.145   4.193  17.258  0.00  0.00    +0.000 OA
ATOM      8  N   UNL     1       7.241   4.918  16.817  0.00  0.00    +0.000 N 
ATOM      9  O   UNL     1       7.385   5.735  15.897  0.00  0.00    +0.000 OA
ENDBRANCH   1   8
TORSDOF 1
ENDMDL
MODEL 7
REMARK VINA RESULT:      -4.7      3.640      4.479
REMARK  Name = 
REMARK  1 active torsions:
REMARK  status: ('A' for Active; 'I' for Inactive)
REMARK    1  A    between atoms: N_2  and  C_4
REMARK                            x       y       z     vdW  Elec       q    Type
REMARK                         _______ _______ _______ _____ _____    ______ ____
ROOT
ATOM      1  C   UNL     1       5.918   4.767  17.353  0.00  0.00    +0.000 A 
ATOM      2  C   UNL     1       5.753   5.266  18.653  0.00  0.00    +0.000 A 
ATOM      3  C   UNL     1       4.504   5.173  19.269  0.00  0.00    +0.000 A 
ATOM      4  C   UNL     1       3.432   4.586  18.593  0.00  0.00    +0.000 A 
ATOM      5  C   UNL     1       3.598   4.096  17.296  0.00  0.00    +0.000 A 
ATOM      6  C   UNL     1       4.843   4.185  16.669  0.00  0.00    +0.000 A 
ENDROOT
BRANCH   1   8
ATOM      7  O   UNL     1       7.338   5.553  15.694  0.00  0.00    +0.000 OA
ATOM      8  N   UNL     1       7.234   4.844  16.706  0.00  0.00    +0.000 N 
ATOM      9  O   UNL     1       8.164   4.199  17.208  0.00  0.00    +0.000 OA
ENDBRANCH   1   8
TORSDOF 1
ENDMDL
MODEL 8
REMARK VINA RESULT:      -4.7      4.084      4.752
REMARK  Name = 
REMARK  1 active torsions:
REMARK  status: ('A' for Active; 'I' for Inactive)
REMARK    1  A    between atoms: N_2  and  C_4
REMARK                            x       y       z     vdW  Elec       q    Type
REMARK                         _______ _______ _______ _____ _____    ______ ____
ROOT
ATOM      1  C   UNL     1       5.723   5.331  17.006  0.00  0.00    +0.000 A 
ATOM      2  C   UNL     1       5.007   6.444  17.468  0.00  0.00    +0.000 A 
ATOM      3  C   UNL     1       3.664   6.298  17.818  0.00  0.00    +0.000 A 
ATOM      4  C   UNL     1       3.044   5.051  17.709  0.00  0.00    +0.000 A 
ATOM      5  C   UNL     1       3.758   3.946  17.241  0.00  0.00    +0.000 A 
ATOM      6  C   UNL     1       5.102   4.081  16.887  0.00  0.00    +0.000 A 
ENDROOT
BRANCH   1   8
ATOM      7  O   UNL     1       7.562   6.612  16.402  0.00  0.00    +0.000 OA
ATOM      8  N   UNL     1       7.142   5.473  16.654  0.00  0.00    +0.000 N 
ATOM      9  O   UNL     1       7.837   4.449  16.632  0.00  0.00    +0.000 OA
ENDBRANCH   1   8
TORSDOF 1
ENDMDL
MODEL 9
REMARK VINA RESULT:      -4.7      4.063      4.572
REMARK  Name = 
REMARK  1 active torsions:
REMARK  status: ('A' for Active; 'I' for Inactive)
REMARK    1  A    between atoms: N_2  and  C_4
REMARK                            x       y       z     vdW  Elec       q    Type
REMARK                         _______ _______ _______ _____ _____    ______ ____
ROOT
ATOM      1  C   UNL     1       5.729   5.306  17.038  0.00  0.00    +0.000 A 
ATOM      2  C   UNL     1       5.109   4.054  16.929  0.00  0.00    +0.000 A 
ATOM      3  C   UNL     1       3.761   3.924  17.265  0.00  0.00    +0.000 A 
ATOM      4  C   UNL     1       3.039   5.035  17.704  0.00  0.00    +0.000 A 
ATOM      5  C   UNL     1       3.661   6.281  17.819  0.00  0.00    +0.000 A 
ATOM      6  C   UNL     1       5.010   6.422  17.487  0.00  0.00    +0.000 A 
ENDROOT
BRANCH   1   8
ATOM      7  O   UNL     1       7.552   6.593  16.398  0.00  0.00    +0.000 OA
ATOM      8  N   UNL     1       7.142   5.454  16.668  0.00  0.00    +0.000 N 
ATOM      9  O   UNL     1       7.844   4.434  16.648  0.00  0.00    +0.000 OA
ENDBRANCH   1   8
TORSDOF 1
ENDMDL
