MODEL 1
REMARK VINA RESULT:      -7.4      0.000      0.000
REMARK  Name = 
REMARK  8 active torsions:
REMARK  status: ('A' for Active; 'I' for Inactive)
REMARK    1  A    between atoms: C_1  and  O_2
REMARK    2  A    between atoms: O_2  and  C_3
REMARK    3  A    between atoms: C_3  and  C_4
REMARK    4  A    between atoms: C_4  and  C_5
REMARK    5  A    between atoms: C_4  and  N_6
REMARK    6  A    between atoms: C_7  and  C_9
REMARK    7  A    between atoms: C_9  and  C_17
REMARK    8  A    between atoms: C_10  and  C_11
REMARK                            x       y       z     vdW  Elec       q    Type
REMARK                         _______ _______ _______ _____ _____    ______ ____
ROOT
ATOM      1  C   UNL     1       5.584   4.604  15.762  0.00  0.00    +0.000 C 
ATOM      2  C   UNL     1       4.392   4.147  16.219  0.00  0.00    +0.000 C 
ENDROOT
BRANCH   2   3
ATOM      3  C   UNL     1       3.820   4.339  17.567  0.00  0.00    +0.000 A 
ATOM      4  C   UNL     1       3.948   3.334  18.532  0.00  0.00    +0.000 A 
ATOM      5  C   UNL     1       3.494   3.542  19.843  0.00  0.00    +0.000 A 
ATOM      6  C   UNL     1       2.920   4.759  20.198  0.00  0.00    +0.000 A 
ATOM      7  C   UNL     1       2.771   5.762  19.239  0.00  0.00    +0.000 A 
ATOM      8  C   UNL     1       3.211   5.550  17.926  0.00  0.00    +0.000 A 
ENDBRANCH   2   3
BRANCH   1   9
ATOM      9  C   UNL     1       6.500   5.315  16.694  0.00  0.00    +0.000 A 
ATOM     10  C   UNL     1       7.262   4.613  17.638  0.00  0.00    +0.000 A 
ATOM     11  C   UNL     1       7.989   5.305  18.615  0.00  0.00    +0.000 A 
ATOM     12  C   UNL     1       7.983   6.698  18.634  0.00  0.00    +0.000 A 
ATOM     13  C   UNL     1       7.276   7.402  17.661  0.00  0.00    +0.000 A 
ATOM     14  C   UNL     1       6.537   6.714  16.695  0.00  0.00    +0.000 A 
ENDBRANCH   1   9
BRANCH   1  16
ATOM     15  N   UNL     1       5.193   3.658  13.504  0.00  0.00    +0.000 N 
ATOM     16  C   UNL     1       6.038   4.364  14.336  0.00  0.00    +0.000 C 
ATOM     17  O   UNL     1       7.105   4.828  13.935  0.00  0.00    +0.000 OA
ATOM     18  H   UNL     1       4.309   3.312  13.846  0.00  0.00    +0.000 HD
BRANCH  15  19
ATOM     19  C   UNL     1       5.521   3.415  12.087  0.00  0.00    +0.000 C 
ATOM     20  C   UNL     1       4.243   3.293  11.251  0.00  0.00    +0.000 C 
BRANCH  19  21
ATOM     21  C   UNL     1       6.410   2.166  11.901  0.00  0.00    +0.000 C 
BRANCH  21  23
ATOM     22  C   UNL     1       6.173  -0.120  11.338  0.00  0.00    +0.000 C 
ATOM     23  O   UNL     1       5.745   1.209  11.069  0.00  0.00    +0.000 OA
ENDBRANCH  21  23
ENDBRANCH  19  21
ENDBRANCH  15  19
ENDBRANCH   1  16
TORSDOF 6
ENDMDL
MODEL 2
REMARK VINA RESULT:      -7.2      0.373      1.497
REMARK  Name = 
REMARK  8 active torsions:
REMARK  status: ('A' for Active; 'I' for Inactive)
REMARK    1  A    between atoms: C_1  and  O_2
REMARK    2  A    between atoms: O_2  and  C_3
REMARK    3  A    between atoms: C_3  and  C_4
REMARK    4  A    between atoms: C_4  and  C_5
REMARK    5  A    between atoms: C_4  and  N_6
REMARK    6  A    between atoms: C_7  and  C_9
REMARK    7  A    between atoms: C_9  and  C_17
REMARK    8  A    between atoms: C_10  and  C_11
REMARK                            x       y       z     vdW  Elec       q    Type
REMARK                         _______ _______ _______ _____ _____    ______ ____
ROOT
ATOM      1  C   UNL     1       5.433   4.602  15.920  0.00  0.00    +0.000 C 
ATOM      2  C   UNL     1       4.309   3.982  16.356  0.00  0.00    +0.000 C 
ENDROOT
BRANCH   2   3
ATOM      3  C   UNL     1       3.707   4.066  17.702  0.00  0.00    +0.000 A 
ATOM      4  C   UNL     1       2.844   5.120  18.020  0.00  0.00    +0.000 A 
ATOM      5  C   UNL     1       2.192   5.160  19.261  0.00  0.00    +0.000 A 
ATOM      6  C   UNL     1       2.391   4.140  20.187  0.00  0.00    +0.000 A 
ATOM      7  C   UNL     1       3.263   3.092  19.888  0.00  0.00    +0.000 A 
ATOM      8  C   UNL     1       3.926   3.060  18.654  0.00  0.00    +0.000 A 
ENDBRANCH   2   3
BRANCH   1   9
ATOM      9  C   UNL     1       6.240   5.406  16.876  0.00  0.00    +0.000 A 
ATOM     10  C   UNL     1       6.253   6.807  16.816  0.00  0.00    +0.000 A 
ATOM     11  C   UNL     1       7.143   7.540  17.610  0.00  0.00    +0.000 A 
ATOM     12  C   UNL     1       8.000   6.882  18.489  0.00  0.00    +0.000 A 
ATOM     13  C   UNL     1       7.950   5.493  18.597  0.00  0.00    +0.000 A 
ATOM     14  C   UNL     1       7.074   4.758  17.795  0.00  0.00    +0.000 A 
ENDBRANCH   1   9
BRANCH   1  16
ATOM     15  N   UNL     1       5.176   3.677  13.635  0.00  0.00    +0.000 N 
ATOM     16  C   UNL     1       5.924   4.456  14.495  0.00  0.00    +0.000 C 
ATOM     17  O   UNL     1       6.932   5.054  14.118  0.00  0.00    +0.000 OA
ATOM     18  H   UNL     1       4.337   3.219  13.958  0.00  0.00    +0.000 HD
BRANCH  15  19
ATOM     19  C   UNL     1       5.543   3.512  12.216  0.00  0.00    +0.000 C 
ATOM     20  C   UNL     1       4.289   3.358  11.349  0.00  0.00    +0.000 C 
BRANCH  19  21
ATOM     21  C   UNL     1       6.501   2.321  11.996  0.00  0.00    +0.000 C 
BRANCH  21  23
ATOM     22  C   UNL     1       6.220   0.067  11.335  0.00  0.00    +0.000 C 
ATOM     23  O   UNL     1       5.959   1.428  11.017  0.00  0.00    +0.000 OA
ENDBRANCH  21  23
ENDBRANCH  19  21
ENDBRANCH  15  19
ENDBRANCH   1  16
TORSDOF 6
ENDMDL
MODEL 3
REMARK VINA RESULT:      -7.2      0.295      1.070
REMARK  Name = 
REMARK  8 active torsions:
REMARK  status: ('A' for Active; 'I' for Inactive)
REMARK    1  A    between atoms: C_1  and  O_2
REMARK    2  A    between atoms: O_2  and  C_3
REMARK    3  A    between atoms: C_3  and  C_4
REMARK    4  A    between atoms: C_4  and  C_5
REMARK    5  A    between atoms: C_4  and  N_6
REMARK    6  A    between atoms: C_7  and  C_9
REMARK    7  A    between atoms: C_9  and  C_17
REMARK    8  A    between atoms: C_10  and  C_11
REMARK                            x       y       z     vdW  Elec       q    Type
REMARK                         _______ _______ _______ _____ _____    ______ ____
ROOT
ATOM      1  C   UNL     1       5.407   4.689  15.909  0.00  0.00    +0.000 C 
ATOM      2  C   UNL     1       4.245   4.126  16.325  0.00  0.00    +0.000 C 
ENDROOT
BRANCH   2   3
ATOM      3  C   UNL     1       3.621   4.248  17.658  0.00  0.00    +0.000 A 
ATOM      4  C   UNL     1       3.812   3.247  18.616  0.00  0.00    +0.000 A 
ATOM      5  C   UNL     1       3.305   3.397  19.916  0.00  0.00    +0.000 A 
ATOM      6  C   UNL     1       2.615   4.553  20.267  0.00  0.00    +0.000 A 
ATOM      7  C   UNL     1       2.404   5.552  19.315  0.00  0.00    +0.000 A 
ATOM      8  C   UNL     1       2.897   5.396  18.013  0.00  0.00    +0.000 A 
ENDBRANCH   2   3
BRANCH   1   9
ATOM      9  C   UNL     1       6.232   5.460  16.876  0.00  0.00    +0.000 A 
ATOM     10  C   UNL     1       6.313   6.858  16.809  0.00  0.00    +0.000 A 
ATOM     11  C   UNL     1       7.221   7.553  17.617  0.00  0.00    +0.000 A 
ATOM     12  C   UNL     1       8.029   6.860  18.516  0.00  0.00    +0.000 A 
ATOM     13  C   UNL     1       7.911   5.477  18.631  0.00  0.00    +0.000 A 
ATOM     14  C   UNL     1       7.017   4.778  17.815  0.00  0.00    +0.000 A 
ENDBRANCH   1   9
BRANCH   1  16
ATOM     15  N   UNL     1       5.170   3.731  13.634  0.00  0.00    +0.000 N 
ATOM     16  C   UNL     1       5.919   4.509  14.495  0.00  0.00    +0.000 C 
ATOM     17  O   UNL     1       6.945   5.080  14.126  0.00  0.00    +0.000 OA
ATOM     18  H   UNL     1       4.316   3.296  13.950  0.00  0.00    +0.000 HD
BRANCH  15  19
ATOM     19  C   UNL     1       5.557   3.536  12.225  0.00  0.00    +0.000 C 
ATOM     20  C   UNL     1       4.319   3.309  11.352  0.00  0.00    +0.000 C 
BRANCH  19  21
ATOM     21  C   UNL     1       6.560   2.374  12.052  0.00  0.00    +0.000 C 
BRANCH  21  23
ATOM     22  C   UNL     1       6.157   0.180  11.266  0.00  0.00    +0.000 C 
ATOM     23  O   UNL     1       6.183   1.562  10.935  0.00  0.00    +0.000 OA
ENDBRANCH  21  23
ENDBRANCH  19  21
ENDBRANCH  15  19
ENDBRANCH   1  16
TORSDOF 6
ENDMDL
MODEL 4
REMARK VINA RESULT:      -7.1      1.036      2.025
REMARK  Name = 
REMARK  8 active torsions:
REMARK  status: ('A' for Active; 'I' for Inactive)
REMARK    1  A    between atoms: C_1  and  O_2
REMARK    2  A    between atoms: O_2  and  C_3
REMARK    3  A    between atoms: C_3  and  C_4
REMARK    4  A    between atoms: C_4  and  C_5
REMARK    5  A    between atoms: C_4  and  N_6
REMARK    6  A    between atoms: C_7  and  C_9
REMARK    7  A    between atoms: C_9  and  C_17
REMARK    8  A    between atoms: C_10  and  C_11
REMARK                            x       y       z     vdW  Elec       q    Type
REMARK                         _______ _______ _______ _____ _____    ______ ____
ROOT
ATOM      1  C   UNL     1       5.985   4.777  16.055  0.00  0.00    +0.000 C 
ATOM      2  C   UNL     1       4.788   4.224  16.371  0.00  0.00    +0.000 C 
ENDROOT
BRANCH   2   3
ATOM      3  C   UNL     1       4.011   4.426  17.611  0.00  0.00    +0.000 A 
ATOM      4  C   UNL     1       3.230   5.576  17.769  0.00  0.00    +0.000 A 
ATOM      5  C   UNL     1       2.414   5.734  18.899  0.00  0.00    +0.000 A 
ATOM      6  C   UNL     1       2.367   4.739  19.871  0.00  0.00    +0.000 A 
ATOM      7  C   UNL     1       3.155   3.595  19.732  0.00  0.00    +0.000 A 
ATOM      8  C   UNL     1       3.981   3.444  18.611  0.00  0.00    +0.000 A 
ENDBRANCH   2   3
BRANCH   1   9
ATOM      9  C   UNL     1       6.685   5.626  17.055  0.00  0.00    +0.000 A 
ATOM     10  C   UNL     1       6.809   7.010  16.874  0.00  0.00    +0.000 A 
ATOM     11  C   UNL     1       7.611   7.768  17.735  0.00  0.00    +0.000 A 
ATOM     12  C   UNL     1       8.266   7.153  18.801  0.00  0.00    +0.000 A 
ATOM     13  C   UNL     1       8.099   5.788  19.022  0.00  0.00    +0.000 A 
ATOM     14  C   UNL     1       7.312   5.027  18.154  0.00  0.00    +0.000 A 
ENDBRANCH   1   9
BRANCH   1  16
ATOM     15  N   UNL     1       6.039   3.641  13.852  0.00  0.00    +0.000 N 
ATOM     16  C   UNL     1       6.661   4.511  14.725  0.00  0.00    +0.000 C 
ATOM     17  O   UNL     1       7.705   5.092  14.428  0.00  0.00    +0.000 OA
ATOM     18  H   UNL     1       5.169   3.197  14.104  0.00  0.00    +0.000 HD
BRANCH  15  19
ATOM     19  C   UNL     1       6.591   3.354  12.515  0.00  0.00    +0.000 C 
ATOM     20  C   UNL     1       7.141   4.632  11.873  0.00  0.00    +0.000 C 
BRANCH  19  21
ATOM     21  C   UNL     1       5.552   2.688  11.586  0.00  0.00    +0.000 C 
BRANCH  21  23
ATOM     22  C   UNL     1       3.466   3.187  10.588  0.00  0.00    +0.000 C 
ATOM     23  O   UNL     1       4.274   3.310  11.752  0.00  0.00    +0.000 OA
ENDBRANCH  21  23
ENDBRANCH  19  21
ENDBRANCH  15  19
ENDBRANCH   1  16
TORSDOF 6
ENDMDL
MODEL 5
REMARK VINA RESULT:      -7.1      1.060      1.447
REMARK  Name = 
REMARK  8 active torsions:
REMARK  status: ('A' for Active; 'I' for Inactive)
REMARK    1  A    between atoms: C_1  and  O_2
REMARK    2  A    between atoms: O_2  and  C_3
REMARK    3  A    between atoms: C_3  and  C_4
REMARK    4  A    between atoms: C_4  and  C_5
REMARK    5  A    between atoms: C_4  and  N_6
REMARK    6  A    between atoms: C_7  and  C_9
REMARK    7  A    between atoms: C_9  and  C_17
REMARK    8  A    between atoms: C_10  and  C_11
REMARK                            x       y       z     vdW  Elec       q    Type
REMARK                         _______ _______ _______ _____ _____    ______ ____
ROOT
ATOM      1  C   UNL     1       6.088   4.770  15.922  0.00  0.00    +0.000 C 
ATOM      2  C   UNL     1       4.827   4.391  16.247  0.00  0.00    +0.000 C 
ENDROOT
BRANCH   2   3
ATOM      3  C   UNL     1       4.091   4.710  17.488  0.00  0.00    +0.000 A 
ATOM      4  C   UNL     1       3.971   3.751  18.498  0.00  0.00    +0.000 A 
ATOM      5  C   UNL     1       3.359   4.072  19.719  0.00  0.00    +0.000 A 
ATOM      6  C   UNL     1       2.873   5.357  19.938  0.00  0.00    +0.000 A 
ATOM      7  C   UNL     1       2.971   6.319  18.932  0.00  0.00    +0.000 A 
ATOM      8  C   UNL     1       3.570   5.994  17.707  0.00  0.00    +0.000 A 
ENDBRANCH   2   3
BRANCH   1   9
ATOM      9  C   UNL     1       6.903   5.523  16.913  0.00  0.00    +0.000 A 
ATOM     10  C   UNL     1       7.455   4.886  18.033  0.00  0.00    +0.000 A 
ATOM     11  C   UNL     1       8.075   5.637  19.038  0.00  0.00    +0.000 A 
ATOM     12  C   UNL     1       8.176   7.021  18.916  0.00  0.00    +0.000 A 
ATOM     13  C   UNL     1       7.682   7.654  17.777  0.00  0.00    +0.000 A 
ATOM     14  C   UNL     1       7.048   6.909  16.779  0.00  0.00    +0.000 A 
ENDBRANCH   1   9
BRANCH   1  16
ATOM     15  N   UNL     1       5.982   3.604  13.737  0.00  0.00    +0.000 N 
ATOM     16  C   UNL     1       6.715   4.401  14.593  0.00  0.00    +0.000 C 
ATOM     17  O   UNL     1       7.822   4.841  14.282  0.00  0.00    +0.000 OA
ATOM     18  H   UNL     1       5.064   3.278  14.001  0.00  0.00    +0.000 HD
BRANCH  15  19
ATOM     19  C   UNL     1       6.483   3.230  12.402  0.00  0.00    +0.000 C 
ATOM     20  C   UNL     1       7.079   4.448  11.689  0.00  0.00    +0.000 C 
BRANCH  19  21
ATOM     21  C   UNL     1       5.387   2.578  11.530  0.00  0.00    +0.000 C 
BRANCH  21  23
ATOM     22  C   UNL     1       3.483   3.478  10.451  0.00  0.00    +0.000 C 
ATOM     23  O   UNL     1       4.149   3.277  11.692  0.00  0.00    +0.000 OA
ENDBRANCH  21  23
ENDBRANCH  19  21
ENDBRANCH  15  19
ENDBRANCH   1  16
TORSDOF 6
ENDMDL
MODEL 6
REMARK VINA RESULT:      -7.1      0.991      1.741
REMARK  Name = 
REMARK  8 active torsions:
REMARK  status: ('A' for Active; 'I' for Inactive)
REMARK    1  A    between atoms: C_1  and  O_2
REMARK    2  A    between atoms: O_2  and  C_3
REMARK    3  A    between atoms: C_3  and  C_4
REMARK    4  A    between atoms: C_4  and  C_5
REMARK    5  A    between atoms: C_4  and  N_6
REMARK    6  A    between atoms: C_7  and  C_9
REMARK    7  A    between atoms: C_9  and  C_17
REMARK    8  A    between atoms: C_10  and  C_11
REMARK                            x       y       z     vdW  Elec       q    Type
REMARK                         _______ _______ _______ _____ _____    ______ ____
ROOT
ATOM      1  C   UNL     1       5.922   4.797  16.002  0.00  0.00    +0.000 C 
ATOM      2  C   UNL     1       4.704   4.279  16.297  0.00  0.00    +0.000 C 
ENDROOT
BRANCH   2   3
ATOM      3  C   UNL     1       3.907   4.513  17.519  0.00  0.00    +0.000 A 
ATOM      4  C   UNL     1       3.894   3.559  18.542  0.00  0.00    +0.000 A 
ATOM      5  C   UNL     1       3.220   3.811  19.745  0.00  0.00    +0.000 A 
ATOM      6  C   UNL     1       2.564   5.024  19.936  0.00  0.00    +0.000 A 
ATOM      7  C   UNL     1       2.555   5.977  18.918  0.00  0.00    +0.000 A 
ATOM      8  C   UNL     1       3.216   5.719  17.709  0.00  0.00    +0.000 A 
ENDBRANCH   2   3
BRANCH   1   9
ATOM      9  C   UNL     1       6.623   5.636  17.010  0.00  0.00    +0.000 A 
ATOM     10  C   UNL     1       6.768   7.019  16.830  0.00  0.00    +0.000 A 
ATOM     11  C   UNL     1       7.572   7.765  17.700  0.00  0.00    +0.000 A 
ATOM     12  C   UNL     1       8.208   7.141  18.771  0.00  0.00    +0.000 A 
ATOM     13  C   UNL     1       8.020   5.778  18.991  0.00  0.00    +0.000 A 
ATOM     14  C   UNL     1       7.231   5.028  18.115  0.00  0.00    +0.000 A 
ENDBRANCH   1   9
BRANCH   1  16
ATOM     15  N   UNL     1       5.985   3.651  13.804  0.00  0.00    +0.000 N 
ATOM     16  C   UNL     1       6.618   4.501  14.689  0.00  0.00    +0.000 C 
ATOM     17  O   UNL     1       7.689   5.041  14.415  0.00  0.00    +0.000 OA
ATOM     18  H   UNL     1       5.092   3.242  14.037  0.00  0.00    +0.000 HD
BRANCH  15  19
ATOM     19  C   UNL     1       6.556   3.340  12.481  0.00  0.00    +0.000 C 
ATOM     20  C   UNL     1       7.055   4.615  11.795  0.00  0.00    +0.000 C 
BRANCH  19  21
ATOM     21  C   UNL     1       5.552   2.595  11.573  0.00  0.00    +0.000 C 
BRANCH  21  23
ATOM     22  C   UNL     1       3.645   3.576  10.575  0.00  0.00    +0.000 C 
ATOM     23  O   UNL     1       4.230   3.104  11.782  0.00  0.00    +0.000 OA
ENDBRANCH  21  23
ENDBRANCH  19  21
ENDBRANCH  15  19
ENDBRANCH   1  16
TORSDOF 6
ENDMDL
MODEL 7
REMARK VINA RESULT:      -7.0      4.280      8.124
REMARK  Name = 
REMARK  8 active torsions:
REMARK  status: ('A' for Active; 'I' for Inactive)
REMARK    1  A    between atoms: C_1  and  O_2
REMARK    2  A    between atoms: O_2  and  C_3
REMARK    3  A    between atoms: C_3  and  C_4
REMARK    4  A    between atoms: C_4  and  C_5
REMARK    5  A    between atoms: C_4  and  N_6
REMARK    6  A    between atoms: C_7  and  C_9
REMARK    7  A    between atoms: C_9  and  C_17
REMARK    8  A    between atoms: C_10  and  C_11
REMARK                            x       y       z     vdW  Elec       q    Type
REMARK                         _______ _______ _______ _____ _____    ______ ____
ROOT
ATOM      1  C   UNL     1       3.202   5.779  18.924  0.00  0.00    +0.000 C 
ATOM      2  C   UNL     1       4.181   6.427  18.246  0.00  0.00    +0.000 C 
ENDROOT
BRANCH   2   3
ATOM      3  C   UNL     1       5.182   5.832  17.337  0.00  0.00    +0.000 A 
ATOM      4  C   UNL     1       4.960   5.828  15.956  0.00  0.00    +0.000 A 
ATOM      5  C   UNL     1       5.945   5.353  15.077  0.00  0.00    +0.000 A 
ATOM      6  C   UNL     1       7.159   4.890  15.573  0.00  0.00    +0.000 A 
ATOM      7  C   UNL     1       7.386   4.874  16.950  0.00  0.00    +0.000 A 
ATOM      8  C   UNL     1       6.397   5.335  17.830  0.00  0.00    +0.000 A 
ENDBRANCH   2   3
BRANCH   1   9
ATOM      9  C   UNL     1       3.123   4.296  18.852  0.00  0.00    +0.000 A 
ATOM     10  C   UNL     1       3.889   3.485  19.702  0.00  0.00    +0.000 A 
ATOM     11  C   UNL     1       3.930   2.099  19.510  0.00  0.00    +0.000 A 
ATOM     12  C   UNL     1       3.182   1.513  18.491  0.00  0.00    +0.000 A 
ATOM     13  C   UNL     1       2.371   2.306  17.681  0.00  0.00    +0.000 A 
ATOM     14  C   UNL     1       2.341   3.691  17.860  0.00  0.00    +0.000 A 
ENDBRANCH   1   9
BRANCH   1  16
ATOM     15  N   UNL     1       2.068   7.877  19.600  0.00  0.00    +0.000 N 
ATOM     16  C   UNL     1       2.214   6.519  19.802  0.00  0.00    +0.000 C 
ATOM     17  O   UNL     1       1.539   5.911  20.632  0.00  0.00    +0.000 OA
ATOM     18  H   UNL     1       2.611   8.351  18.894  0.00  0.00    +0.000 HD
BRANCH  15  19
ATOM     19  C   UNL     1       1.097   8.678  20.368  0.00  0.00    +0.000 C 
ATOM     20  C   UNL     1       0.832  10.017  19.673  0.00  0.00    +0.000 C 
BRANCH  19  21
ATOM     21  C   UNL     1       1.554   8.907  21.825  0.00  0.00    +0.000 C 
BRANCH  21  23
ATOM     22  C   UNL     1      -0.195   9.642  23.239  0.00  0.00    +0.000 C 
ATOM     23  O   UNL     1       0.871  10.035  22.383  0.00  0.00    +0.000 OA
ENDBRANCH  21  23
ENDBRANCH  19  21
ENDBRANCH  15  19
ENDBRANCH   1  16
TORSDOF 6
ENDMDL
MODEL 8
REMARK VINA RESULT:      -7.0      4.358      8.006
REMARK  Name = 
REMARK  8 active torsions:
REMARK  status: ('A' for Active; 'I' for Inactive)
REMARK    1  A    between atoms: C_1  and  O_2
REMARK    2  A    between atoms: O_2  and  C_3
REMARK    3  A    between atoms: C_3  and  C_4
REMARK    4  A    between atoms: C_4  and  C_5
REMARK    5  A    between atoms: C_4  and  N_6
REMARK    6  A    between atoms: C_7  and  C_9
REMARK    7  A    between atoms: C_9  and  C_17
REMARK    8  A    between atoms: C_10  and  C_11
REMARK                            x       y       z     vdW  Elec       q    Type
REMARK                         _______ _______ _______ _____ _____    ______ ____
ROOT
ATOM      1  C   UNL     1       3.016   7.346  18.023  0.00  0.00    +0.000 C 
ATOM      2  C   UNL     1       4.209   7.413  17.382  0.00  0.00    +0.000 C 
ENDROOT
BRANCH   2   3
ATOM      3  C   UNL     1       5.136   6.297  17.103  0.00  0.00    +0.000 A 
ATOM      4  C   UNL     1       5.127   5.674  15.851  0.00  0.00    +0.000 A 
ATOM      5  C   UNL     1       6.066   4.679  15.542  0.00  0.00    +0.000 A 
ATOM      6  C   UNL     1       7.025   4.309  16.480  0.00  0.00    +0.000 A 
ATOM      7  C   UNL     1       7.033   4.911  17.739  0.00  0.00    +0.000 A 
ATOM      8  C   UNL     1       6.086   5.894  18.053  0.00  0.00    +0.000 A 
ENDBRANCH   2   3
BRANCH   1   9
ATOM      9  C   UNL     1       2.571   6.052  18.605  0.00  0.00    +0.000 A 
ATOM     10  C   UNL     1       1.925   5.087  17.821  0.00  0.00    +0.000 A 
ATOM     11  C   UNL     1       1.365   3.951  18.416  0.00  0.00    +0.000 A 
ATOM     12  C   UNL     1       1.475   3.756  19.792  0.00  0.00    +0.000 A 
ATOM     13  C   UNL     1       2.168   4.682  20.569  0.00  0.00    +0.000 A 
ATOM     14  C   UNL     1       2.714   5.825  19.980  0.00  0.00    +0.000 A 
ENDBRANCH   1   9
BRANCH   1  16
ATOM     15  N   UNL     1       1.552   8.750  19.448  0.00  0.00    +0.000 N 
ATOM     16  C   UNL     1       2.143   8.570  18.214  0.00  0.00    +0.000 C 
ATOM     17  O   UNL     1       2.011   9.389  17.305  0.00  0.00    +0.000 OA
ATOM     18  H   UNL     1       1.697   8.080  20.189  0.00  0.00    +0.000 HD
BRANCH  15  19
ATOM     19  C   UNL     1       0.725   9.933  19.749  0.00  0.00    +0.000 C 
ATOM     20  C   UNL     1       0.782  10.266  21.243  0.00  0.00    +0.000 C 
BRANCH  19  21
ATOM     21  C   UNL     1      -0.740   9.752  19.292  0.00  0.00    +0.000 C 
BRANCH  21  23
ATOM     22  C   UNL     1      -1.110  11.909  18.395  0.00  0.00    +0.000 C 
ATOM     23  O   UNL     1      -0.985  10.522  18.111  0.00  0.00    +0.000 OA
ENDBRANCH  21  23
ENDBRANCH  19  21
ENDBRANCH  15  19
ENDBRANCH   1  16
TORSDOF 6
ENDMDL
MODEL 9
REMARK VINA RESULT:      -7.0      4.284      7.842
REMARK  Name = 
REMARK  8 active torsions:
REMARK  status: ('A' for Active; 'I' for Inactive)
REMARK    1  A    between atoms: C_1  and  O_2
REMARK    2  A    between atoms: O_2  and  C_3
REMARK    3  A    between atoms: C_3  and  C_4
REMARK    4  A    between atoms: C_4  and  C_5
REMARK    5  A    between atoms: C_4  and  N_6
REMARK    6  A    between atoms: C_7  and  C_9
REMARK    7  A    between atoms: C_9  and  C_17
REMARK    8  A    between atoms: C_10  and  C_11
REMARK                            x       y       z     vdW  Elec       q    Type
REMARK                         _______ _______ _______ _____ _____    ______ ____
ROOT
ATOM      1  C   UNL     1       3.084   6.714  18.476  0.00  0.00    +0.000 C 
ATOM      2  C   UNL     1       4.214   7.023  17.794  0.00  0.00    +0.000 C 
ENDROOT
BRANCH   2   3
ATOM      3  C   UNL     1       5.157   6.083  17.154  0.00  0.00    +0.000 A 
ATOM      4  C   UNL     1       5.001   5.742  15.807  0.00  0.00    +0.000 A 
ATOM      5  C   UNL     1       5.943   4.926  15.163  0.00  0.00    +0.000 A 
ATOM      6  C   UNL     1       7.051   4.456  15.861  0.00  0.00    +0.000 A 
ATOM      7  C   UNL     1       7.209   4.776  17.210  0.00  0.00    +0.000 A 
ATOM      8  C   UNL     1       6.260   5.578  17.858  0.00  0.00    +0.000 A 
ENDBRANCH   2   3
BRANCH   1   9
ATOM      9  C   UNL     1       2.740   5.286  18.711  0.00  0.00    +0.000 A 
ATOM     10  C   UNL     1       3.295   4.572  19.782  0.00  0.00    +0.000 A 
ATOM     11  C   UNL     1       3.093   3.191  19.891  0.00  0.00    +0.000 A 
ATOM     12  C   UNL     1       2.312   2.522  18.951  0.00  0.00    +0.000 A 
ATOM     13  C   UNL     1       1.709   3.236  17.918  0.00  0.00    +0.000 A 
ATOM     14  C   UNL     1       1.921   4.612  17.797  0.00  0.00    +0.000 A 
ENDBRANCH   1   9
BRANCH   1  16
ATOM     15  N   UNL     1       1.760   8.793  18.214  0.00  0.00    +0.000 N 
ATOM     16  C   UNL     1       2.183   7.785  19.056  0.00  0.00    +0.000 C 
ATOM     17  O   UNL     1       1.812   7.720  20.228  0.00  0.00    +0.000 OA
ATOM     18  H   UNL     1       2.053   8.811  17.248  0.00  0.00    +0.000 HD
BRANCH  15  19
ATOM     19  C   UNL     1       0.842   9.853  18.670  0.00  0.00    +0.000 C 
ATOM     20  C   UNL     1      -0.443   9.850  17.835  0.00  0.00    +0.000 C 
BRANCH  19  21
ATOM     21  C   UNL     1       1.503  11.250  18.638  0.00  0.00    +0.000 C 
BRANCH  21  23
ATOM     22  C   UNL     1       0.856  11.097  20.908  0.00  0.00    +0.000 C 
ATOM     23  O   UNL     1       1.190  11.969  19.835  0.00  0.00    +0.000 OA
ENDBRANCH  21  23
ENDBRANCH  19  21
ENDBRANCH  15  19
ENDBRANCH   1  16
TORSDOF 6
ENDMDL
