MODEL 1
REMARK VINA RESULT:      -6.9      0.000      0.000
REMARK  Name = 
REMARK  8 active torsions:
REMARK  status: ('A' for Active; 'I' for Inactive)
REMARK    1  A    between atoms: C_1  and  N_2
REMARK    2  A    between atoms: C_6  and  C_7
REMARK    3  A    between atoms: C_7  and  N_8
REMARK    4  A    between atoms: N_8  and  C_9
REMARK    5  A    between atoms: C_9  and  C_10
REMARK    6  A    between atoms: C_10  and  O_11
REMARK    7  A    between atoms: C_12  and  C_14
REMARK    8  A    between atoms: C_18  and  C_20
REMARK                            x       y       z     vdW  Elec       q    Type
REMARK                         _______ _______ _______ _____ _____    ______ ____
ROOT
ATOM      1  N   UNL     1       2.743   6.266  18.627  0.00  0.00    +0.000 N 
ATOM      2  C   UNL     1       4.022   6.248  18.072  0.00  0.00    +0.000 C 
ATOM      3  O   UNL     1       4.474   7.293  17.570  0.00  0.00    +0.000 OA
ENDROOT
BRANCH   2   4
ATOM      4  C   UNL     1       4.940   4.994  18.119  0.00  0.00    +0.000 C 
ATOM      5  C   UNL     1       6.423   5.426  17.906  0.00  0.00    +0.000 C 
ATOM      6  C   UNL     1       6.752   5.794  16.445  0.00  0.00    +0.000 C 
ATOM      7  N   UNL     1       6.295   4.783  15.490  0.00  0.00    +0.000 N 
ATOM      8  C   UNL     1       6.923   4.734  14.238  0.00  0.00    +0.000 C 
ATOM      9  O   UNL     1       7.763   5.555  13.884  0.00  0.00    +0.000 OA
ATOM     10  C   UNL     1       4.917   4.351  15.670  0.00  0.00    +0.000 C 
ATOM     11  C   UNL     1       4.689   3.876  17.094  0.00  0.00    +0.000 C 
BRANCH   8  12
ATOM     12  C   UNL     1       6.625   3.553  13.354  0.00  0.00    +0.000 C 
ATOM     13  C   UNL     1       5.513   3.521  12.321  0.00  0.00    +0.000 C 
ATOM     14  C   UNL     1       6.940   3.677  11.875  0.00  0.00    +0.000 C 
ENDBRANCH   8  12
ENDBRANCH   2   4
BRANCH   1  15
ATOM     15  C   UNL     1       1.971   7.518  18.435  0.00  0.00    +0.000 C 
BRANCH  15  21
ATOM     16  C   UNL     1       1.145  10.605  18.631  0.00  0.00    +0.000 C 
ATOM     17  N   UNL     1       1.190   9.632  19.685  0.00  0.00    +0.000 N 
ATOM     18  C   UNL     1       0.678   9.873  20.943  0.00  0.00    +0.000 A 
ATOM     19  C   UNL     1       0.994   8.746  21.672  0.00  0.00    +0.000 A 
ATOM     20  N   UNL     1       1.623   7.820  20.886  0.00  0.00    +0.000 NA
ATOM     21  C   UNL     1       1.690   8.340  19.659  0.00  0.00    +0.000 A 
ENDBRANCH  15  21
ENDBRANCH   1  15
BRANCH   1  22
ATOM     22  C   UNL     1       2.138   5.140  19.378  0.00  0.00    +0.000 C 
BRANCH  22  23
ATOM     23  C   UNL     1       1.506   3.965  18.624  0.00  0.00    +0.000 C 
BRANCH  23  24
ATOM     24  O   UNL     1       1.131   4.343  17.303  0.00  0.00    +0.000 OA
ATOM     25  H   UNL     1       1.101   5.316  17.295  0.00  0.00    +0.000 HD
ENDBRANCH  23  24
ENDBRANCH  22  23
ENDBRANCH   1  22
TORSDOF 7
ENDMDL
MODEL 2
REMARK VINA RESULT:      -6.2      1.643      2.100
REMARK  Name = 
REMARK  8 active torsions:
REMARK  status: ('A' for Active; 'I' for Inactive)
REMARK    1  A    between atoms: C_1  and  N_2
REMARK    2  A    between atoms: C_6  and  C_7
REMARK    3  A    between atoms: C_7  and  N_8
REMARK    4  A    between atoms: N_8  and  C_9
REMARK    5  A    between atoms: C_9  and  C_10
REMARK    6  A    between atoms: C_10  and  O_11
REMARK    7  A    between atoms: C_12  and  C_14
REMARK    8  A    between atoms: C_18  and  C_20
REMARK                            x       y       z     vdW  Elec       q    Type
REMARK                         _______ _______ _______ _____ _____    ______ ____
ROOT
ATOM      1  N   UNL     1       2.581   5.209  19.800  0.00  0.00    +0.000 N 
ATOM      2  C   UNL     1       3.891   5.032  19.357  0.00  0.00    +0.000 C 
ATOM      3  O   UNL     1       4.731   5.918  19.600  0.00  0.00    +0.000 OA
ENDROOT
BRANCH   2   4
ATOM      4  C   UNL     1       4.366   3.741  18.634  0.00  0.00    +0.000 C 
ATOM      5  C   UNL     1       5.925   3.723  18.573  0.00  0.00    +0.000 C 
ATOM      6  C   UNL     1       6.510   4.698  17.531  0.00  0.00    +0.000 C 
ATOM      7  N   UNL     1       5.871   4.574  16.220  0.00  0.00    +0.000 N 
ATOM      8  C   UNL     1       6.588   5.017  15.099  0.00  0.00    +0.000 C 
ATOM      9  O   UNL     1       7.674   5.582  15.185  0.00  0.00    +0.000 OA
ATOM     10  C   UNL     1       4.417   4.577  16.245  0.00  0.00    +0.000 C 
ATOM     11  C   UNL     1       3.898   3.507  17.189  0.00  0.00    +0.000 C 
BRANCH   8  12
ATOM     12  C   UNL     1       6.039   4.672  13.740  0.00  0.00    +0.000 C 
ATOM     13  C   UNL     1       6.891   4.231  12.564  0.00  0.00    +0.000 C 
ATOM     14  C   UNL     1       6.071   3.217  13.311  0.00  0.00    +0.000 C 
ENDBRANCH   8  12
ENDBRANCH   2   4
BRANCH   1  15
ATOM     15  C   UNL     1       2.273   6.527  20.408  0.00  0.00    +0.000 C 
BRANCH  15  21
ATOM     16  C   UNL     1       0.618   9.186  21.066  0.00  0.00    +0.000 C 
ATOM     17  N   UNL     1       1.267   8.829  19.837  0.00  0.00    +0.000 N 
ATOM     18  C   UNL     1       1.424   9.716  18.792  0.00  0.00    +0.000 A 
ATOM     19  C   UNL     1       2.003   8.973  17.785  0.00  0.00    +0.000 A 
ATOM     20  N   UNL     1       2.249   7.695  18.205  0.00  0.00    +0.000 NA
ATOM     21  C   UNL     1       1.852   7.626  19.477  0.00  0.00    +0.000 A 
ENDBRANCH  15  21
ENDBRANCH   1  15
BRANCH   1  22
ATOM     22  C   UNL     1       1.517   4.180  19.704  0.00  0.00    +0.000 C 
BRANCH  22  23
ATOM     23  C   UNL     1       1.154   3.333  20.928  0.00  0.00    +0.000 C 
BRANCH  23  24
ATOM     24  O   UNL     1       2.197   3.359  21.900  0.00  0.00    +0.000 OA
ATOM     25  H   UNL     1       2.473   4.289  21.979  0.00  0.00    +0.000 HD
ENDBRANCH  23  24
ENDBRANCH  22  23
ENDBRANCH   1  22
TORSDOF 7
ENDMDL
MODEL 3
REMARK VINA RESULT:      -6.2      1.628      1.688
REMARK  Name = 
REMARK  8 active torsions:
REMARK  status: ('A' for Active; 'I' for Inactive)
REMARK    1  A    between atoms: C_1  and  N_2
REMARK    2  A    between atoms: C_6  and  C_7
REMARK    3  A    between atoms: C_7  and  N_8
REMARK    4  A    between atoms: N_8  and  C_9
REMARK    5  A    between atoms: C_9  and  C_10
REMARK    6  A    between atoms: C_10  and  O_11
REMARK    7  A    between atoms: C_12  and  C_14
REMARK    8  A    between atoms: C_18  and  C_20
REMARK                            x       y       z     vdW  Elec       q    Type
REMARK                         _______ _______ _______ _____ _____    ______ ____
ROOT
ATOM      1  N   UNL     1       2.199   5.665  20.095  0.00  0.00    +0.000 N 
ATOM      2  C   UNL     1       3.248   5.670  19.177  0.00  0.00    +0.000 C 
ATOM      3  O   UNL     1       3.315   6.593  18.345  0.00  0.00    +0.000 OA
ENDROOT
BRANCH   2   4
ATOM      4  C   UNL     1       4.384   4.608  19.194  0.00  0.00    +0.000 C 
ATOM      5  C   UNL     1       5.765   5.320  19.054  0.00  0.00    +0.000 C 
ATOM      6  C   UNL     1       6.054   5.823  17.625  0.00  0.00    +0.000 C 
ATOM      7  N   UNL     1       5.819   4.797  16.607  0.00  0.00    +0.000 N 
ATOM      8  C   UNL     1       6.477   4.935  15.376  0.00  0.00    +0.000 C 
ATOM      9  O   UNL     1       7.156   5.917  15.092  0.00  0.00    +0.000 OA
ATOM     10  C   UNL     1       4.543   4.108  16.717  0.00  0.00    +0.000 C 
ATOM     11  C   UNL     1       4.373   3.521  18.107  0.00  0.00    +0.000 C 
BRANCH   8  12
ATOM     12  C   UNL     1       6.427   3.769  14.425  0.00  0.00    +0.000 C 
ATOM     13  C   UNL     1       5.457   3.658  13.263  0.00  0.00    +0.000 C 
ATOM     14  C   UNL     1       6.897   3.996  13.000  0.00  0.00    +0.000 C 
ENDBRANCH   8  12
ENDBRANCH   2   4
BRANCH   1  15
ATOM     15  C   UNL     1       1.160   6.706  19.898  0.00  0.00    +0.000 C 
BRANCH  15  21
ATOM     16  C   UNL     1       1.236   9.642  18.627  0.00  0.00    +0.000 C 
ATOM     17  N   UNL     1       1.250   9.278  20.015  0.00  0.00    +0.000 N 
ATOM     18  C   UNL     1       1.103  10.201  21.029  0.00  0.00    +0.000 A 
ATOM     19  C   UNL     1       1.261   9.476  22.191  0.00  0.00    +0.000 A 
ATOM     20  N   UNL     1       1.441   8.149  21.912  0.00  0.00    +0.000 NA
ATOM     21  C   UNL     1       1.375   8.022  20.586  0.00  0.00    +0.000 A 
ENDBRANCH  15  21
ENDBRANCH   1  15
BRANCH   1  22
ATOM     22  C   UNL     1       2.075   4.710  21.222  0.00  0.00    +0.000 C 
BRANCH  22  23
ATOM     23  C   UNL     1       1.408   3.347  21.006  0.00  0.00    +0.000 C 
BRANCH  23  24
ATOM     24  O   UNL     1       1.593   2.498  22.135  0.00  0.00    +0.000 OA
ATOM     25  H   UNL     1       1.058   2.879  22.854  0.00  0.00    +0.000 HD
ENDBRANCH  23  24
ENDBRANCH  22  23
ENDBRANCH   1  22
TORSDOF 7
ENDMDL
MODEL 4
REMARK VINA RESULT:      -5.9      5.372     11.537
REMARK  Name = 
REMARK  8 active torsions:
REMARK  status: ('A' for Active; 'I' for Inactive)
REMARK    1  A    between atoms: C_1  and  N_2
REMARK    2  A    between atoms: C_6  and  C_7
REMARK    3  A    between atoms: C_7  and  N_8
REMARK    4  A    between atoms: N_8  and  C_9
REMARK    5  A    between atoms: C_9  and  C_10
REMARK    6  A    between atoms: C_10  and  O_11
REMARK    7  A    between atoms: C_12  and  C_14
REMARK    8  A    between atoms: C_18  and  C_20
REMARK                            x       y       z     vdW  Elec       q    Type
REMARK                         _______ _______ _______ _____ _____    ______ ____
ROOT
ATOM      1  N   UNL     1       0.121  11.815  19.436  0.00  0.00    +0.000 N 
ATOM      2  C   UNL     1      -1.077  12.203  20.034  0.00  0.00    +0.000 C 
ATOM      3  O   UNL     1      -2.082  11.485  19.887  0.00  0.00    +0.000 OA
ENDROOT
BRANCH   2   4
ATOM      4  C   UNL     1      -1.194  13.461  20.941  0.00  0.00    +0.000 C 
ATOM      5  C   UNL     1      -1.003  13.046  22.433  0.00  0.00    +0.000 C 
ATOM      6  C   UNL     1      -2.226  12.321  23.029  0.00  0.00    +0.000 C 
ATOM      7  N   UNL     1      -3.483  13.028  22.774  0.00  0.00    +0.000 N 
ATOM      8  C   UNL     1      -4.563  12.771  23.631  0.00  0.00    +0.000 C 
ATOM      9  O   UNL     1      -4.524  11.919  24.513  0.00  0.00    +0.000 OA
ATOM     10  C   UNL     1      -3.685  13.437  21.393  0.00  0.00    +0.000 C 
ATOM     11  C   UNL     1      -2.506  14.260  20.903  0.00  0.00    +0.000 C 
BRANCH   8  12
ATOM     12  C   UNL     1      -5.768  13.667  23.520  0.00  0.00    +0.000 C 
ATOM     13  C   UNL     1      -7.006  13.333  22.706  0.00  0.00    +0.000 C 
ATOM     14  C   UNL     1      -7.047  13.222  24.204  0.00  0.00    +0.000 C 
ENDBRANCH   8  12
ENDBRANCH   2   4
BRANCH   1  15
ATOM     15  C   UNL     1       0.047  10.632  18.544  0.00  0.00    +0.000 C 
BRANCH  15  21
ATOM     16  C   UNL     1       0.847   8.669  20.942  0.00  0.00    +0.000 C 
ATOM     17  N   UNL     1       1.396   8.718  19.618  0.00  0.00    +0.000 N 
ATOM     18  C   UNL     1       2.252   7.751  19.130  0.00  0.00    +0.000 A 
ATOM     19  C   UNL     1       2.615   8.203  17.879  0.00  0.00    +0.000 A 
ATOM     20  N   UNL     1       1.969   9.371  17.579  0.00  0.00    +0.000 NA
ATOM     21  C   UNL     1       1.181   9.651  18.617  0.00  0.00    +0.000 A 
ENDBRANCH  15  21
ENDBRANCH   1  15
BRANCH   1  22
ATOM     22  C   UNL     1       1.422  12.497  19.642  0.00  0.00    +0.000 C 
BRANCH  22  23
ATOM     23  C   UNL     1       2.036  13.338  18.518  0.00  0.00    +0.000 C 
BRANCH  23  24
ATOM     24  O   UNL     1       2.594  12.510  17.501  0.00  0.00    +0.000 OA
ATOM     25  H   UNL     1       1.841  12.150  17.000  0.00  0.00    +0.000 HD
ENDBRANCH  23  24
ENDBRANCH  22  23
ENDBRANCH   1  22
TORSDOF 7
ENDMDL
MODEL 5
REMARK VINA RESULT:      -5.8      1.985      7.982
REMARK  Name = 
REMARK  8 active torsions:
REMARK  status: ('A' for Active; 'I' for Inactive)
REMARK    1  A    between atoms: C_1  and  N_2
REMARK    2  A    between atoms: C_6  and  C_7
REMARK    3  A    between atoms: C_7  and  N_8
REMARK    4  A    between atoms: N_8  and  C_9
REMARK    5  A    between atoms: C_9  and  C_10
REMARK    6  A    between atoms: C_10  and  O_11
REMARK    7  A    between atoms: C_12  and  C_14
REMARK    8  A    between atoms: C_18  and  C_20
REMARK                            x       y       z     vdW  Elec       q    Type
REMARK                         _______ _______ _______ _____ _____    ______ ____
ROOT
ATOM      1  N   UNL     1       5.841   4.169  16.371  0.00  0.00    +0.000 N 
ATOM      2  C   UNL     1       4.845   3.843  17.290  0.00  0.00    +0.000 C 
ATOM      3  O   UNL     1       3.759   3.404  16.870  0.00  0.00    +0.000 OA
ENDROOT
BRANCH   2   4
ATOM      4  C   UNL     1       5.059   3.936  18.828  0.00  0.00    +0.000 C 
ATOM      5  C   UNL     1       3.939   3.132  19.558  0.00  0.00    +0.000 C 
ATOM      6  C   UNL     1       2.571   3.844  19.556  0.00  0.00    +0.000 C 
ATOM      7  N   UNL     1       2.661   5.242  19.983  0.00  0.00    +0.000 N 
ATOM      8  C   UNL     1       1.500   5.848  20.484  0.00  0.00    +0.000 C 
ATOM      9  O   UNL     1       0.408   5.289  20.490  0.00  0.00    +0.000 OA
ATOM     10  C   UNL     1       3.703   6.015  19.326  0.00  0.00    +0.000 C 
ATOM     11  C   UNL     1       5.050   5.330  19.476  0.00  0.00    +0.000 C 
BRANCH   8  12
ATOM     12  C   UNL     1       1.646   7.195  21.141  0.00  0.00    +0.000 C 
ATOM     13  C   UNL     1       1.337   8.515  20.457  0.00  0.00    +0.000 C 
ATOM     14  C   UNL     1       0.380   7.961  21.475  0.00  0.00    +0.000 C 
ENDBRANCH   8  12
ENDBRANCH   2   4
BRANCH   1  15
ATOM     15  C   UNL     1       5.454   4.093  14.941  0.00  0.00    +0.000 C 
BRANCH  15  21
ATOM     16  C   UNL     1       5.816   2.762  12.052  0.00  0.00    +0.000 C 
ATOM     17  N   UNL     1       6.568   3.839  12.632  0.00  0.00    +0.000 N 
ATOM     18  C   UNL     1       7.464   4.597  11.906  0.00  0.00    +0.000 A 
ATOM     19  C   UNL     1       8.031   5.449  12.830  0.00  0.00    +0.000 A 
ATOM     20  N   UNL     1       7.470   5.269  14.064  0.00  0.00    +0.000 NA
ATOM     21  C   UNL     1       6.536   4.327  13.928  0.00  0.00    +0.000 A 
ENDBRANCH  15  21
ENDBRANCH   1  15
BRANCH   1  22
ATOM     22  C   UNL     1       7.222   4.567  16.736  0.00  0.00    +0.000 C 
BRANCH  22  23
ATOM     23  C   UNL     1       7.476   5.907  17.434  0.00  0.00    +0.000 C 
BRANCH  23  24
ATOM     24  O   UNL     1       7.657   6.956  16.487  0.00  0.00    +0.000 OA
ATOM     25  H   UNL     1       7.920   6.528  15.652  0.00  0.00    +0.000 HD
ENDBRANCH  23  24
ENDBRANCH  22  23
ENDBRANCH   1  22
TORSDOF 7
ENDMDL
MODEL 6
REMARK VINA RESULT:      -5.8      4.007      7.147
REMARK  Name = 
REMARK  8 active torsions:
REMARK  status: ('A' for Active; 'I' for Inactive)
REMARK    1  A    between atoms: C_1  and  N_2
REMARK    2  A    between atoms: C_6  and  C_7
REMARK    3  A    between atoms: C_7  and  N_8
REMARK    4  A    between atoms: N_8  and  C_9
REMARK    5  A    between atoms: C_9  and  C_10
REMARK    6  A    between atoms: C_10  and  O_11
REMARK    7  A    between atoms: C_12  and  C_14
REMARK    8  A    between atoms: C_18  and  C_20
REMARK                            x       y       z     vdW  Elec       q    Type
REMARK                         _______ _______ _______ _____ _____    ______ ____
ROOT
ATOM      1  N   UNL     1       1.398  12.552  19.860  0.00  0.00    +0.000 N 
ATOM      2  C   UNL     1       1.017  11.359  20.474  0.00  0.00    +0.000 C 
ATOM      3  O   UNL     1       1.330  11.169  21.663  0.00  0.00    +0.000 OA
ENDROOT
BRANCH   2   4
ATOM      4  C   UNL     1       0.155  10.283  19.756  0.00  0.00    +0.000 C 
ATOM      5  C   UNL     1       0.065   9.007  20.649  0.00  0.00    +0.000 C 
ATOM      6  C   UNL     1       1.361   8.173  20.660  0.00  0.00    +0.000 C 
ATOM      7  N   UNL     1       1.876   7.910  19.315  0.00  0.00    +0.000 N 
ATOM      8  C   UNL     1       2.724   6.806  19.144  0.00  0.00    +0.000 C 
ATOM      9  O   UNL     1       3.120   6.120  20.081  0.00  0.00    +0.000 OA
ATOM     10  C   UNL     1       1.963   9.079  18.454  0.00  0.00    +0.000 C 
ATOM     11  C   UNL     1       0.620   9.785  18.377  0.00  0.00    +0.000 C 
BRANCH   8  12
ATOM     12  C   UNL     1       3.057   6.396  17.734  0.00  0.00    +0.000 C 
ATOM     13  C   UNL     1       4.452   6.453  17.137  0.00  0.00    +0.000 C 
ATOM     14  C   UNL     1       3.867   5.128  17.537  0.00  0.00    +0.000 C 
ENDBRANCH   8  12
ENDBRANCH   2   4
BRANCH   1  15
ATOM     15  C   UNL     1       2.279  13.439  20.658  0.00  0.00    +0.000 C 
BRANCH  15  21
ATOM     16  C   UNL     1       1.046  16.379  20.366  0.00  0.00    +0.000 C 
ATOM     17  N   UNL     1       2.354  15.926  19.987  0.00  0.00    +0.000 N 
ATOM     18  C   UNL     1       3.359  16.789  19.601  0.00  0.00    +0.000 A 
ATOM     19  C   UNL     1       4.407  15.969  19.240  0.00  0.00    +0.000 A 
ATOM     20  N   UNL     1       4.088  14.655  19.447  0.00  0.00    +0.000 NA
ATOM     21  C   UNL     1       2.856  14.635  19.958  0.00  0.00    +0.000 A 
ENDBRANCH  15  21
ENDBRANCH   1  15
BRANCH   1  22
ATOM     22  C   UNL     1       0.976  12.968  18.501  0.00  0.00    +0.000 C 
BRANCH  22  23
ATOM     23  C   UNL     1      -0.423  13.551  18.275  0.00  0.00    +0.000 C 
BRANCH  23  24
ATOM     24  O   UNL     1      -1.182  12.740  17.383  0.00  0.00    +0.000 OA
ATOM     25  H   UNL     1      -0.623  12.602  16.597  0.00  0.00    +0.000 HD
ENDBRANCH  23  24
ENDBRANCH  22  23
ENDBRANCH   1  22
TORSDOF 7
ENDMDL
MODEL 7
REMARK VINA RESULT:      -5.8      1.672      2.185
REMARK  Name = 
REMARK  8 active torsions:
REMARK  status: ('A' for Active; 'I' for Inactive)
REMARK    1  A    between atoms: C_1  and  N_2
REMARK    2  A    between atoms: C_6  and  C_7
REMARK    3  A    between atoms: C_7  and  N_8
REMARK    4  A    between atoms: N_8  and  C_9
REMARK    5  A    between atoms: C_9  and  C_10
REMARK    6  A    between atoms: C_10  and  O_11
REMARK    7  A    between atoms: C_12  and  C_14
REMARK    8  A    between atoms: C_18  and  C_20
REMARK                            x       y       z     vdW  Elec       q    Type
REMARK                         _______ _______ _______ _____ _____    ______ ____
ROOT
ATOM      1  N   UNL     1       2.141   5.840  20.115  0.00  0.00    +0.000 N 
ATOM      2  C   UNL     1       3.367   5.407  19.610  0.00  0.00    +0.000 C 
ATOM      3  O   UNL     1       4.336   6.187  19.635  0.00  0.00    +0.000 OA
ENDROOT
BRANCH   2   4
ATOM      4  C   UNL     1       3.594   3.963  19.082  0.00  0.00    +0.000 C 
ATOM      5  C   UNL     1       5.077   3.546  19.328  0.00  0.00    +0.000 C 
ATOM      6  C   UNL     1       6.072   4.216  18.359  0.00  0.00    +0.000 C 
ATOM      7  N   UNL     1       5.659   4.105  16.958  0.00  0.00    +0.000 N 
ATOM      8  C   UNL     1       6.649   4.221  15.973  0.00  0.00    +0.000 C 
ATOM      9  O   UNL     1       7.816   4.501  16.233  0.00  0.00    +0.000 OA
ATOM     10  C   UNL     1       4.276   4.478  16.698  0.00  0.00    +0.000 C 
ATOM     11  C   UNL     1       3.335   3.689  17.591  0.00  0.00    +0.000 C 
BRANCH   8  12
ATOM     12  C   UNL     1       6.269   3.871  14.559  0.00  0.00    +0.000 C 
ATOM     13  C   UNL     1       5.555   4.816  13.610  0.00  0.00    +0.000 C 
ATOM     14  C   UNL     1       7.024   4.553  13.433  0.00  0.00    +0.000 C 
ENDBRANCH   8  12
ENDBRANCH   2   4
BRANCH   1  15
ATOM     15  C   UNL     1       2.071   7.267  20.513  0.00  0.00    +0.000 C 
BRANCH  15  21
ATOM     16  C   UNL     1      -0.064   9.636  20.792  0.00  0.00    +0.000 C 
ATOM     17  N   UNL     1       0.796   9.345  19.680  0.00  0.00    +0.000 N 
ATOM     18  C   UNL     1       0.950  10.205  18.612  0.00  0.00    +0.000 A 
ATOM     19  C   UNL     1       1.773   9.532  17.735  0.00  0.00    +0.000 A 
ATOM     20  N   UNL     1       2.161   8.329  18.259  0.00  0.00    +0.000 NA
ATOM     21  C   UNL     1       1.611   8.244  19.471  0.00  0.00    +0.000 A 
ENDBRANCH  15  21
ENDBRANCH   1  15
BRANCH   1  22
ATOM     22  C   UNL     1       0.948   4.975  20.276  0.00  0.00    +0.000 C 
BRANCH  22  23
ATOM     23  C   UNL     1       1.091   3.569  20.869  0.00  0.00    +0.000 C 
BRANCH  23  24
ATOM     24  O   UNL     1       0.447   2.597  20.050  0.00  0.00    +0.000 OA
ATOM     25  H   UNL     1       0.502   1.753  20.533  0.00  0.00    +0.000 HD
ENDBRANCH  23  24
ENDBRANCH  22  23
ENDBRANCH   1  22
TORSDOF 7
ENDMDL
MODEL 8
REMARK VINA RESULT:      -5.7      2.570      7.420
REMARK  Name = 
REMARK  8 active torsions:
REMARK  status: ('A' for Active; 'I' for Inactive)
REMARK    1  A    between atoms: C_1  and  N_2
REMARK    2  A    between atoms: C_6  and  C_7
REMARK    3  A    between atoms: C_7  and  N_8
REMARK    4  A    between atoms: N_8  and  C_9
REMARK    5  A    between atoms: C_9  and  C_10
REMARK    6  A    between atoms: C_10  and  O_11
REMARK    7  A    between atoms: C_12  and  C_14
REMARK    8  A    between atoms: C_18  and  C_20
REMARK                            x       y       z     vdW  Elec       q    Type
REMARK                         _______ _______ _______ _____ _____    ______ ____
ROOT
ATOM      1  N   UNL     1       4.668   4.208  18.689  0.00  0.00    +0.000 N 
ATOM      2  C   UNL     1       3.895   5.306  19.067  0.00  0.00    +0.000 C 
ATOM      3  O   UNL     1       4.457   6.283  19.593  0.00  0.00    +0.000 OA
ENDROOT
BRANCH   2   4
ATOM      4  C   UNL     1       2.367   5.391  18.792  0.00  0.00    +0.000 C 
ATOM      5  C   UNL     1       2.059   6.675  17.961  0.00  0.00    +0.000 C 
ATOM      6  C   UNL     1       2.132   7.974  18.789  0.00  0.00    +0.000 C 
ATOM      7  N   UNL     1       1.376   7.891  20.040  0.00  0.00    +0.000 N 
ATOM      8  C   UNL     1       0.957   9.091  20.631  0.00  0.00    +0.000 C 
ATOM      9  O   UNL     1       1.277  10.193  20.197  0.00  0.00    +0.000 OA
ATOM     10  C   UNL     1       1.634   6.699  20.833  0.00  0.00    +0.000 C 
ATOM     11  C   UNL     1       1.418   5.447  20.000  0.00  0.00    +0.000 C 
BRANCH   8  12
ATOM     12  C   UNL     1      -0.017   9.001  21.776  0.00  0.00    +0.000 C 
ATOM     13  C   UNL     1       0.327   9.336  23.216  0.00  0.00    +0.000 C 
ATOM     14  C   UNL     1      -0.495  10.297  22.404  0.00  0.00    +0.000 C 
ENDBRANCH   8  12
ENDBRANCH   2   4
BRANCH   1  15
ATOM     15  C   UNL     1       6.096   4.253  19.088  0.00  0.00    +0.000 C 
BRANCH  15  21
ATOM     16  C   UNL     1       6.170   5.243  16.044  0.00  0.00    +0.000 C 
ATOM     17  N   UNL     1       6.832   5.820  17.179  0.00  0.00    +0.000 N 
ATOM     18  C   UNL     1       7.465   7.045  17.129  0.00  0.00    +0.000 A 
ATOM     19  C   UNL     1       8.039   7.194  18.373  0.00  0.00    +0.000 A 
ATOM     20  N   UNL     1       7.729   6.135  19.181  0.00  0.00    +0.000 NA
ATOM     21  C   UNL     1       6.943   5.326  18.469  0.00  0.00    +0.000 A 
ENDBRANCH  15  21
ENDBRANCH   1  15
BRANCH   1  22
ATOM     22  C   UNL     1       4.155   3.042  17.930  0.00  0.00    +0.000 C 
BRANCH  22  23
ATOM     23  C   UNL     1       3.409   1.919  18.659  0.00  0.00    +0.000 C 
BRANCH  23  24
ATOM     24  O   UNL     1       3.934   0.641  18.310  0.00  0.00    +0.000 OA
ATOM     25  H   UNL     1       3.167   0.056  18.182  0.00  0.00    +0.000 HD
ENDBRANCH  23  24
ENDBRANCH  22  23
ENDBRANCH   1  22
TORSDOF 7
ENDMDL
MODEL 9
REMARK VINA RESULT:      -5.7      3.208      8.358
REMARK  Name = 
REMARK  8 active torsions:
REMARK  status: ('A' for Active; 'I' for Inactive)
REMARK    1  A    between atoms: C_1  and  N_2
REMARK    2  A    between atoms: C_6  and  C_7
REMARK    3  A    between atoms: C_7  and  N_8
REMARK    4  A    between atoms: N_8  and  C_9
REMARK    5  A    between atoms: C_9  and  C_10
REMARK    6  A    between atoms: C_10  and  O_11
REMARK    7  A    between atoms: C_12  and  C_14
REMARK    8  A    between atoms: C_18  and  C_20
REMARK                            x       y       z     vdW  Elec       q    Type
REMARK                         _______ _______ _______ _____ _____    ______ ____
ROOT
ATOM      1  N   UNL     1       2.798   7.220  18.622  0.00  0.00    +0.000 N 
ATOM      2  C   UNL     1       1.883   8.226  18.931  0.00  0.00    +0.000 C 
ATOM      3  O   UNL     1       1.508   8.355  20.110  0.00  0.00    +0.000 OA
ENDROOT
BRANCH   2   4
ATOM      4  C   UNL     1       1.363   9.242  17.875  0.00  0.00    +0.000 C 
ATOM      5  C   UNL     1       2.115  10.599  18.045  0.00  0.00    +0.000 C 
ATOM      6  C   UNL     1       1.649  11.409  19.271  0.00  0.00    +0.000 C 
ATOM      7  N   UNL     1       0.192  11.535  19.345  0.00  0.00    +0.000 N 
ATOM      8  C   UNL     1      -0.335  12.603  20.084  0.00  0.00    +0.000 C 
ATOM      9  O   UNL     1       0.366  13.369  20.738  0.00  0.00    +0.000 OA
ATOM     10  C   UNL     1      -0.538  10.287  19.181  0.00  0.00    +0.000 C 
ATOM     11  C   UNL     1      -0.132   9.599  17.889  0.00  0.00    +0.000 C 
BRANCH   8  12
ATOM     12  C   UNL     1      -1.811  12.872  19.964  0.00  0.00    +0.000 C 
ATOM     13  C   UNL     1      -2.818  12.606  21.069  0.00  0.00    +0.000 C 
ATOM     14  C   UNL     1      -2.392  14.016  20.774  0.00  0.00    +0.000 C 
ENDBRANCH   8  12
ENDBRANCH   2   4
BRANCH   1  15
ATOM     15  C   UNL     1       3.137   6.290  19.726  0.00  0.00    +0.000 C 
BRANCH  15  21
ATOM     16  C   UNL     1       3.923   3.464  18.445  0.00  0.00    +0.000 C 
ATOM     17  N   UNL     1       2.840   3.761  19.338  0.00  0.00    +0.000 N 
ATOM     18  C   UNL     1       2.074   2.779  19.933  0.00  0.00    +0.000 A 
ATOM     19  C   UNL     1       1.103   3.465  20.630  0.00  0.00    +0.000 A 
ATOM     20  N   UNL     1       1.290   4.815  20.521  0.00  0.00    +0.000 NA
ATOM     21  C   UNL     1       2.385   4.993  19.781  0.00  0.00    +0.000 A 
ENDBRANCH  15  21
ENDBRANCH   1  15
BRANCH   1  22
ATOM     22  C   UNL     1       3.432   7.043  17.293  0.00  0.00    +0.000 C 
BRANCH  22  23
ATOM     23  C   UNL     1       4.946   6.831  17.187  0.00  0.00    +0.000 C 
BRANCH  23  24
ATOM     24  O   UNL     1       5.369   6.814  15.826  0.00  0.00    +0.000 OA
ATOM     25  H   UNL     1       4.561   6.885  15.288  0.00  0.00    +0.000 HD
ENDBRANCH  23  24
ENDBRANCH  22  23
ENDBRANCH   1  22
TORSDOF 7
ENDMDL
