MODEL 1
REMARK VINA RESULT:      -8.3      0.000      0.000
REMARK  Name = 
REMARK  5 active torsions:
REMARK  status: ('A' for Active; 'I' for Inactive)
REMARK    1  A    between atoms: C_1  and  C_2
REMARK    2  A    between atoms: C_2  and  O_3
REMARK    3  A    between atoms: O_3  and  C_4
REMARK    4  A    between atoms: C_4  and  C_6
REMARK    5  A    between atoms: N_8  and  C_9
REMARK                            x       y       z     vdW  Elec       q    Type
REMARK                         _______ _______ _______ _____ _____    ______ ____
ROOT
ATOM      1  C   UNL     1       0.715   9.843  19.758  0.00  0.00    +0.000 A 
ATOM      2  C   UNL     1       1.307  10.011  18.511  0.00  0.00    +0.000 A 
ATOM      3  C   UNL     1       2.143   9.035  17.988  0.00  0.00    +0.000 A 
ATOM      4  C   UNL     1       2.396   7.849  18.689  0.00  0.00    +0.000 A 
ATOM      5  C   UNL     1       1.824   7.674  19.960  0.00  0.00    +0.000 A 
ATOM      6  C   UNL     1       1.036   8.707  20.514  0.00  0.00    +0.000 A 
ATOM      7  N   UNL     1       2.007   6.519  20.748  0.00  0.00    +0.000 N 
ATOM      8  C   UNL     1       2.288   5.238  20.349  0.00  0.00    +0.000 C 
ATOM      9  O   UNL     1       2.509   4.382  21.210  0.00  0.00    +0.000 OA
ATOM     10  C   UNL     1       2.168   4.863  18.887  0.00  0.00    +0.000 C 
ATOM     11  N   UNL     1       3.148   5.543  18.079  0.00  0.00    +0.000 N 
ATOM     12  C   UNL     1       3.303   6.904  18.053  0.00  0.00    +0.000 A 
ATOM     13  N   UNL     1       4.352   7.235  17.326  0.00  0.00    +0.000 NA
ATOM     14  C   UNL     1       4.847   6.062  16.828  0.00  0.00    +0.000 A 
ATOM     15  C   UNL     1       5.967   5.851  16.015  0.00  0.00    +0.000 A 
ATOM     16  C   UNL     1       6.250   4.553  15.587  0.00  0.00    +0.000 A 
ATOM     17  C   UNL     1       5.414   3.491  15.937  0.00  0.00    +0.000 A 
ATOM     18  C   UNL     1       4.297   3.680  16.763  0.00  0.00    +0.000 A 
ATOM     19  C   UNL     1       4.060   4.982  17.220  0.00  0.00    +0.000 A 
ATOM     20  H   UNL     1       1.894   6.605  21.753  0.00  0.00    +0.000 HD
ENDROOT
BRANCH   1  23
ATOM     21  C   UNL     1       0.101  11.851  21.071  0.00  0.00    +0.000 C 
ATOM     22  O   UNL     1       1.210  12.158  21.486  0.00  0.00    +0.000 OA
ATOM     23  N   UNL     1      -0.227  10.770  20.255  0.00  0.00    +0.000 N 
ATOM     24  H   UNL     1      -1.171  10.766  19.878  0.00  0.00    +0.000 HD
BRANCH  21  25
ATOM     25  C   UNL     1      -1.096  12.762  21.407  0.00  0.00    +0.000 C 
ATOM     26  O   UNL     1      -1.672  13.420  20.555  0.00  0.00    +0.000 OA
BRANCH  25  27
ATOM     27  O   UNL     1      -1.323  12.723  22.735  0.00  0.00    +0.000 OA
BRANCH  27  29
ATOM     28  C   UNL     1      -3.507  12.668  23.769  0.00  0.00    +0.000 C 
ATOM     29  C   UNL     1      -2.360  11.857  23.202  0.00  0.00    +0.000 C 
ENDBRANCH  27  29
ENDBRANCH  25  27
ENDBRANCH  21  25
ENDBRANCH   1  23
TORSDOF 4
ENDMDL
MODEL 2
REMARK VINA RESULT:      -8.2      1.084      1.322
REMARK  Name = 
REMARK  5 active torsions:
REMARK  status: ('A' for Active; 'I' for Inactive)
REMARK    1  A    between atoms: C_1  and  C_2
REMARK    2  A    between atoms: C_2  and  O_3
REMARK    3  A    between atoms: O_3  and  C_4
REMARK    4  A    between atoms: C_4  and  C_6
REMARK    5  A    between atoms: N_8  and  C_9
REMARK                            x       y       z     vdW  Elec       q    Type
REMARK                         _______ _______ _______ _____ _____    ______ ____
ROOT
ATOM      1  C   UNL     1       0.778   9.979  19.455  0.00  0.00    +0.000 A 
ATOM      2  C   UNL     1       1.400  10.081  18.215  0.00  0.00    +0.000 A 
ATOM      3  C   UNL     1       2.233   9.070  17.757  0.00  0.00    +0.000 A 
ATOM      4  C   UNL     1       2.454   7.915  18.518  0.00  0.00    +0.000 A 
ATOM      5  C   UNL     1       1.852   7.808  19.782  0.00  0.00    +0.000 A 
ATOM      6  C   UNL     1       1.067   8.875  20.269  0.00  0.00    +0.000 A 
ATOM      7  N   UNL     1       2.001   6.688  20.627  0.00  0.00    +0.000 N 
ATOM      8  C   UNL     1       2.272   5.386  20.295  0.00  0.00    +0.000 C 
ATOM      9  O   UNL     1       2.462   4.569  21.199  0.00  0.00    +0.000 OA
ATOM     10  C   UNL     1       2.179   4.945  18.849  0.00  0.00    +0.000 C 
ATOM     11  N   UNL     1       3.186   5.573  18.032  0.00  0.00    +0.000 N 
ATOM     12  C   UNL     1       3.361   6.929  17.947  0.00  0.00    +0.000 A 
ATOM     13  N   UNL     1       4.430   7.211  17.229  0.00  0.00    +0.000 NA
ATOM     14  C   UNL     1       4.919   6.010  16.798  0.00  0.00    +0.000 A 
ATOM     15  C   UNL     1       6.054   5.746  16.021  0.00  0.00    +0.000 A 
ATOM     16  C   UNL     1       6.327   4.426  15.660  0.00  0.00    +0.000 A 
ATOM     17  C   UNL     1       5.468   3.393  16.040  0.00  0.00    +0.000 A 
ATOM     18  C   UNL     1       4.336   3.635  16.831  0.00  0.00    +0.000 A 
ATOM     19  C   UNL     1       4.109   4.960  17.221  0.00  0.00    +0.000 A 
ATOM     20  H   UNL     1       1.867   6.822  21.624  0.00  0.00    +0.000 HD
ENDROOT
BRANCH   1  23
ATOM     21  C   UNL     1      -1.449  11.059  19.370  0.00  0.00    +0.000 C 
ATOM     22  O   UNL     1      -1.957  10.386  18.484  0.00  0.00    +0.000 OA
ATOM     23  N   UNL     1      -0.160  10.941  19.887  0.00  0.00    +0.000 N 
ATOM     24  H   UNL     1       0.032  11.475  20.731  0.00  0.00    +0.000 HD
BRANCH  21  25
ATOM     25  C   UNL     1      -2.305  12.131  20.073  0.00  0.00    +0.000 C 
ATOM     26  O   UNL     1      -3.373  12.510  19.620  0.00  0.00    +0.000 OA
BRANCH  25  27
ATOM     27  O   UNL     1      -1.657  12.564  21.173  0.00  0.00    +0.000 OA
BRANCH  27  29
ATOM     28  C   UNL     1      -1.473  11.201  23.161  0.00  0.00    +0.000 C 
ATOM     29  C   UNL     1      -2.253  12.284  22.442  0.00  0.00    +0.000 C 
ENDBRANCH  27  29
ENDBRANCH  25  27
ENDBRANCH  21  25
ENDBRANCH   1  23
TORSDOF 4
ENDMDL
MODEL 3
REMARK VINA RESULT:      -8.1      1.021      1.073
REMARK  Name = 
REMARK  5 active torsions:
REMARK  status: ('A' for Active; 'I' for Inactive)
REMARK    1  A    between atoms: C_1  and  C_2
REMARK    2  A    between atoms: C_2  and  O_3
REMARK    3  A    between atoms: O_3  and  C_4
REMARK    4  A    between atoms: C_4  and  C_6
REMARK    5  A    between atoms: N_8  and  C_9
REMARK                            x       y       z     vdW  Elec       q    Type
REMARK                         _______ _______ _______ _____ _____    ______ ____
ROOT
ATOM      1  C   UNL     1       0.529   9.767  20.150  0.00  0.00    +0.000 A 
ATOM      2  C   UNL     1       1.069   9.990  18.888  0.00  0.00    +0.000 A 
ATOM      3  C   UNL     1       1.902   9.049  18.299  0.00  0.00    +0.000 A 
ATOM      4  C   UNL     1       2.205   7.845  18.948  0.00  0.00    +0.000 A 
ATOM      5  C   UNL     1       1.687   7.615  20.233  0.00  0.00    +0.000 A 
ATOM      6  C   UNL     1       0.902   8.612  20.853  0.00  0.00    +0.000 A 
ATOM      7  N   UNL     1       1.923   6.437  20.973  0.00  0.00    +0.000 N 
ATOM      8  C   UNL     1       2.212   5.177  20.518  0.00  0.00    +0.000 C 
ATOM      9  O   UNL     1       2.483   4.297  21.340  0.00  0.00    +0.000 OA
ATOM     10  C   UNL     1       2.042   4.851  19.049  0.00  0.00    +0.000 C 
ATOM     11  N   UNL     1       2.976   5.577  18.228  0.00  0.00    +0.000 N 
ATOM     12  C   UNL     1       3.104   6.941  18.244  0.00  0.00    +0.000 A 
ATOM     13  N   UNL     1       4.117   7.318  17.490  0.00  0.00    +0.000 NA
ATOM     14  C   UNL     1       4.614   6.173  16.932  0.00  0.00    +0.000 A 
ATOM     15  C   UNL     1       5.705   6.013  16.069  0.00  0.00    +0.000 A 
ATOM     16  C   UNL     1       5.996   4.736  15.586  0.00  0.00    +0.000 A 
ATOM     17  C   UNL     1       5.194   3.646  15.930  0.00  0.00    +0.000 A 
ATOM     18  C   UNL     1       4.107   3.784  16.805  0.00  0.00    +0.000 A 
ATOM     19  C   UNL     1       3.864   5.065  17.315  0.00  0.00    +0.000 A 
ATOM     20  H   UNL     1       1.847   6.486  21.984  0.00  0.00    +0.000 HD
ENDROOT
BRANCH   1  23
ATOM     21  C   UNL     1      -0.468  10.967  22.073  0.00  0.00    +0.000 C 
ATOM     22  O   UNL     1       0.245  10.530  22.966  0.00  0.00    +0.000 OA
ATOM     23  N   UNL     1      -0.409  10.657  20.716  0.00  0.00    +0.000 N 
ATOM     24  H   UNL     1      -0.972  11.239  20.101  0.00  0.00    +0.000 HD
BRANCH  21  25
ATOM     25  C   UNL     1      -1.527  12.031  22.422  0.00  0.00    +0.000 C 
ATOM     26  O   UNL     1      -2.559  12.155  21.783  0.00  0.00    +0.000 OA
BRANCH  25  27
ATOM     27  O   UNL     1      -1.088  12.768  23.462  0.00  0.00    +0.000 OA
BRANCH  27  29
ATOM     28  C   UNL     1      -1.841  14.834  24.466  0.00  0.00    +0.000 C 
ATOM     29  C   UNL     1      -1.097  14.190  23.313  0.00  0.00    +0.000 C 
ENDBRANCH  27  29
ENDBRANCH  25  27
ENDBRANCH  21  25
ENDBRANCH   1  23
TORSDOF 4
ENDMDL
MODEL 4
REMARK VINA RESULT:      -8.1      0.924      1.630
REMARK  Name = 
REMARK  5 active torsions:
REMARK  status: ('A' for Active; 'I' for Inactive)
REMARK    1  A    between atoms: C_1  and  C_2
REMARK    2  A    between atoms: C_2  and  O_3
REMARK    3  A    between atoms: O_3  and  C_4
REMARK    4  A    between atoms: C_4  and  C_6
REMARK    5  A    between atoms: N_8  and  C_9
REMARK                            x       y       z     vdW  Elec       q    Type
REMARK                         _______ _______ _______ _____ _____    ______ ____
ROOT
ATOM      1  C   UNL     1       0.875   9.361  19.773  0.00  0.00    +0.000 A 
ATOM      2  C   UNL     1       1.430   9.633  18.527  0.00  0.00    +0.000 A 
ATOM      3  C   UNL     1       2.309   8.739  17.934  0.00  0.00    +0.000 A 
ATOM      4  C   UNL     1       2.645   7.532  18.561  0.00  0.00    +0.000 A 
ATOM      5  C   UNL     1       2.113   7.253  19.830  0.00  0.00    +0.000 A 
ATOM      6  C   UNL     1       1.278   8.205  20.456  0.00  0.00    +0.000 A 
ATOM      7  N   UNL     1       2.379   6.068  20.548  0.00  0.00    +0.000 N 
ATOM      8  C   UNL     1       2.725   4.830  20.071  0.00  0.00    +0.000 C 
ATOM      9  O   UNL     1       3.014   3.942  20.877  0.00  0.00    +0.000 OA
ATOM     10  C   UNL     1       2.595   4.532  18.592  0.00  0.00    +0.000 C 
ATOM     11  N   UNL     1       3.516   5.312  17.806  0.00  0.00    +0.000 N 
ATOM     12  C   UNL     1       3.592   6.679  17.855  0.00  0.00    +0.000 A 
ATOM     13  N   UNL     1       4.603   7.112  17.129  0.00  0.00    +0.000 NA
ATOM     14  C   UNL     1       5.155   6.000  16.556  0.00  0.00    +0.000 A 
ATOM     15  C   UNL     1       6.267   5.901  15.712  0.00  0.00    +0.000 A 
ATOM     16  C   UNL     1       6.616   4.648  15.205  0.00  0.00    +0.000 A 
ATOM     17  C   UNL     1       5.850   3.521  15.509  0.00  0.00    +0.000 A 
ATOM     18  C   UNL     1       4.742   3.597  16.365  0.00  0.00    +0.000 A 
ATOM     19  C   UNL     1       4.441   4.855  16.899  0.00  0.00    +0.000 A 
ATOM     20  H   UNL     1       2.283   6.091  21.558  0.00  0.00    +0.000 HD
ENDROOT
BRANCH   1  23
ATOM     21  C   UNL     1       0.178  11.276  21.179  0.00  0.00    +0.000 C 
ATOM     22  O   UNL     1       1.279  11.649  21.559  0.00  0.00    +0.000 OA
ATOM     23  N   UNL     1      -0.108  10.201  20.340  0.00  0.00    +0.000 N 
ATOM     24  H   UNL     1      -1.064  10.142  20.001  0.00  0.00    +0.000 HD
BRANCH  21  25
ATOM     25  C   UNL     1      -1.065  12.087  21.594  0.00  0.00    +0.000 C 
ATOM     26  O   UNL     1      -1.423  12.180  22.757  0.00  0.00    +0.000 OA
BRANCH  25  27
ATOM     27  O   UNL     1      -1.656  12.588  20.491  0.00  0.00    +0.000 OA
BRANCH  27  29
ATOM     28  C   UNL     1      -0.609  13.366  18.456  0.00  0.00    +0.000 C 
ATOM     29  C   UNL     1      -1.039  13.716  19.866  0.00  0.00    +0.000 C 
ENDBRANCH  27  29
ENDBRANCH  25  27
ENDBRANCH  21  25
ENDBRANCH   1  23
TORSDOF 4
ENDMDL
MODEL 5
REMARK VINA RESULT:      -7.9      1.359      1.825
REMARK  Name = 
REMARK  5 active torsions:
REMARK  status: ('A' for Active; 'I' for Inactive)
REMARK    1  A    between atoms: C_1  and  C_2
REMARK    2  A    between atoms: C_2  and  O_3
REMARK    3  A    between atoms: O_3  and  C_4
REMARK    4  A    between atoms: C_4  and  C_6
REMARK    5  A    between atoms: N_8  and  C_9
REMARK                            x       y       z     vdW  Elec       q    Type
REMARK                         _______ _______ _______ _____ _____    ______ ____
ROOT
ATOM      1  C   UNL     1       0.777  10.008  19.439  0.00  0.00    +0.000 A 
ATOM      2  C   UNL     1       1.410  10.092  18.203  0.00  0.00    +0.000 A 
ATOM      3  C   UNL     1       2.236   9.069  17.761  0.00  0.00    +0.000 A 
ATOM      4  C   UNL     1       2.437   7.918  18.533  0.00  0.00    +0.000 A 
ATOM      5  C   UNL     1       1.824   7.827  19.793  0.00  0.00    +0.000 A 
ATOM      6  C   UNL     1       1.047   8.907  20.265  0.00  0.00    +0.000 A 
ATOM      7  N   UNL     1       1.954   6.713  20.648  0.00  0.00    +0.000 N 
ATOM      8  C   UNL     1       2.213   5.405  20.329  0.00  0.00    +0.000 C 
ATOM      9  O   UNL     1       2.387   4.593  21.241  0.00  0.00    +0.000 OA
ATOM     10  C   UNL     1       2.128   4.954  18.886  0.00  0.00    +0.000 C 
ATOM     11  N   UNL     1       3.148   5.564  18.073  0.00  0.00    +0.000 N 
ATOM     12  C   UNL     1       3.339   6.917  17.977  0.00  0.00    +0.000 A 
ATOM     13  N   UNL     1       4.416   7.182  17.267  0.00  0.00    +0.000 NA
ATOM     14  C   UNL     1       4.896   5.972  16.849  0.00  0.00    +0.000 A 
ATOM     15  C   UNL     1       6.034   5.690  16.084  0.00  0.00    +0.000 A 
ATOM     16  C   UNL     1       6.296   4.364  15.736  0.00  0.00    +0.000 A 
ATOM     17  C   UNL     1       5.423   3.343  16.117  0.00  0.00    +0.000 A 
ATOM     18  C   UNL     1       4.287   3.604  16.897  0.00  0.00    +0.000 A 
ATOM     19  C   UNL     1       4.071   4.935  17.274  0.00  0.00    +0.000 A 
ATOM     20  H   UNL     1       1.813   6.857  21.643  0.00  0.00    +0.000 HD
ENDROOT
BRANCH   1  23
ATOM     21  C   UNL     1      -1.428  11.128  19.308  0.00  0.00    +0.000 C 
ATOM     22  O   UNL     1      -1.925  10.471  18.404  0.00  0.00    +0.000 OA
ATOM     23  N   UNL     1      -0.155  10.983  19.856  0.00  0.00    +0.000 N 
ATOM     24  H   UNL     1       0.026  11.507  20.708  0.00  0.00    +0.000 HD
BRANCH  21  25
ATOM     25  C   UNL     1      -2.282  12.210  19.997  0.00  0.00    +0.000 C 
ATOM     26  O   UNL     1      -3.485  12.303  19.814  0.00  0.00    +0.000 OA
BRANCH  25  27
ATOM     27  O   UNL     1      -1.481  12.998  20.742  0.00  0.00    +0.000 OA
BRANCH  27  29
ATOM     28  C   UNL     1      -0.415  14.676  19.368  0.00  0.00    +0.000 C 
ATOM     29  C   UNL     1      -1.456  14.393  20.432  0.00  0.00    +0.000 C 
ENDBRANCH  27  29
ENDBRANCH  25  27
ENDBRANCH  21  25
ENDBRANCH   1  23
TORSDOF 4
ENDMDL
MODEL 6
REMARK VINA RESULT:      -7.9      1.451      1.684
REMARK  Name = 
REMARK  5 active torsions:
REMARK  status: ('A' for Active; 'I' for Inactive)
REMARK    1  A    between atoms: C_1  and  C_2
REMARK    2  A    between atoms: C_2  and  O_3
REMARK    3  A    between atoms: O_3  and  C_4
REMARK    4  A    between atoms: C_4  and  C_6
REMARK    5  A    between atoms: N_8  and  C_9
REMARK                            x       y       z     vdW  Elec       q    Type
REMARK                         _______ _______ _______ _____ _____    ______ ____
ROOT
ATOM      1  C   UNL     1       0.711  10.074  19.601  0.00  0.00    +0.000 A 
ATOM      2  C   UNL     1       1.315  10.182  18.353  0.00  0.00    +0.000 A 
ATOM      3  C   UNL     1       2.134   9.169  17.874  0.00  0.00    +0.000 A 
ATOM      4  C   UNL     1       2.358   8.006  18.622  0.00  0.00    +0.000 A 
ATOM      5  C   UNL     1       1.774   7.892  19.894  0.00  0.00    +0.000 A 
ATOM      6  C   UNL     1       1.004   8.961  20.402  0.00  0.00    +0.000 A 
ATOM      7  N   UNL     1       1.928   6.764  20.728  0.00  0.00    +0.000 N 
ATOM      8  C   UNL     1       2.185   5.463  20.380  0.00  0.00    +0.000 C 
ATOM      9  O   UNL     1       2.383   4.637  21.275  0.00  0.00    +0.000 OA
ATOM     10  C   UNL     1       2.068   5.036  18.932  0.00  0.00    +0.000 C 
ATOM     11  N   UNL     1       3.067   5.663  18.106  0.00  0.00    +0.000 N 
ATOM     12  C   UNL     1       3.250   7.019  18.029  0.00  0.00    +0.000 A 
ATOM     13  N   UNL     1       4.310   7.300  17.298  0.00  0.00    +0.000 NA
ATOM     14  C   UNL     1       4.784   6.099  16.850  0.00  0.00    +0.000 A 
ATOM     15  C   UNL     1       5.906   5.834  16.054  0.00  0.00    +0.000 A 
ATOM     16  C   UNL     1       6.165   4.516  15.678  0.00  0.00    +0.000 A 
ATOM     17  C   UNL     1       5.304   3.485  16.062  0.00  0.00    +0.000 A 
ATOM     18  C   UNL     1       4.186   3.728  16.872  0.00  0.00    +0.000 A 
ATOM     19  C   UNL     1       3.973   5.051  17.276  0.00  0.00    +0.000 A 
ATOM     20  H   UNL     1       1.810   6.891  21.728  0.00  0.00    +0.000 HD
ENDROOT
BRANCH   1  23
ATOM     21  C   UNL     1      -1.469  11.243  19.484  0.00  0.00    +0.000 C 
ATOM     22  O   UNL     1      -1.952  10.658  18.525  0.00  0.00    +0.000 OA
ATOM     23  N   UNL     1      -0.215  11.038  20.055  0.00  0.00    +0.000 N 
ATOM     24  H   UNL     1      -0.049  11.502  20.945  0.00  0.00    +0.000 HD
BRANCH  21  25
ATOM     25  C   UNL     1      -2.322  12.295  20.219  0.00  0.00    +0.000 C 
ATOM     26  O   UNL     1      -1.959  12.814  21.262  0.00  0.00    +0.000 OA
BRANCH  25  27
ATOM     27  O   UNL     1      -3.481  12.469  19.553  0.00  0.00    +0.000 OA
BRANCH  27  29
ATOM     28  C   UNL     1      -5.215  13.955  20.344  0.00  0.00    +0.000 C 
ATOM     29  C   UNL     1      -4.682  12.536  20.325  0.00  0.00    +0.000 C 
ENDBRANCH  27  29
ENDBRANCH  25  27
ENDBRANCH  21  25
ENDBRANCH   1  23
TORSDOF 4
ENDMDL
MODEL 7
REMARK VINA RESULT:      -7.2      2.325      8.726
REMARK  Name = 
REMARK  5 active torsions:
REMARK  status: ('A' for Active; 'I' for Inactive)
REMARK    1  A    between atoms: C_1  and  C_2
REMARK    2  A    between atoms: C_2  and  O_3
REMARK    3  A    between atoms: O_3  and  C_4
REMARK    4  A    between atoms: C_4  and  C_6
REMARK    5  A    between atoms: N_8  and  C_9
REMARK                            x       y       z     vdW  Elec       q    Type
REMARK                         _______ _______ _______ _____ _____    ______ ____
ROOT
ATOM      1  C   UNL     1       2.779   7.480  18.371  0.00  0.00    +0.000 A 
ATOM      2  C   UNL     1       2.077   8.280  17.476  0.00  0.00    +0.000 A 
ATOM      3  C   UNL     1       1.108   9.164  17.927  0.00  0.00    +0.000 A 
ATOM      4  C   UNL     1       0.824   9.290  19.294  0.00  0.00    +0.000 A 
ATOM      5  C   UNL     1       1.507   8.472  20.208  0.00  0.00    +0.000 A 
ATOM      6  C   UNL     1       2.438   7.524  19.730  0.00  0.00    +0.000 A 
ATOM      7  N   UNL     1       1.305   8.520  21.604  0.00  0.00    +0.000 N 
ATOM      8  C   UNL     1       0.871   9.566  22.377  0.00  0.00    +0.000 C 
ATOM      9  O   UNL     1       0.666   9.371  23.578  0.00  0.00    +0.000 OA
ATOM     10  C   UNL     1       0.804  10.959  21.787  0.00  0.00    +0.000 C 
ATOM     11  N   UNL     1      -0.190  11.053  20.750  0.00  0.00    +0.000 N 
ATOM     12  C   UNL     1      -0.225  10.235  19.651  0.00  0.00    +0.000 A 
ATOM     13  N   UNL     1      -1.310  10.464  18.939  0.00  0.00    +0.000 NA
ATOM     14  C   UNL     1      -1.957  11.494  19.565  0.00  0.00    +0.000 A 
ATOM     15  C   UNL     1      -3.170  12.107  19.230  0.00  0.00    +0.000 A 
ATOM     16  C   UNL     1      -3.611  13.185  19.999  0.00  0.00    +0.000 A 
ATOM     17  C   UNL     1      -2.841  13.662  21.062  0.00  0.00    +0.000 A 
ATOM     18  C   UNL     1      -1.631  13.051  21.422  0.00  0.00    +0.000 A 
ATOM     19  C   UNL     1      -1.234  11.942  20.666  0.00  0.00    +0.000 A 
ATOM     20  H   UNL     1       1.530   7.693  22.147  0.00  0.00    +0.000 HD
ENDROOT
BRANCH   1  23
ATOM     21  C   UNL     1       3.713   5.310  17.629  0.00  0.00    +0.000 C 
ATOM     22  O   UNL     1       2.695   4.634  17.679  0.00  0.00    +0.000 OA
ATOM     23  N   UNL     1       3.846   6.661  17.944  0.00  0.00    +0.000 N 
ATOM     24  H   UNL     1       4.729   7.094  17.686  0.00  0.00    +0.000 HD
BRANCH  21  25
ATOM     25  C   UNL     1       5.010   4.663  17.106  0.00  0.00    +0.000 C 
ATOM     26  O   UNL     1       5.128   4.283  15.952  0.00  0.00    +0.000 OA
BRANCH  25  27
ATOM     27  O   UNL     1       5.894   4.564  18.118  0.00  0.00    +0.000 OA
BRANCH  27  29
ATOM     28  C   UNL     1       7.663   6.197  18.338  0.00  0.00    +0.000 C 
ATOM     29  C   UNL     1       7.268   4.828  17.822  0.00  0.00    +0.000 C 
ENDBRANCH  27  29
ENDBRANCH  25  27
ENDBRANCH  21  25
ENDBRANCH   1  23
TORSDOF 4
ENDMDL
MODEL 8
REMARK VINA RESULT:      -7.1      2.262      8.948
REMARK  Name = 
REMARK  5 active torsions:
REMARK  status: ('A' for Active; 'I' for Inactive)
REMARK    1  A    between atoms: C_1  and  C_2
REMARK    2  A    between atoms: C_2  and  O_3
REMARK    3  A    between atoms: O_3  and  C_4
REMARK    4  A    between atoms: C_4  and  C_6
REMARK    5  A    between atoms: N_8  and  C_9
REMARK                            x       y       z     vdW  Elec       q    Type
REMARK                         _______ _______ _______ _____ _____    ______ ____
ROOT
ATOM      1  C   UNL     1       2.753   7.391  18.496  0.00  0.00    +0.000 A 
ATOM      2  C   UNL     1       2.070   8.175  17.572  0.00  0.00    +0.000 A 
ATOM      3  C   UNL     1       1.098   9.073  17.988  0.00  0.00    +0.000 A 
ATOM      4  C   UNL     1       0.793   9.230  19.347  0.00  0.00    +0.000 A 
ATOM      5  C   UNL     1       1.456   8.429  20.290  0.00  0.00    +0.000 A 
ATOM      6  C   UNL     1       2.390   7.466  19.849  0.00  0.00    +0.000 A 
ATOM      7  N   UNL     1       1.232   8.509  21.681  0.00  0.00    +0.000 N 
ATOM      8  C   UNL     1       0.790   9.573  22.424  0.00  0.00    +0.000 C 
ATOM      9  O   UNL     1       0.564   9.406  23.625  0.00  0.00    +0.000 OA
ATOM     10  C   UNL     1       0.739  10.953  21.803  0.00  0.00    +0.000 C 
ATOM     11  N   UNL     1      -0.237  11.029  20.747  0.00  0.00    +0.000 N 
ATOM     12  C   UNL     1      -0.258  10.187  19.666  0.00  0.00    +0.000 A 
ATOM     13  N   UNL     1      -1.330  10.406  18.931  0.00  0.00    +0.000 NA
ATOM     14  C   UNL     1      -1.982  11.452  19.523  0.00  0.00    +0.000 A 
ATOM     15  C   UNL     1      -3.186  12.063  19.155  0.00  0.00    +0.000 A 
ATOM     16  C   UNL     1      -3.634  13.160  19.894  0.00  0.00    +0.000 A 
ATOM     17  C   UNL     1      -2.879  13.656  20.958  0.00  0.00    +0.000 A 
ATOM     18  C   UNL     1      -1.679  13.048  21.351  0.00  0.00    +0.000 A 
ATOM     19  C   UNL     1      -1.274  11.920  20.627  0.00  0.00    +0.000 A 
ATOM     20  H   UNL     1       1.443   7.692  22.245  0.00  0.00    +0.000 HD
ENDROOT
BRANCH   1  23
ATOM     21  C   UNL     1       3.673   5.227  17.722  0.00  0.00    +0.000 C 
ATOM     22  O   UNL     1       2.636   4.581  17.675  0.00  0.00    +0.000 OA
ATOM     23  N   UNL     1       3.823   6.558  18.105  0.00  0.00    +0.000 N 
ATOM     24  H   UNL     1       4.734   6.973  17.926  0.00  0.00    +0.000 HD
BRANCH  21  25
ATOM     25  C   UNL     1       4.984   4.562  17.258  0.00  0.00    +0.000 C 
ATOM     26  O   UNL     1       5.913   4.354  18.021  0.00  0.00    +0.000 OA
BRANCH  25  27
ATOM     27  O   UNL     1       4.916   4.325  15.933  0.00  0.00    +0.000 OA
BRANCH  27  29
ATOM     28  C   UNL     1       5.952   4.004  13.773  0.00  0.00    +0.000 C 
ATOM     29  C   UNL     1       6.112   3.900  15.277  0.00  0.00    +0.000 C 
ENDBRANCH  27  29
ENDBRANCH  25  27
ENDBRANCH  21  25
ENDBRANCH   1  23
TORSDOF 4
ENDMDL
MODEL 9
REMARK VINA RESULT:      -7.1      3.434      4.635
REMARK  Name = 
REMARK  5 active torsions:
REMARK  status: ('A' for Active; 'I' for Inactive)
REMARK    1  A    between atoms: C_1  and  C_2
REMARK    2  A    between atoms: C_2  and  O_3
REMARK    3  A    between atoms: O_3  and  C_4
REMARK    4  A    between atoms: C_4  and  C_6
REMARK    5  A    between atoms: N_8  and  C_9
REMARK                            x       y       z     vdW  Elec       q    Type
REMARK                         _______ _______ _______ _____ _____    ______ ____
ROOT
ATOM      1  C   UNL     1      -2.203  11.677  19.035  0.00  0.00    +0.000 A 
ATOM      2  C   UNL     1      -1.852  10.989  17.879  0.00  0.00    +0.000 A 
ATOM      3  C   UNL     1      -0.762  10.130  17.870  0.00  0.00    +0.000 A 
ATOM      4  C   UNL     1      -0.000   9.918  19.026  0.00  0.00    +0.000 A 
ATOM      5  C   UNL     1      -0.326  10.623  20.196  0.00  0.00    +0.000 A 
ATOM      6  C   UNL     1      -1.391  11.550  20.172  0.00  0.00    +0.000 A 
ATOM      7  N   UNL     1       0.369  10.482  21.416  0.00  0.00    +0.000 N 
ATOM      8  C   UNL     1       1.080   9.407  21.883  0.00  0.00    +0.000 C 
ATOM      9  O   UNL     1       1.702   9.522  22.942  0.00  0.00    +0.000 OA
ATOM     10  C   UNL     1       0.966   8.069  21.183  0.00  0.00    +0.000 C 
ATOM     11  N   UNL     1       1.519   8.111  19.854  0.00  0.00    +0.000 N 
ATOM     12  C   UNL     1       1.132   9.011  18.896  0.00  0.00    +0.000 A 
ATOM     13  N   UNL     1       1.891   8.898  17.824  0.00  0.00    +0.000 NA
ATOM     14  C   UNL     1       2.747   7.863  18.080  0.00  0.00    +0.000 A 
ATOM     15  C   UNL     1       3.773   7.347  17.278  0.00  0.00    +0.000 A 
ATOM     16  C   UNL     1       4.490   6.241  17.736  0.00  0.00    +0.000 A 
ATOM     17  C   UNL     1       4.169   5.642  18.956  0.00  0.00    +0.000 A 
ATOM     18  C   UNL     1       3.157   6.154  19.780  0.00  0.00    +0.000 A 
ATOM     19  C   UNL     1       2.484   7.292  19.322  0.00  0.00    +0.000 A 
ATOM     20  H   UNL     1       0.334  11.252  22.076  0.00  0.00    +0.000 HD
ENDROOT
BRANCH   1  23
ATOM     21  C   UNL     1      -4.641  12.002  18.748  0.00  0.00    +0.000 C 
ATOM     22  O   UNL     1      -4.938  10.889  18.337  0.00  0.00    +0.000 OA
ATOM     23  N   UNL     1      -3.373  12.464  19.096  0.00  0.00    +0.000 N 
ATOM     24  H   UNL     1      -3.341  13.362  19.572  0.00  0.00    +0.000 HD
BRANCH  21  25
ATOM     25  C   UNL     1      -5.764  13.031  18.986  0.00  0.00    +0.000 C 
ATOM     26  O   UNL     1      -5.706  13.863  19.877  0.00  0.00    +0.000 OA
BRANCH  25  27
ATOM     27  O   UNL     1      -6.763  12.805  18.111  0.00  0.00    +0.000 OA
BRANCH  27  29
ATOM     28  C   UNL     1      -7.189  14.550  16.493  0.00  0.00    +0.000 C 
ATOM     29  C   UNL     1      -7.623  13.902  17.793  0.00  0.00    +0.000 C 
ENDBRANCH  27  29
ENDBRANCH  25  27
ENDBRANCH  21  25
ENDBRANCH   1  23
TORSDOF 4
ENDMDL
