MODEL 1
REMARK VINA RESULT:      -7.0      0.000      0.000
REMARK  Name = 
REMARK  9 active torsions:
REMARK  status: ('A' for Active; 'I' for Inactive)
REMARK    1  A    between atoms: C_2  and  C_3
REMARK    2  A    between atoms: C_3  and  O_4
REMARK    3  A    between atoms: O_4  and  C_5
REMARK    4  A    between atoms: C_5  and  C_6
REMARK    5  A    between atoms: C_6  and  N_7
REMARK    6  A    between atoms: C_6  and  C_11
REMARK    7  A    between atoms: C_8  and  C_9
REMARK    8  A    between atoms: N_13  and  C_14
REMARK    9  A    between atoms: C_14  and  C_15
REMARK                            x       y       z     vdW  Elec       q    Type
REMARK                         _______ _______ _______ _____ _____    ______ ____
ROOT
ATOM      1  C   UNL     1       6.786   5.089  16.320  0.00  0.00    +0.000 C 
ENDROOT
BRANCH   1   2
ATOM      2  N   UNL     1       7.346   6.369  16.775  0.00  0.00    +0.000 N 
ATOM      3  C   UNL     1       7.739   6.721  18.027  0.00  0.00    +0.000 C 
ATOM      4  C   UNL     1       7.666   5.730  19.162  0.00  0.00    +0.000 C 
ATOM      5  O   UNL     1       8.173   7.860  18.210  0.00  0.00    +0.000 OA
ATOM      6  H   UNL     1       7.546   7.079  16.081  0.00  0.00    +0.000 HD
ENDBRANCH   1   2
BRANCH   1   7
ATOM      7  C   UNL     1       5.248   5.101  16.424  0.00  0.00    +0.000 C 
ATOM      8  O   UNL     1       4.611   6.144  16.282  0.00  0.00    +0.000 OA
ATOM      9  N   UNL     1       4.648   3.927  16.810  0.00  0.00    +0.000 N 
ATOM     10  H   UNL     1       5.223   3.122  17.041  0.00  0.00    +0.000 HD
BRANCH   9  11
ATOM     11  C   UNL     1       3.208   3.803  16.918  0.00  0.00    +0.000 C 
BRANCH  11  12
ATOM     12  C   UNL     1       2.760   3.553  18.339  0.00  0.00    +0.000 A 
ATOM     13  C   UNL     1       3.593   2.892  19.255  0.00  0.00    +0.000 A 
ATOM     14  C   UNL     1       3.184   2.701  20.578  0.00  0.00    +0.000 A 
ATOM     15  C   UNL     1       1.943   3.169  21.003  0.00  0.00    +0.000 A 
ATOM     16  C   UNL     1       1.110   3.839  20.108  0.00  0.00    +0.000 A 
ATOM     17  C   UNL     1       1.520   4.035  18.787  0.00  0.00    +0.000 A 
ENDBRANCH  11  12
ENDBRANCH   9  11
ENDBRANCH   1   7
BRANCH   1  18
ATOM     18  C   UNL     1       7.180   4.774  14.868  0.00  0.00    +0.000 C 
BRANCH  18  19
ATOM     19  O   UNL     1       6.117   4.052  14.233  0.00  0.00    +0.000 OA
BRANCH  19  20
ATOM     20  C   UNL     1       6.367   3.833  12.845  0.00  0.00    +0.000 C 
BRANCH  20  22
ATOM     21  C   UNL     1       4.330   3.339  11.453  0.00  0.00    +0.000 C 
ATOM     22  C   UNL     1       5.274   2.954  12.326  0.00  0.00    +0.000 C 
ENDBRANCH  20  22
ENDBRANCH  19  20
ENDBRANCH  18  19
ENDBRANCH   1  18
TORSDOF 8
ENDMDL
MODEL 2
REMARK VINA RESULT:      -6.9      2.274      4.357
REMARK  Name = 
REMARK  9 active torsions:
REMARK  status: ('A' for Active; 'I' for Inactive)
REMARK    1  A    between atoms: C_2  and  C_3
REMARK    2  A    between atoms: C_3  and  O_4
REMARK    3  A    between atoms: O_4  and  C_5
REMARK    4  A    between atoms: C_5  and  C_6
REMARK    5  A    between atoms: C_6  and  N_7
REMARK    6  A    between atoms: C_6  and  C_11
REMARK    7  A    between atoms: C_8  and  C_9
REMARK    8  A    between atoms: N_13  and  C_14
REMARK    9  A    between atoms: C_14  and  C_15
REMARK                            x       y       z     vdW  Elec       q    Type
REMARK                         _______ _______ _______ _____ _____    ______ ____
ROOT
ATOM      1  C   UNL     1       4.821   5.577  16.316  0.00  0.00    +0.000 C 
ENDROOT
BRANCH   1   2
ATOM      2  N   UNL     1       6.176   5.795  15.790  0.00  0.00    +0.000 N 
ATOM      3  C   UNL     1       6.808   5.133  14.786  0.00  0.00    +0.000 C 
ATOM      4  C   UNL     1       6.103   4.040  14.023  0.00  0.00    +0.000 C 
ATOM      5  O   UNL     1       7.962   5.460  14.501  0.00  0.00    +0.000 OA
ATOM      6  H   UNL     1       6.709   6.578  16.150  0.00  0.00    +0.000 HD
ENDBRANCH   1   2
BRANCH   1   7
ATOM      7  C   UNL     1       4.795   4.360  17.262  0.00  0.00    +0.000 C 
ATOM      8  O   UNL     1       5.698   4.169  18.075  0.00  0.00    +0.000 OA
ATOM      9  N   UNL     1       3.791   3.443  17.058  0.00  0.00    +0.000 N 
ATOM     10  H   UNL     1       3.139   3.576  16.290  0.00  0.00    +0.000 HD
BRANCH   9  11
ATOM     11  C   UNL     1       3.643   2.272  17.897  0.00  0.00    +0.000 C 
BRANCH  11  12
ATOM     12  C   UNL     1       2.822   2.553  19.134  0.00  0.00    +0.000 A 
ATOM     13  C   UNL     1       1.453   2.848  19.042  0.00  0.00    +0.000 A 
ATOM     14  C   UNL     1       0.695   3.069  20.196  0.00  0.00    +0.000 A 
ATOM     15  C   UNL     1       1.292   2.993  21.452  0.00  0.00    +0.000 A 
ATOM     16  C   UNL     1       2.647   2.688  21.560  0.00  0.00    +0.000 A 
ATOM     17  C   UNL     1       3.405   2.463  20.408  0.00  0.00    +0.000 A 
ENDBRANCH  11  12
ENDBRANCH   9  11
ENDBRANCH   1   7
BRANCH   1  18
ATOM     18  C   UNL     1       4.296   6.804  17.077  0.00  0.00    +0.000 C 
BRANCH  18  19
ATOM     19  O   UNL     1       3.147   6.431  17.849  0.00  0.00    +0.000 OA
BRANCH  19  20
ATOM     20  C   UNL     1       2.672   7.501  18.664  0.00  0.00    +0.000 C 
BRANCH  20  22
ATOM     21  C   UNL     1       1.272   9.470  17.962  0.00  0.00    +0.000 C 
ATOM     22  C   UNL     1       2.295   8.625  17.753  0.00  0.00    +0.000 C 
ENDBRANCH  20  22
ENDBRANCH  19  20
ENDBRANCH  18  19
ENDBRANCH   1  18
TORSDOF 8
ENDMDL
MODEL 3
REMARK VINA RESULT:      -6.9      0.720      1.347
REMARK  Name = 
REMARK  9 active torsions:
REMARK  status: ('A' for Active; 'I' for Inactive)
REMARK    1  A    between atoms: C_2  and  C_3
REMARK    2  A    between atoms: C_3  and  O_4
REMARK    3  A    between atoms: O_4  and  C_5
REMARK    4  A    between atoms: C_5  and  C_6
REMARK    5  A    between atoms: C_6  and  N_7
REMARK    6  A    between atoms: C_6  and  C_11
REMARK    7  A    between atoms: C_8  and  C_9
REMARK    8  A    between atoms: N_13  and  C_14
REMARK    9  A    between atoms: C_14  and  C_15
REMARK                            x       y       z     vdW  Elec       q    Type
REMARK                         _______ _______ _______ _____ _____    ______ ____
ROOT
ATOM      1  C   UNL     1       6.545   4.737  16.811  0.00  0.00    +0.000 C 
ENDROOT
BRANCH   1   2
ATOM      2  N   UNL     1       6.995   6.127  16.975  0.00  0.00    +0.000 N 
ATOM      3  C   UNL     1       7.600   6.696  18.049  0.00  0.00    +0.000 C 
ATOM      4  C   UNL     1       7.931   5.875  19.270  0.00  0.00    +0.000 C 
ATOM      5  O   UNL     1       7.890   7.893  17.996  0.00  0.00    +0.000 OA
ATOM      6  H   UNL     1       6.926   6.749  16.179  0.00  0.00    +0.000 HD
ENDBRANCH   1   2
BRANCH   1   7
ATOM      7  C   UNL     1       5.010   4.645  16.929  0.00  0.00    +0.000 C 
ATOM      8  O   UNL     1       4.310   5.657  16.899  0.00  0.00    +0.000 OA
ATOM      9  N   UNL     1       4.487   3.404  17.198  0.00  0.00    +0.000 N 
ATOM     10  H   UNL     1       5.112   2.616  17.342  0.00  0.00    +0.000 HD
BRANCH   9  11
ATOM     11  C   UNL     1       3.058   3.183  17.306  0.00  0.00    +0.000 C 
BRANCH  11  12
ATOM     12  C   UNL     1       2.576   3.240  18.736  0.00  0.00    +0.000 A 
ATOM     13  C   UNL     1       1.359   3.857  19.065  0.00  0.00    +0.000 A 
ATOM     14  C   UNL     1       0.903   3.870  20.386  0.00  0.00    +0.000 A 
ATOM     15  C   UNL     1       1.652   3.265  21.392  0.00  0.00    +0.000 A 
ATOM     16  C   UNL     1       2.856   2.637  21.079  0.00  0.00    +0.000 A 
ATOM     17  C   UNL     1       3.311   2.619  19.758  0.00  0.00    +0.000 A 
ENDBRANCH  11  12
ENDBRANCH   9  11
ENDBRANCH   1   7
BRANCH   1  18
ATOM     18  C   UNL     1       6.971   4.151  15.456  0.00  0.00    +0.000 C 
BRANCH  18  19
ATOM     19  O   UNL     1       7.155   5.216  14.513  0.00  0.00    +0.000 OA
BRANCH  19  20
ATOM     20  C   UNL     1       7.102   4.757  13.163  0.00  0.00    +0.000 C 
BRANCH  20  22
ATOM     21  C   UNL     1       5.608   3.135  11.953  0.00  0.00    +0.000 C 
ATOM     22  C   UNL     1       6.041   3.707  13.088  0.00  0.00    +0.000 C 
ENDBRANCH  20  22
ENDBRANCH  19  20
ENDBRANCH  18  19
ENDBRANCH   1  18
TORSDOF 8
ENDMDL
MODEL 4
REMARK VINA RESULT:      -6.8      1.994      4.255
REMARK  Name = 
REMARK  9 active torsions:
REMARK  status: ('A' for Active; 'I' for Inactive)
REMARK    1  A    between atoms: C_2  and  C_3
REMARK    2  A    between atoms: C_3  and  O_4
REMARK    3  A    between atoms: O_4  and  C_5
REMARK    4  A    between atoms: C_5  and  C_6
REMARK    5  A    between atoms: C_6  and  N_7
REMARK    6  A    between atoms: C_6  and  C_11
REMARK    7  A    between atoms: C_8  and  C_9
REMARK    8  A    between atoms: N_13  and  C_14
REMARK    9  A    between atoms: C_14  and  C_15
REMARK                            x       y       z     vdW  Elec       q    Type
REMARK                         _______ _______ _______ _____ _____    ______ ____
ROOT
ATOM      1  C   UNL     1       5.075   5.689  16.458  0.00  0.00    +0.000 C 
ENDROOT
BRANCH   1   2
ATOM      2  N   UNL     1       6.384   5.773  15.794  0.00  0.00    +0.000 N 
ATOM      3  C   UNL     1       6.827   5.081  14.712  0.00  0.00    +0.000 C 
ATOM      4  C   UNL     1       5.924   4.102  14.004  0.00  0.00    +0.000 C 
ATOM      5  O   UNL     1       7.974   5.286  14.312  0.00  0.00    +0.000 OA
ATOM      6  H   UNL     1       7.038   6.477  16.112  0.00  0.00    +0.000 HD
ENDBRANCH   1   2
BRANCH   1   7
ATOM      7  C   UNL     1       4.994   4.429  17.342  0.00  0.00    +0.000 C 
ATOM      8  O   UNL     1       5.875   4.171  18.162  0.00  0.00    +0.000 OA
ATOM      9  N   UNL     1       3.967   3.554  17.076  0.00  0.00    +0.000 N 
ATOM     10  H   UNL     1       3.335   3.744  16.304  0.00  0.00    +0.000 HD
BRANCH   9  11
ATOM     11  C   UNL     1       3.768   2.349  17.854  0.00  0.00    +0.000 C 
BRANCH  11  12
ATOM     12  C   UNL     1       2.878   2.581  19.052  0.00  0.00    +0.000 A 
ATOM     13  C   UNL     1       1.492   2.743  18.903  0.00  0.00    +0.000 A 
ATOM     14  C   UNL     1       0.673   2.918  20.021  0.00  0.00    +0.000 A 
ATOM     15  C   UNL     1       1.225   2.929  21.300  0.00  0.00    +0.000 A 
ATOM     16  C   UNL     1       2.597   2.756  21.465  0.00  0.00    +0.000 A 
ATOM     17  C   UNL     1       3.417   2.576  20.348  0.00  0.00    +0.000 A 
ENDBRANCH  11  12
ENDBRANCH   9  11
ENDBRANCH   1   7
BRANCH   1  18
ATOM     18  C   UNL     1       4.794   6.923  17.330  0.00  0.00    +0.000 C 
BRANCH  18  19
ATOM     19  O   UNL     1       3.532   7.492  16.956  0.00  0.00    +0.000 OA
BRANCH  19  20
ATOM     20  C   UNL     1       2.720   7.797  18.089  0.00  0.00    +0.000 C 
BRANCH  20  22
ATOM     21  C   UNL     1       2.318   6.242  20.026  0.00  0.00    +0.000 C 
ATOM     22  C   UNL     1       2.309   6.499  18.707  0.00  0.00    +0.000 C 
ENDBRANCH  20  22
ENDBRANCH  19  20
ENDBRANCH  18  19
ENDBRANCH   1  18
TORSDOF 8
ENDMDL
MODEL 5
REMARK VINA RESULT:      -6.8      1.358      1.596
REMARK  Name = 
REMARK  9 active torsions:
REMARK  status: ('A' for Active; 'I' for Inactive)
REMARK    1  A    between atoms: C_2  and  C_3
REMARK    2  A    between atoms: C_3  and  O_4
REMARK    3  A    between atoms: O_4  and  C_5
REMARK    4  A    between atoms: C_5  and  C_6
REMARK    5  A    between atoms: C_6  and  N_7
REMARK    6  A    between atoms: C_6  and  C_11
REMARK    7  A    between atoms: C_8  and  C_9
REMARK    8  A    between atoms: N_13  and  C_14
REMARK    9  A    between atoms: C_14  and  C_15
REMARK                            x       y       z     vdW  Elec       q    Type
REMARK                         _______ _______ _______ _____ _____    ______ ____
ROOT
ATOM      1  C   UNL     1       5.884   4.752  16.794  0.00  0.00    +0.000 C 
ENDROOT
BRANCH   1   2
ATOM      2  N   UNL     1       6.337   6.139  16.614  0.00  0.00    +0.000 N 
ATOM      3  C   UNL     1       7.179   6.860  17.398  0.00  0.00    +0.000 C 
ATOM      4  C   UNL     1       7.816   6.239  18.616  0.00  0.00    +0.000 C 
ATOM      5  O   UNL     1       7.426   8.025  17.081  0.00  0.00    +0.000 OA
ATOM      6  H   UNL     1       6.063   6.626  15.769  0.00  0.00    +0.000 HD
ENDBRANCH   1   2
BRANCH   1   7
ATOM      7  C   UNL     1       4.364   4.706  17.047  0.00  0.00    +0.000 C 
ATOM      8  O   UNL     1       3.660   3.841  16.527  0.00  0.00    +0.000 OA
ATOM      9  N   UNL     1       3.827   5.746  17.768  0.00  0.00    +0.000 N 
ATOM     10  H   UNL     1       4.427   6.508  18.071  0.00  0.00    +0.000 HD
BRANCH   9  11
ATOM     11  C   UNL     1       2.417   5.803  18.095  0.00  0.00    +0.000 C 
BRANCH  11  12
ATOM     12  C   UNL     1       2.039   4.814  19.173  0.00  0.00    +0.000 A 
ATOM     13  C   UNL     1       1.198   3.725  18.893  0.00  0.00    +0.000 A 
ATOM     14  C   UNL     1       0.886   2.794  19.888  0.00  0.00    +0.000 A 
ATOM     15  C   UNL     1       1.412   2.936  21.170  0.00  0.00    +0.000 A 
ATOM     16  C   UNL     1       2.259   4.004  21.459  0.00  0.00    +0.000 A 
ATOM     17  C   UNL     1       2.575   4.933  20.464  0.00  0.00    +0.000 A 
ENDBRANCH  11  12
ENDBRANCH   9  11
ENDBRANCH   1   7
BRANCH   1  18
ATOM     18  C   UNL     1       6.207   3.879  15.572  0.00  0.00    +0.000 C 
BRANCH  18  19
ATOM     19  O   UNL     1       5.754   4.538  14.382  0.00  0.00    +0.000 OA
BRANCH  19  20
ATOM     20  C   UNL     1       6.567   4.229  13.250  0.00  0.00    +0.000 C 
BRANCH  20  22
ATOM     21  C   UNL     1       4.713   3.430  11.749  0.00  0.00    +0.000 C 
ATOM     22  C   UNL     1       5.839   3.201  12.444  0.00  0.00    +0.000 C 
ENDBRANCH  20  22
ENDBRANCH  19  20
ENDBRANCH  18  19
ENDBRANCH   1  18
TORSDOF 8
ENDMDL
MODEL 6
REMARK VINA RESULT:      -6.8      1.322      1.405
REMARK  Name = 
REMARK  9 active torsions:
REMARK  status: ('A' for Active; 'I' for Inactive)
REMARK    1  A    between atoms: C_2  and  C_3
REMARK    2  A    between atoms: C_3  and  O_4
REMARK    3  A    between atoms: O_4  and  C_5
REMARK    4  A    between atoms: C_5  and  C_6
REMARK    5  A    between atoms: C_6  and  N_7
REMARK    6  A    between atoms: C_6  and  C_11
REMARK    7  A    between atoms: C_8  and  C_9
REMARK    8  A    between atoms: N_13  and  C_14
REMARK    9  A    between atoms: C_14  and  C_15
REMARK                            x       y       z     vdW  Elec       q    Type
REMARK                         _______ _______ _______ _____ _____    ______ ____
ROOT
ATOM      1  C   UNL     1       5.975   4.807  16.680  0.00  0.00    +0.000 C 
ENDROOT
BRANCH   1   2
ATOM      2  N   UNL     1       6.449   6.193  16.563  0.00  0.00    +0.000 N 
ATOM      3  C   UNL     1       7.242   6.889  17.420  0.00  0.00    +0.000 C 
ATOM      4  C   UNL     1       7.790   6.234  18.663  0.00  0.00    +0.000 C 
ATOM      5  O   UNL     1       7.518   8.059  17.148  0.00  0.00    +0.000 OA
ATOM      6  H   UNL     1       6.237   6.703  15.714  0.00  0.00    +0.000 HD
ENDBRANCH   1   2
BRANCH   1   7
ATOM      7  C   UNL     1       4.454   4.772  16.927  0.00  0.00    +0.000 C 
ATOM      8  O   UNL     1       3.736   3.959  16.346  0.00  0.00    +0.000 OA
ATOM      9  N   UNL     1       3.935   5.769  17.718  0.00  0.00    +0.000 N 
ATOM     10  H   UNL     1       4.548   6.496  18.075  0.00  0.00    +0.000 HD
BRANCH   9  11
ATOM     11  C   UNL     1       2.525   5.829  18.046  0.00  0.00    +0.000 C 
BRANCH  11  12
ATOM     12  C   UNL     1       2.136   4.809  19.090  0.00  0.00    +0.000 A 
ATOM     13  C   UNL     1       2.568   4.933  20.419  0.00  0.00    +0.000 A 
ATOM     14  C   UNL     1       2.170   4.005  21.386  0.00  0.00    +0.000 A 
ATOM     15  C   UNL     1       1.334   2.946  21.039  0.00  0.00    +0.000 A 
ATOM     16  C   UNL     1       0.885   2.818  19.726  0.00  0.00    +0.000 A 
ATOM     17  C   UNL     1       1.279   3.747  18.760  0.00  0.00    +0.000 A 
ENDBRANCH  11  12
ENDBRANCH   9  11
ENDBRANCH   1   7
BRANCH   1  18
ATOM     18  C   UNL     1       6.290   3.985  15.420  0.00  0.00    +0.000 C 
BRANCH  18  19
ATOM     19  O   UNL     1       6.417   4.866  14.296  0.00  0.00    +0.000 OA
BRANCH  19  20
ATOM     20  C   UNL     1       6.787   4.172  13.105  0.00  0.00    +0.000 C 
BRANCH  20  22
ATOM     21  C   UNL     1       4.721   3.531  11.821  0.00  0.00    +0.000 C 
ATOM     22  C   UNL     1       5.656   3.262  12.747  0.00  0.00    +0.000 C 
ENDBRANCH  20  22
ENDBRANCH  19  20
ENDBRANCH  18  19
ENDBRANCH   1  18
TORSDOF 8
ENDMDL
MODEL 7
REMARK VINA RESULT:      -6.7      1.940      4.230
REMARK  Name = 
REMARK  9 active torsions:
REMARK  status: ('A' for Active; 'I' for Inactive)
REMARK    1  A    between atoms: C_2  and  C_3
REMARK    2  A    between atoms: C_3  and  O_4
REMARK    3  A    between atoms: O_4  and  C_5
REMARK    4  A    between atoms: C_5  and  C_6
REMARK    5  A    between atoms: C_6  and  N_7
REMARK    6  A    between atoms: C_6  and  C_11
REMARK    7  A    between atoms: C_8  and  C_9
REMARK    8  A    between atoms: N_13  and  C_14
REMARK    9  A    between atoms: C_14  and  C_15
REMARK                            x       y       z     vdW  Elec       q    Type
REMARK                         _______ _______ _______ _____ _____    ______ ____
ROOT
ATOM      1  C   UNL     1       5.354   5.624  16.329  0.00  0.00    +0.000 C 
ENDROOT
BRANCH   1   2
ATOM      2  N   UNL     1       6.588   5.729  15.539  0.00  0.00    +0.000 N 
ATOM      3  C   UNL     1       6.954   5.011  14.445  0.00  0.00    +0.000 C 
ATOM      4  C   UNL     1       6.029   3.971  13.864  0.00  0.00    +0.000 C 
ATOM      5  O   UNL     1       8.048   5.243  13.928  0.00  0.00    +0.000 OA
ATOM      6  H   UNL     1       7.240   6.470  15.766  0.00  0.00    +0.000 HD
ENDBRANCH   1   2
BRANCH   1   7
ATOM      7  C   UNL     1       5.429   4.426  17.297  0.00  0.00    +0.000 C 
ATOM      8  O   UNL     1       6.468   4.163  17.901  0.00  0.00    +0.000 OA
ATOM      9  N   UNL     1       4.329   3.603  17.344  0.00  0.00    +0.000 N 
ATOM     10  H   UNL     1       3.539   3.785  16.732  0.00  0.00    +0.000 HD
BRANCH   9  11
ATOM     11  C   UNL     1       4.267   2.460  18.233  0.00  0.00    +0.000 C 
BRANCH  11  12
ATOM     12  C   UNL     1       3.141   2.573  19.234  0.00  0.00    +0.000 A 
ATOM     13  C   UNL     1       3.403   2.662  20.610  0.00  0.00    +0.000 A 
ATOM     14  C   UNL     1       2.356   2.806  21.525  0.00  0.00    +0.000 A 
ATOM     15  C   UNL     1       1.038   2.868  21.078  0.00  0.00    +0.000 A 
ATOM     16  C   UNL     1       0.763   2.795  19.713  0.00  0.00    +0.000 A 
ATOM     17  C   UNL     1       1.810   2.655  18.798  0.00  0.00    +0.000 A 
ENDBRANCH  11  12
ENDBRANCH   9  11
ENDBRANCH   1   7
BRANCH   1  18
ATOM     18  C   UNL     1       5.082   6.899  17.142  0.00  0.00    +0.000 C 
BRANCH  18  19
ATOM     19  O   UNL     1       4.277   6.573  18.283  0.00  0.00    +0.000 OA
BRANCH  19  20
ATOM     20  C   UNL     1       2.950   7.086  18.173  0.00  0.00    +0.000 C 
BRANCH  20  22
ATOM     21  C   UNL     1       2.011   6.355  20.390  0.00  0.00    +0.000 C 
ATOM     22  C   UNL     1       2.073   6.253  19.052  0.00  0.00    +0.000 C 
ENDBRANCH  20  22
ENDBRANCH  19  20
ENDBRANCH  18  19
ENDBRANCH   1  18
TORSDOF 8
ENDMDL
MODEL 8
REMARK VINA RESULT:      -6.7      1.534      1.946
REMARK  Name = 
REMARK  9 active torsions:
REMARK  status: ('A' for Active; 'I' for Inactive)
REMARK    1  A    between atoms: C_2  and  C_3
REMARK    2  A    between atoms: C_3  and  O_4
REMARK    3  A    between atoms: O_4  and  C_5
REMARK    4  A    between atoms: C_5  and  C_6
REMARK    5  A    between atoms: C_6  and  N_7
REMARK    6  A    between atoms: C_6  and  C_11
REMARK    7  A    between atoms: C_8  and  C_9
REMARK    8  A    between atoms: N_13  and  C_14
REMARK    9  A    between atoms: C_14  and  C_15
REMARK                            x       y       z     vdW  Elec       q    Type
REMARK                         _______ _______ _______ _____ _____    ______ ____
ROOT
ATOM      1  C   UNL     1       6.378   4.955  17.090  0.00  0.00    +0.000 C 
ENDROOT
BRANCH   1   2
ATOM      2  N   UNL     1       6.757   6.341  16.783  0.00  0.00    +0.000 N 
ATOM      3  C   UNL     1       7.532   7.185  17.514  0.00  0.00    +0.000 C 
ATOM      4  C   UNL     1       8.163   6.725  18.805  0.00  0.00    +0.000 C 
ATOM      5  O   UNL     1       7.723   8.326  17.088  0.00  0.00    +0.000 OA
ATOM      6  H   UNL     1       6.484   6.726  15.887  0.00  0.00    +0.000 HD
ENDBRANCH   1   2
BRANCH   1   7
ATOM      7  C   UNL     1       5.497   4.899  18.354  0.00  0.00    +0.000 C 
ATOM      8  O   UNL     1       5.707   4.068  19.237  0.00  0.00    +0.000 OA
ATOM      9  N   UNL     1       4.401   5.728  18.378  0.00  0.00    +0.000 N 
ATOM     10  H   UNL     1       4.193   6.308  17.571  0.00  0.00    +0.000 HD
BRANCH   9  11
ATOM     11  C   UNL     1       3.512   5.786  19.521  0.00  0.00    +0.000 C 
BRANCH  11  12
ATOM     12  C   UNL     1       2.504   4.661  19.522  0.00  0.00    +0.000 A 
ATOM     13  C   UNL     1       2.012   4.131  18.319  0.00  0.00    +0.000 A 
ATOM     14  C   UNL     1       1.109   3.064  18.331  0.00  0.00    +0.000 A 
ATOM     15  C   UNL     1       0.691   2.511  19.539  0.00  0.00    +0.000 A 
ATOM     16  C   UNL     1       1.182   3.019  20.741  0.00  0.00    +0.000 A 
ATOM     17  C   UNL     1       2.088   4.083  20.731  0.00  0.00    +0.000 A 
ENDBRANCH  11  12
ENDBRANCH   9  11
ENDBRANCH   1   7
BRANCH   1  18
ATOM     18  C   UNL     1       5.616   4.298  15.928  0.00  0.00    +0.000 C 
BRANCH  18  19
ATOM     19  O   UNL     1       5.722   5.124  14.761  0.00  0.00    +0.000 OA
BRANCH  19  20
ATOM     20  C   UNL     1       6.693   4.632  13.838  0.00  0.00    +0.000 C 
BRANCH  20  22
ATOM     21  C   UNL     1       5.255   3.499  12.112  0.00  0.00    +0.000 C 
ATOM     22  C   UNL     1       6.098   3.442  13.155  0.00  0.00    +0.000 C 
ENDBRANCH  20  22
ENDBRANCH  19  20
ENDBRANCH  18  19
ENDBRANCH   1  18
TORSDOF 8
ENDMDL
MODEL 9
REMARK VINA RESULT:      -6.6      1.017      1.138
REMARK  Name = 
REMARK  9 active torsions:
REMARK  status: ('A' for Active; 'I' for Inactive)
REMARK    1  A    between atoms: C_2  and  C_3
REMARK    2  A    between atoms: C_3  and  O_4
REMARK    3  A    between atoms: O_4  and  C_5
REMARK    4  A    between atoms: C_5  and  C_6
REMARK    5  A    between atoms: C_6  and  N_7
REMARK    6  A    between atoms: C_6  and  C_11
REMARK    7  A    between atoms: C_8  and  C_9
REMARK    8  A    between atoms: N_13  and  C_14
REMARK    9  A    between atoms: C_14  and  C_15
REMARK                            x       y       z     vdW  Elec       q    Type
REMARK                         _______ _______ _______ _____ _____    ______ ____
ROOT
ATOM      1  C   UNL     1       5.936   5.938  16.505  0.00  0.00    +0.000 C 
ENDROOT
BRANCH   1   2
ATOM      2  N   UNL     1       6.766   7.087  16.889  0.00  0.00    +0.000 N 
ATOM      3  C   UNL     1       7.616   7.201  17.943  0.00  0.00    +0.000 C 
ATOM      4  C   UNL     1       7.835   6.040  18.882  0.00  0.00    +0.000 C 
ATOM      5  O   UNL     1       8.217   8.265  18.103  0.00  0.00    +0.000 OA
ATOM      6  H   UNL     1       6.788   7.890  16.271  0.00  0.00    +0.000 HD
ENDBRANCH   1   2
BRANCH   1   7
ATOM      7  C   UNL     1       4.529   6.053  17.125  0.00  0.00    +0.000 C 
ATOM      8  O   UNL     1       4.110   7.128  17.551  0.00  0.00    +0.000 OA
ATOM      9  N   UNL     1       3.832   4.880  17.293  0.00  0.00    +0.000 N 
ATOM     10  H   UNL     1       4.268   3.997  17.043  0.00  0.00    +0.000 HD
BRANCH   9  11
ATOM     11  C   UNL     1       2.490   4.859  17.839  0.00  0.00    +0.000 C 
BRANCH  11  12
ATOM     12  C   UNL     1       2.398   4.037  19.102  0.00  0.00    +0.000 A 
ATOM     13  C   UNL     1       3.513   3.340  19.595  0.00  0.00    +0.000 A 
ATOM     14  C   UNL     1       3.428   2.614  20.786  0.00  0.00    +0.000 A 
ATOM     15  C   UNL     1       2.233   2.577  21.501  0.00  0.00    +0.000 A 
ATOM     16  C   UNL     1       1.121   3.275  21.032  0.00  0.00    +0.000 A 
ATOM     17  C   UNL     1       1.206   4.005  19.843  0.00  0.00    +0.000 A 
ENDBRANCH  11  12
ENDBRANCH   9  11
ENDBRANCH   1   7
BRANCH   1  18
ATOM     18  C   UNL     1       5.795   5.814  14.980  0.00  0.00    +0.000 C 
BRANCH  18  19
ATOM     19  O   UNL     1       5.278   4.518  14.653  0.00  0.00    +0.000 OA
BRANCH  19  20
ATOM     20  C   UNL     1       6.281   3.653  14.122  0.00  0.00    +0.000 C 
BRANCH  20  22
ATOM     21  C   UNL     1       5.614   2.732  11.879  0.00  0.00    +0.000 C 
ATOM     22  C   UNL     1       6.167   3.696  12.632  0.00  0.00    +0.000 C 
ENDBRANCH  20  22
ENDBRANCH  19  20
ENDBRANCH  18  19
ENDBRANCH   1  18
TORSDOF 8
ENDMDL
