MODEL 1
REMARK VINA RESULT:      -8.3      0.000      0.000
REMARK  Name = 
REMARK  8 active torsions:
REMARK  status: ('A' for Active; 'I' for Inactive)
REMARK    1  A    between atoms: C_1  and  O_2
REMARK    2  A    between atoms: O_2  and  C_3
REMARK    3  A    between atoms: C_3  and  C_5
REMARK    4  A    between atoms: C_8  and  C_9
REMARK    5  A    between atoms: C_10  and  C_11
REMARK    6  A    between atoms: C_10  and  C_23
REMARK    7  A    between atoms: C_17  and  C_18
REMARK    8  A    between atoms: C_17  and  C_19
REMARK                            x       y       z     vdW  Elec       q    Type
REMARK                         _______ _______ _______ _____ _____    ______ ____
ROOT
ATOM      1  C   UNL     1       1.395   8.803  20.625  0.00  0.00    +0.000 C 
ATOM      2  C   UNL     1       1.594   8.641  19.295  0.00  0.00    +0.000 C 
ENDROOT
BRANCH   2   3
ATOM      3  C   UNL     1       2.389   7.444  18.870  0.00  0.00    +0.000 A 
ATOM      4  C   UNL     1       3.533   7.493  18.009  0.00  0.00    +0.000 A 
ATOM      5  C   UNL     1       4.189   6.283  17.521  0.00  0.00    +0.000 A 
ATOM      6  C   UNL     1       3.701   5.082  17.926  0.00  0.00    +0.000 A 
ATOM      7  C   UNL     1       2.592   5.067  18.785  0.00  0.00    +0.000 A 
ATOM      8  C   UNL     1       1.955   6.230  19.277  0.00  0.00    +0.000 A 
ATOM      9  C   UNL     1       2.044   3.816  19.216  0.00  0.00    +0.000 C 
ATOM     10  C   UNL     1       1.425   3.760  17.534  0.00  0.00    +0.000 C 
ATOM     11  C   UNL     1       3.523   3.631  20.161  0.00  0.00    +0.000 C 
ATOM     12  C   UNL     1       1.864   2.343  19.232  0.00  0.00    +0.000 C 
ATOM     13  C   UNL     1       2.956   1.787  18.350  0.00  0.00    +0.000 C 
ATOM     14  S   UNL     1       4.269   3.218  17.375  0.00  0.00    +0.000 S 
ENDBRANCH   2   3
BRANCH   1  18
ATOM     15  C   UNL     1      -1.162  11.565  22.775  0.00  0.00    +0.000 A 
ATOM     16  C   UNL     1      -1.092  10.214  23.130  0.00  0.00    +0.000 A 
ATOM     17  C   UNL     1      -0.227   9.345  22.434  0.00  0.00    +0.000 A 
ATOM     18  C   UNL     1       0.572   9.800  21.365  0.00  0.00    +0.000 A 
ATOM     19  C   UNL     1       0.527  11.164  21.070  0.00  0.00    +0.000 A 
ATOM     20  C   UNL     1      -0.348  12.029  21.743  0.00  0.00    +0.000 A 
BRANCH  15  21
ATOM     21  C   UNL     1      -2.085  12.482  23.513  0.00  0.00    +0.000 C 
ATOM     22  O   UNL     1      -1.830  13.645  23.772  0.00  0.00    +0.000 OA
BRANCH  21  24
ATOM     23  C   UNL     1      -4.203  12.581  24.549  0.00  0.00    +0.000 C 
ATOM     24  O   UNL     1      -3.238  11.833  23.812  0.00  0.00    +0.000 OA
ENDBRANCH  21  24
ENDBRANCH  15  21
ENDBRANCH   1  18
BRANCH   2  25
ATOM     25  C   UNL     1       1.134   9.549  18.190  0.00  0.00    +0.000 C 
ATOM     26  F   UNL     1       1.290   9.023  16.946  0.00  0.00    +0.000 F 
ATOM     27  F   UNL     1      -0.179   9.874  18.304  0.00  0.00    +0.000 F 
ATOM     28  F   UNL     1       1.828  10.722  18.176  0.00  0.00    +0.000 F 
ENDBRANCH   2  25
TORSDOF 5
ENDMDL
MODEL 2
REMARK VINA RESULT:      -8.1      0.560      1.164
REMARK  Name = 
REMARK  8 active torsions:
REMARK  status: ('A' for Active; 'I' for Inactive)
REMARK    1  A    between atoms: C_1  and  O_2
REMARK    2  A    between atoms: O_2  and  C_3
REMARK    3  A    between atoms: C_3  and  C_5
REMARK    4  A    between atoms: C_8  and  C_9
REMARK    5  A    between atoms: C_10  and  C_11
REMARK    6  A    between atoms: C_10  and  C_23
REMARK    7  A    between atoms: C_17  and  C_18
REMARK    8  A    between atoms: C_17  and  C_19
REMARK                            x       y       z     vdW  Elec       q    Type
REMARK                         _______ _______ _______ _____ _____    ______ ____
ROOT
ATOM      1  C   UNL     1       1.439   8.975  20.601  0.00  0.00    +0.000 C 
ATOM      2  C   UNL     1       1.548   8.733  19.272  0.00  0.00    +0.000 C 
ENDROOT
BRANCH   2   3
ATOM      3  C   UNL     1       2.336   7.524  18.867  0.00  0.00    +0.000 A 
ATOM      4  C   UNL     1       3.473   7.551  17.995  0.00  0.00    +0.000 A 
ATOM      5  C   UNL     1       4.121   6.328  17.528  0.00  0.00    +0.000 A 
ATOM      6  C   UNL     1       3.632   5.138  17.963  0.00  0.00    +0.000 A 
ATOM      7  C   UNL     1       2.530   5.145  18.832  0.00  0.00    +0.000 A 
ATOM      8  C   UNL     1       1.902   6.321  19.303  0.00  0.00    +0.000 A 
ATOM      9  C   UNL     1       1.982   3.906  19.294  0.00  0.00    +0.000 C 
ATOM     10  C   UNL     1       1.348   3.816  17.618  0.00  0.00    +0.000 C 
ATOM     11  C   UNL     1       3.468   3.736  20.231  0.00  0.00    +0.000 C 
ATOM     12  C   UNL     1       1.797   2.434  19.344  0.00  0.00    +0.000 C 
ATOM     13  C   UNL     1       2.879   1.856  18.464  0.00  0.00    +0.000 C 
ATOM     14  S   UNL     1       4.189   3.260  17.448  0.00  0.00    +0.000 S 
ENDBRANCH   2   3
BRANCH   1  18
ATOM     15  C   UNL     1      -1.027  11.837  22.728  0.00  0.00    +0.000 A 
ATOM     16  C   UNL     1      -1.024  10.482  23.073  0.00  0.00    +0.000 A 
ATOM     17  C   UNL     1      -0.187   9.579  22.386  0.00  0.00    +0.000 A 
ATOM     18  C   UNL     1       0.649  10.004  21.334  0.00  0.00    +0.000 A 
ATOM     19  C   UNL     1       0.671  11.370  21.048  0.00  0.00    +0.000 A 
ATOM     20  C   UNL     1      -0.175  12.270  21.713  0.00  0.00    +0.000 A 
BRANCH  15  21
ATOM     21  C   UNL     1      -1.919  12.790  23.456  0.00  0.00    +0.000 C 
ATOM     22  O   UNL     1      -3.050  12.522  23.824  0.00  0.00    +0.000 OA
BRANCH  21  24
ATOM     23  C   UNL     1      -1.820  14.812  24.671  0.00  0.00    +0.000 C 
ATOM     24  O   UNL     1      -1.269  13.962  23.666  0.00  0.00    +0.000 OA
ENDBRANCH  21  24
ENDBRANCH  15  21
ENDBRANCH   1  18
BRANCH   2  25
ATOM     25  C   UNL     1       0.994   9.562  18.148  0.00  0.00    +0.000 C 
ATOM     26  F   UNL     1      -0.292   9.959  18.340  0.00  0.00    +0.000 F 
ATOM     27  F   UNL     1       1.715  10.693  17.939  0.00  0.00    +0.000 F 
ATOM     28  F   UNL     1       0.989   8.877  16.969  0.00  0.00    +0.000 F 
ENDBRANCH   2  25
TORSDOF 5
ENDMDL
MODEL 3
REMARK VINA RESULT:      -8.0      0.521      1.277
REMARK  Name = 
REMARK  8 active torsions:
REMARK  status: ('A' for Active; 'I' for Inactive)
REMARK    1  A    between atoms: C_1  and  O_2
REMARK    2  A    between atoms: O_2  and  C_3
REMARK    3  A    between atoms: C_3  and  C_5
REMARK    4  A    between atoms: C_8  and  C_9
REMARK    5  A    between atoms: C_10  and  C_11
REMARK    6  A    between atoms: C_10  and  C_23
REMARK    7  A    between atoms: C_17  and  C_18
REMARK    8  A    between atoms: C_17  and  C_19
REMARK                            x       y       z     vdW  Elec       q    Type
REMARK                         _______ _______ _______ _____ _____    ______ ____
ROOT
ATOM      1  C   UNL     1       1.297   8.983  20.670  0.00  0.00    +0.000 C 
ATOM      2  C   UNL     1       1.474   8.738  19.350  0.00  0.00    +0.000 C 
ENDROOT
BRANCH   2   3
ATOM      3  C   UNL     1       2.260   7.515  18.987  0.00  0.00    +0.000 A 
ATOM      4  C   UNL     1       3.433   7.517  18.165  0.00  0.00    +0.000 A 
ATOM      5  C   UNL     1       4.081   6.281  17.734  0.00  0.00    +0.000 A 
ATOM      6  C   UNL     1       3.556   5.102  18.156  0.00  0.00    +0.000 A 
ATOM      7  C   UNL     1       2.419   5.133  18.978  0.00  0.00    +0.000 A 
ATOM      8  C   UNL     1       1.789   6.322  19.413  0.00  0.00    +0.000 A 
ATOM      9  C   UNL     1       1.832   3.906  19.425  0.00  0.00    +0.000 C 
ATOM     10  C   UNL     1       1.268   3.812  17.724  0.00  0.00    +0.000 C 
ATOM     11  C   UNL     1       3.274   3.720  20.425  0.00  0.00    +0.000 C 
ATOM     12  C   UNL     1       1.622   2.438  19.477  0.00  0.00    +0.000 C 
ATOM     13  C   UNL     1       2.732   1.836  18.649  0.00  0.00    +0.000 C 
ATOM     14  S   UNL     1       4.105   3.212  17.679  0.00  0.00    +0.000 S 
ENDBRANCH   2   3
BRANCH   1  18
ATOM     15  C   UNL     1      -0.881  12.136  22.697  0.00  0.00    +0.000 A 
ATOM     16  C   UNL     1       0.025  12.422  21.671  0.00  0.00    +0.000 A 
ATOM     17  C   UNL     1       0.695  11.375  21.007  0.00  0.00    +0.000 A 
ATOM     18  C   UNL     1       0.488  10.026  21.361  0.00  0.00    +0.000 A 
ATOM     19  C   UNL     1      -0.464   9.764  22.347  0.00  0.00    +0.000 A 
ATOM     20  C   UNL     1      -1.117  10.802  23.027  0.00  0.00    +0.000 A 
BRANCH  15  21
ATOM     21  C   UNL     1      -1.585  13.251  23.402  0.00  0.00    +0.000 C 
ATOM     22  O   UNL     1      -1.018  14.155  23.988  0.00  0.00    +0.000 OA
BRANCH  21  24
ATOM     23  C   UNL     1      -3.712  13.395  24.416  0.00  0.00    +0.000 C 
ATOM     24  O   UNL     1      -2.927  13.111  23.259  0.00  0.00    +0.000 OA
ENDBRANCH  21  24
ENDBRANCH  15  21
ENDBRANCH   1  18
BRANCH   2  25
ATOM     25  C   UNL     1       0.999   9.578  18.198  0.00  0.00    +0.000 C 
ATOM     26  F   UNL     1      -0.249  10.089  18.368  0.00  0.00    +0.000 F 
ATOM     27  F   UNL     1       1.816  10.637  17.962  0.00  0.00    +0.000 F 
ATOM     28  F   UNL     1       0.942   8.862  17.039  0.00  0.00    +0.000 F 
ENDBRANCH   2  25
TORSDOF 5
ENDMDL
MODEL 4
REMARK VINA RESULT:      -8.0      0.714      1.541
REMARK  Name = 
REMARK  8 active torsions:
REMARK  status: ('A' for Active; 'I' for Inactive)
REMARK    1  A    between atoms: C_1  and  O_2
REMARK    2  A    between atoms: O_2  and  C_3
REMARK    3  A    between atoms: C_3  and  C_5
REMARK    4  A    between atoms: C_8  and  C_9
REMARK    5  A    between atoms: C_10  and  C_11
REMARK    6  A    between atoms: C_10  and  C_23
REMARK    7  A    between atoms: C_17  and  C_18
REMARK    8  A    between atoms: C_17  and  C_19
REMARK                            x       y       z     vdW  Elec       q    Type
REMARK                         _______ _______ _______ _____ _____    ______ ____
ROOT
ATOM      1  C   UNL     1       1.294   9.009  20.625  0.00  0.00    +0.000 C 
ATOM      2  C   UNL     1       1.448   8.781  19.298  0.00  0.00    +0.000 C 
ENDROOT
BRANCH   2   3
ATOM      3  C   UNL     1       2.266   7.587  18.907  0.00  0.00    +0.000 A 
ATOM      4  C   UNL     1       3.426   7.637  18.069  0.00  0.00    +0.000 A 
ATOM      5  C   UNL     1       4.106   6.428  17.611  0.00  0.00    +0.000 A 
ATOM      6  C   UNL     1       3.624   5.228  18.024  0.00  0.00    +0.000 A 
ATOM      7  C   UNL     1       2.498   5.212  18.861  0.00  0.00    +0.000 A 
ATOM      8  C   UNL     1       1.838   6.375  19.323  0.00  0.00    +0.000 A 
ATOM      9  C   UNL     1       1.956   3.961  19.299  0.00  0.00    +0.000 C 
ATOM     10  C   UNL     1       1.372   3.873  17.606  0.00  0.00    +0.000 C 
ATOM     11  C   UNL     1       3.417   3.807  20.277  0.00  0.00    +0.000 C 
ATOM     12  C   UNL     1       1.793   2.486  19.334  0.00  0.00    +0.000 C 
ATOM     13  C   UNL     1       2.909   1.931  18.481  0.00  0.00    +0.000 C 
ATOM     14  S   UNL     1       4.224   3.363  17.512  0.00  0.00    +0.000 S 
ENDBRANCH   2   3
BRANCH   1  18
ATOM     15  C   UNL     1      -0.941  12.072  22.727  0.00  0.00    +0.000 A 
ATOM     16  C   UNL     1      -0.078  12.395  21.675  0.00  0.00    +0.000 A 
ATOM     17  C   UNL     1       0.611  11.376  20.987  0.00  0.00    +0.000 A 
ATOM     18  C   UNL     1       0.467  10.019  21.342  0.00  0.00    +0.000 A 
ATOM     19  C   UNL     1      -0.445   9.718  22.356  0.00  0.00    +0.000 A 
ATOM     20  C   UNL     1      -1.117  10.729  23.059  0.00  0.00    +0.000 A 
BRANCH  15  21
ATOM     21  C   UNL     1      -1.666  13.157  23.456  0.00  0.00    +0.000 C 
ATOM     22  O   UNL     1      -2.844  13.104  23.765  0.00  0.00    +0.000 OA
BRANCH  21  24
ATOM     23  C   UNL     1      -1.263  15.115  24.711  0.00  0.00    +0.000 C 
ATOM     24  O   UNL     1      -0.813  14.173  23.738  0.00  0.00    +0.000 OA
ENDBRANCH  21  24
ENDBRANCH  15  21
ENDBRANCH   1  18
BRANCH   2  25
ATOM     25  C   UNL     1       0.917   9.612  18.165  0.00  0.00    +0.000 C 
ATOM     26  F   UNL     1       1.593  10.776  17.973  0.00  0.00    +0.000 F 
ATOM     27  F   UNL     1       0.954   8.950  16.980  0.00  0.00    +0.000 F 
ATOM     28  F   UNL     1      -0.381   9.977  18.370  0.00  0.00    +0.000 F 
ENDBRANCH   2  25
TORSDOF 5
ENDMDL
MODEL 5
REMARK VINA RESULT:      -7.9      0.633      1.006
REMARK  Name = 
REMARK  8 active torsions:
REMARK  status: ('A' for Active; 'I' for Inactive)
REMARK    1  A    between atoms: C_1  and  O_2
REMARK    2  A    between atoms: O_2  and  C_3
REMARK    3  A    between atoms: C_3  and  C_5
REMARK    4  A    between atoms: C_8  and  C_9
REMARK    5  A    between atoms: C_10  and  C_11
REMARK    6  A    between atoms: C_10  and  C_23
REMARK    7  A    between atoms: C_17  and  C_18
REMARK    8  A    between atoms: C_17  and  C_19
REMARK                            x       y       z     vdW  Elec       q    Type
REMARK                         _______ _______ _______ _____ _____    ______ ____
ROOT
ATOM      1  C   UNL     1       1.065   8.797  20.501  0.00  0.00    +0.000 C 
ATOM      2  C   UNL     1       1.543   8.765  19.234  0.00  0.00    +0.000 C 
ENDROOT
BRANCH   2   3
ATOM      3  C   UNL     1       2.340   7.557  18.842  0.00  0.00    +0.000 A 
ATOM      4  C   UNL     1       3.497   7.587  17.999  0.00  0.00    +0.000 A 
ATOM      5  C   UNL     1       4.155   6.365  17.541  0.00  0.00    +0.000 A 
ATOM      6  C   UNL     1       3.654   5.174  17.958  0.00  0.00    +0.000 A 
ATOM      7  C   UNL     1       2.532   5.178  18.800  0.00  0.00    +0.000 A 
ATOM      8  C   UNL     1       1.893   6.353  19.261  0.00  0.00    +0.000 A 
ATOM      9  C   UNL     1       1.971   3.938  19.242  0.00  0.00    +0.000 C 
ATOM     10  C   UNL     1       1.378   3.857  17.551  0.00  0.00    +0.000 C 
ATOM     11  C   UNL     1       3.433   3.760  20.214  0.00  0.00    +0.000 C 
ATOM     12  C   UNL     1       1.783   2.466  19.280  0.00  0.00    +0.000 C 
ATOM     13  C   UNL     1       2.886   1.890  18.424  0.00  0.00    +0.000 C 
ATOM     14  S   UNL     1       4.221   3.298  17.447  0.00  0.00    +0.000 S 
ENDBRANCH   2   3
BRANCH   1  18
ATOM     15  C   UNL     1      -1.664  11.478  22.540  0.00  0.00    +0.000 A 
ATOM     16  C   UNL     1      -1.011  10.448  23.224  0.00  0.00    +0.000 A 
ATOM     17  C   UNL     1      -0.104   9.612  22.543  0.00  0.00    +0.000 A 
ATOM     18  C   UNL     1       0.159   9.775  21.168  0.00  0.00    +0.000 A 
ATOM     19  C   UNL     1      -0.461  10.846  20.522  0.00  0.00    +0.000 A 
ATOM     20  C   UNL     1      -1.382  11.668  21.188  0.00  0.00    +0.000 A 
BRANCH  15  21
ATOM     21  C   UNL     1      -2.629  12.360  23.266  0.00  0.00    +0.000 C 
ATOM     22  O   UNL     1      -3.526  11.949  23.982  0.00  0.00    +0.000 OA
BRANCH  21  24
ATOM     23  C   UNL     1      -1.301  14.225  23.839  0.00  0.00    +0.000 C 
ATOM     24  O   UNL     1      -2.332  13.662  23.029  0.00  0.00    +0.000 OA
ENDBRANCH  21  24
ENDBRANCH  15  21
ENDBRANCH   1  18
BRANCH   2  25
ATOM     25  C   UNL     1       1.396   9.825  18.179  0.00  0.00    +0.000 C 
ATOM     26  F   UNL     1       2.117   9.582  17.052  0.00  0.00    +0.000 F 
ATOM     27  F   UNL     1       0.107   9.979  17.781  0.00  0.00    +0.000 F 
ATOM     28  F   UNL     1       1.818  11.043  18.623  0.00  0.00    +0.000 F 
ENDBRANCH   2  25
TORSDOF 5
ENDMDL
MODEL 6
REMARK VINA RESULT:      -7.8      2.839      4.125
REMARK  Name = 
REMARK  8 active torsions:
REMARK  status: ('A' for Active; 'I' for Inactive)
REMARK    1  A    between atoms: C_1  and  O_2
REMARK    2  A    between atoms: O_2  and  C_3
REMARK    3  A    between atoms: C_3  and  C_5
REMARK    4  A    between atoms: C_8  and  C_9
REMARK    5  A    between atoms: C_10  and  C_11
REMARK    6  A    between atoms: C_10  and  C_23
REMARK    7  A    between atoms: C_17  and  C_18
REMARK    8  A    between atoms: C_17  and  C_19
REMARK                            x       y       z     vdW  Elec       q    Type
REMARK                         _______ _______ _______ _____ _____    ______ ____
ROOT
ATOM      1  C   UNL     1       1.352   9.327  18.213  0.00  0.00    +0.000 C 
ATOM      2  C   UNL     1       1.667   8.294  19.031  0.00  0.00    +0.000 C 
ENDROOT
BRANCH   2   3
ATOM      3  C   UNL     1       2.370   7.127  18.406  0.00  0.00    +0.000 A 
ATOM      4  C   UNL     1       1.790   5.829  18.231  0.00  0.00    +0.000 A 
ATOM      5  C   UNL     1       2.565   4.692  17.739  0.00  0.00    +0.000 A 
ATOM      6  C   UNL     1       3.868   4.897  17.419  0.00  0.00    +0.000 A 
ATOM      7  C   UNL     1       4.402   6.184  17.582  0.00  0.00    +0.000 A 
ATOM      8  C   UNL     1       3.661   7.296  18.045  0.00  0.00    +0.000 A 
ATOM      9  C   UNL     1       5.778   6.427  17.269  0.00  0.00    +0.000 C 
ATOM     10  C   UNL     1       6.055   5.529  18.798  0.00  0.00    +0.000 C 
ATOM     11  C   UNL     1       5.312   6.194  15.584  0.00  0.00    +0.000 C 
ATOM     12  C   UNL     1       7.176   6.075  16.918  0.00  0.00    +0.000 C 
ATOM     13  C   UNL     1       7.160   4.598  16.603  0.00  0.00    +0.000 C 
ATOM     14  S   UNL     1       5.266   3.558  16.824  0.00  0.00    +0.000 S 
ENDBRANCH   2   3
BRANCH   1  18
ATOM     15  C   UNL     1      -0.206  13.233  19.267  0.00  0.00    +0.000 A 
ATOM     16  C   UNL     1       1.167  13.014  19.120  0.00  0.00    +0.000 A 
ATOM     17  C   UNL     1       1.644  11.741  18.745  0.00  0.00    +0.000 A 
ATOM     18  C   UNL     1       0.766  10.661  18.523  0.00  0.00    +0.000 A 
ATOM     19  C   UNL     1      -0.603  10.921  18.618  0.00  0.00    +0.000 A 
ATOM     20  C   UNL     1      -1.082  12.179  19.013  0.00  0.00    +0.000 A 
BRANCH  15  21
ATOM     21  C   UNL     1      -0.706  14.583  19.670  0.00  0.00    +0.000 C 
ATOM     22  O   UNL     1      -1.298  14.810  20.711  0.00  0.00    +0.000 OA
BRANCH  21  24
ATOM     23  C   UNL     1      -0.796  16.838  18.978  0.00  0.00    +0.000 C 
ATOM     24  O   UNL     1      -0.375  15.498  18.725  0.00  0.00    +0.000 OA
ENDBRANCH  21  24
ENDBRANCH  15  21
ENDBRANCH   1  18
BRANCH   2  25
ATOM     25  C   UNL     1       1.361   8.168  20.496  0.00  0.00    +0.000 C 
ATOM     26  F   UNL     1       0.055   8.386  20.805  0.00  0.00    +0.000 F 
ATOM     27  F   UNL     1       1.667   6.938  20.982  0.00  0.00    +0.000 F 
ATOM     28  F   UNL     1       2.064   9.069  21.239  0.00  0.00    +0.000 F 
ENDBRANCH   2  25
TORSDOF 5
ENDMDL
MODEL 7
REMARK VINA RESULT:      -7.8      1.247      2.574
REMARK  Name = 
REMARK  8 active torsions:
REMARK  status: ('A' for Active; 'I' for Inactive)
REMARK    1  A    between atoms: C_1  and  O_2
REMARK    2  A    between atoms: O_2  and  C_3
REMARK    3  A    between atoms: C_3  and  C_5
REMARK    4  A    between atoms: C_8  and  C_9
REMARK    5  A    between atoms: C_10  and  C_11
REMARK    6  A    between atoms: C_10  and  C_23
REMARK    7  A    between atoms: C_17  and  C_18
REMARK    8  A    between atoms: C_17  and  C_19
REMARK                            x       y       z     vdW  Elec       q    Type
REMARK                         _______ _______ _______ _____ _____    ______ ____
ROOT
ATOM      1  C   UNL     1       1.500   8.517  20.282  0.00  0.00    +0.000 C 
ATOM      2  C   UNL     1       1.793   8.490  18.960  0.00  0.00    +0.000 C 
ENDROOT
BRANCH   2   3
ATOM      3  C   UNL     1       2.463   7.254  18.441  0.00  0.00    +0.000 A 
ATOM      4  C   UNL     1       1.871   5.950  18.437  0.00  0.00    +0.000 A 
ATOM      5  C   UNL     1       2.619   4.758  18.043  0.00  0.00    +0.000 A 
ATOM      6  C   UNL     1       3.908   4.914  17.648  0.00  0.00    +0.000 A 
ATOM      7  C   UNL     1       4.455   6.207  17.643  0.00  0.00    +0.000 A 
ATOM      8  C   UNL     1       3.739   7.370  18.009  0.00  0.00    +0.000 A 
ATOM      9  C   UNL     1       5.817   6.401  17.247  0.00  0.00    +0.000 C 
ATOM     10  C   UNL     1       6.155   5.676  18.854  0.00  0.00    +0.000 C 
ATOM     11  C   UNL     1       5.278   5.985  15.619  0.00  0.00    +0.000 C 
ATOM     12  C   UNL     1       7.197   5.998  16.879  0.00  0.00    +0.000 C 
ATOM     13  C   UNL     1       7.161   4.496  16.732  0.00  0.00    +0.000 C 
ATOM     14  S   UNL     1       5.273   3.504  17.148  0.00  0.00    +0.000 S 
ENDBRANCH   2   3
BRANCH   1  18
ATOM     15  C   UNL     1      -0.853  11.311  22.617  0.00  0.00    +0.000 A 
ATOM     16  C   UNL     1      -0.825   9.948  22.927  0.00  0.00    +0.000 A 
ATOM     17  C   UNL     1      -0.025   9.067  22.172  0.00  0.00    +0.000 A 
ATOM     18  C   UNL     1       0.749   9.523  21.085  0.00  0.00    +0.000 A 
ATOM     19  C   UNL     1       0.750  10.896  20.834  0.00  0.00    +0.000 A 
ATOM     20  C   UNL     1      -0.061  11.774  21.567  0.00  0.00    +0.000 A 
BRANCH  15  21
ATOM     21  C   UNL     1      -1.706  12.240  23.419  0.00  0.00    +0.000 C 
ATOM     22  O   UNL     1      -1.330  13.319  23.843  0.00  0.00    +0.000 OA
BRANCH  21  24
ATOM     23  C   UNL     1      -4.024  12.650  23.592  0.00  0.00    +0.000 C 
ATOM     24  O   UNL     1      -2.948  11.714  23.568  0.00  0.00    +0.000 OA
ENDBRANCH  21  24
ENDBRANCH  15  21
ENDBRANCH   1  18
BRANCH   2  25
ATOM     25  C   UNL     1       1.554   9.578  17.952  0.00  0.00    +0.000 C 
ATOM     26  F   UNL     1       2.019   9.288  16.709  0.00  0.00    +0.000 F 
ATOM     27  F   UNL     1       0.234   9.865  17.809  0.00  0.00    +0.000 F 
ATOM     28  F   UNL     1       2.171  10.741  18.307  0.00  0.00    +0.000 F 
ENDBRANCH   2  25
TORSDOF 5
ENDMDL
MODEL 8
REMARK VINA RESULT:      -7.7      1.315      2.813
REMARK  Name = 
REMARK  8 active torsions:
REMARK  status: ('A' for Active; 'I' for Inactive)
REMARK    1  A    between atoms: C_1  and  O_2
REMARK    2  A    between atoms: O_2  and  C_3
REMARK    3  A    between atoms: C_3  and  C_5
REMARK    4  A    between atoms: C_8  and  C_9
REMARK    5  A    between atoms: C_10  and  C_11
REMARK    6  A    between atoms: C_10  and  C_23
REMARK    7  A    between atoms: C_17  and  C_18
REMARK    8  A    between atoms: C_17  and  C_19
REMARK                            x       y       z     vdW  Elec       q    Type
REMARK                         _______ _______ _______ _____ _____    ______ ____
ROOT
ATOM      1  C   UNL     1       1.516   8.509  20.264  0.00  0.00    +0.000 C 
ATOM      2  C   UNL     1       1.811   8.479  18.942  0.00  0.00    +0.000 C 
ENDROOT
BRANCH   2   3
ATOM      3  C   UNL     1       2.480   7.242  18.425  0.00  0.00    +0.000 A 
ATOM      4  C   UNL     1       1.887   5.938  18.425  0.00  0.00    +0.000 A 
ATOM      5  C   UNL     1       2.635   4.746  18.033  0.00  0.00    +0.000 A 
ATOM      6  C   UNL     1       3.924   4.901  17.636  0.00  0.00    +0.000 A 
ATOM      7  C   UNL     1       4.470   6.193  17.628  0.00  0.00    +0.000 A 
ATOM      8  C   UNL     1       3.755   7.357  17.991  0.00  0.00    +0.000 A 
ATOM      9  C   UNL     1       5.832   6.385  17.230  0.00  0.00    +0.000 C 
ATOM     10  C   UNL     1       6.172   5.665  18.838  0.00  0.00    +0.000 C 
ATOM     11  C   UNL     1       5.292   5.966  15.604  0.00  0.00    +0.000 C 
ATOM     12  C   UNL     1       7.212   5.982  16.862  0.00  0.00    +0.000 C 
ATOM     13  C   UNL     1       7.176   4.479  16.718  0.00  0.00    +0.000 C 
ATOM     14  S   UNL     1       5.288   3.488  17.138  0.00  0.00    +0.000 S 
ENDBRANCH   2   3
BRANCH   1  18
ATOM     15  C   UNL     1      -0.837  11.308  22.592  0.00  0.00    +0.000 A 
ATOM     16  C   UNL     1      -0.809   9.945  22.906  0.00  0.00    +0.000 A 
ATOM     17  C   UNL     1      -0.009   9.063  22.152  0.00  0.00    +0.000 A 
ATOM     18  C   UNL     1       0.765   9.516  21.064  0.00  0.00    +0.000 A 
ATOM     19  C   UNL     1       0.765  10.889  20.809  0.00  0.00    +0.000 A 
ATOM     20  C   UNL     1      -0.046  11.769  21.541  0.00  0.00    +0.000 A 
BRANCH  15  21
ATOM     21  C   UNL     1      -1.690  12.239  23.393  0.00  0.00    +0.000 C 
ATOM     22  O   UNL     1      -2.843  12.006  23.712  0.00  0.00    +0.000 OA
BRANCH  21  24
ATOM     23  C   UNL     1      -1.743  14.503  24.058  0.00  0.00    +0.000 C 
ATOM     24  O   UNL     1      -0.979  13.346  23.725  0.00  0.00    +0.000 OA
ENDBRANCH  21  24
ENDBRANCH  15  21
ENDBRANCH   1  18
BRANCH   2  25
ATOM     25  C   UNL     1       1.574   9.567  17.932  0.00  0.00    +0.000 C 
ATOM     26  F   UNL     1       2.146  10.756  18.261  0.00  0.00    +0.000 F 
ATOM     27  F   UNL     1       2.049   9.241  16.703  0.00  0.00    +0.000 F 
ATOM     28  F   UNL     1       0.246   9.836  17.781  0.00  0.00    +0.000 F 
ENDBRANCH   2  25
TORSDOF 5
ENDMDL
MODEL 9
REMARK VINA RESULT:      -7.7      5.422      9.371
REMARK  Name = 
REMARK  8 active torsions:
REMARK  status: ('A' for Active; 'I' for Inactive)
REMARK    1  A    between atoms: C_1  and  O_2
REMARK    2  A    between atoms: O_2  and  C_3
REMARK    3  A    between atoms: C_3  and  C_5
REMARK    4  A    between atoms: C_8  and  C_9
REMARK    5  A    between atoms: C_10  and  C_11
REMARK    6  A    between atoms: C_10  and  C_23
REMARK    7  A    between atoms: C_17  and  C_18
REMARK    8  A    between atoms: C_17  and  C_19
REMARK                            x       y       z     vdW  Elec       q    Type
REMARK                         _______ _______ _______ _____ _____    ______ ____
ROOT
ATOM      1  C   UNL     1       3.291   7.393  18.398  0.00  0.00    +0.000 C 
ATOM      2  C   UNL     1       2.405   7.016  19.351  0.00  0.00    +0.000 C 
ENDROOT
BRANCH   2   3
ATOM      3  C   UNL     1       1.613   8.106  20.008  0.00  0.00    +0.000 A 
ATOM      4  C   UNL     1       1.096   8.043  21.342  0.00  0.00    +0.000 A 
ATOM      5  C   UNL     1       0.218   9.077  21.885  0.00  0.00    +0.000 A 
ATOM      6  C   UNL     1      -0.086  10.137  21.093  0.00  0.00    +0.000 A 
ATOM      7  C   UNL     1       0.451  10.181  19.798  0.00  0.00    +0.000 A 
ATOM      8  C   UNL     1       1.313   9.194  19.265  0.00  0.00    +0.000 A 
ATOM      9  C   UNL     1       0.135  11.278  18.934  0.00  0.00    +0.000 C 
ATOM     10  C   UNL     1      -1.454  10.451  18.832  0.00  0.00    +0.000 C 
ATOM     11  C   UNL     1       1.125  12.260  20.015  0.00  0.00    +0.000 C 
ATOM     12  C   UNL     1      -0.580  12.503  18.496  0.00  0.00    +0.000 C 
ATOM     13  C   UNL     1      -1.411  12.937  19.680  0.00  0.00    +0.000 C 
ATOM     14  S   UNL     1      -1.343  11.684  21.453  0.00  0.00    +0.000 S 
ENDBRANCH   2   3
BRANCH   1  18
ATOM     15  C   UNL     1       5.760   5.172  15.612  0.00  0.00    +0.000 A 
ATOM     16  C   UNL     1       6.055   6.497  15.948  0.00  0.00    +0.000 A 
ATOM     17  C   UNL     1       5.254   7.185  16.882  0.00  0.00    +0.000 A 
ATOM     18  C   UNL     1       4.138   6.574  17.487  0.00  0.00    +0.000 A 
ATOM     19  C   UNL     1       3.900   5.232  17.180  0.00  0.00    +0.000 A 
ATOM     20  C   UNL     1       4.680   4.550  16.235  0.00  0.00    +0.000 A 
BRANCH  15  21
ATOM     21  C   UNL     1       6.610   4.449  14.618  0.00  0.00    +0.000 C 
ATOM     22  O   UNL     1       6.308   3.385  14.105  0.00  0.00    +0.000 OA
BRANCH  21  24
ATOM     23  C   UNL     1       8.041   5.372  12.983  0.00  0.00    +0.000 C 
ATOM     24  O   UNL     1       7.733   5.167  14.361  0.00  0.00    +0.000 OA
ENDBRANCH  21  24
ENDBRANCH  15  21
ENDBRANCH   1  18
BRANCH   2  25
ATOM     25  C   UNL     1       2.146   5.624  19.853  0.00  0.00    +0.000 C 
ATOM     26  F   UNL     1       1.266   5.567  20.887  0.00  0.00    +0.000 F 
ATOM     27  F   UNL     1       1.651   4.811  18.885  0.00  0.00    +0.000 F 
ATOM     28  F   UNL     1       3.285   5.034  20.316  0.00  0.00    +0.000 F 
ENDBRANCH   2  25
TORSDOF 5
ENDMDL
