MODEL 1
REMARK VINA RESULT:      -6.8      0.000      0.000
REMARK  Name = 
REMARK  9 active torsions:
REMARK  status: ('A' for Active; 'I' for Inactive)
REMARK    1  A    between atoms: C_1  and  O_2
REMARK    2  A    between atoms: O_2  and  C_3
REMARK    3  A    between atoms: C_5  and  C_6
REMARK    4  A    between atoms: C_6  and  C_7
REMARK    5  A    between atoms: C_7  and  S_8
REMARK    6  A    between atoms: S_8  and  O_11
REMARK    7  A    between atoms: C_12  and  O_13
REMARK    8  A    between atoms: C_14  and  O_15
REMARK    9  A    between atoms: C_16  and  O_17
REMARK                            x       y       z     vdW  Elec       q    Type
REMARK                         _______ _______ _______ _____ _____    ______ ____
ROOT
ATOM      1  C   UNL     1       2.209   2.990  18.190  0.00  0.00    +0.000 C 
ATOM      2  O   UNL     1       2.965   3.750  17.234  0.00  0.00    +0.000 OA
ATOM      3  C   UNL     1       3.952   4.590  17.846  0.00  0.00    +0.000 C 
ATOM      4  C   UNL     1       4.988   3.765  18.629  0.00  0.00    +0.000 C 
ATOM      5  C   UNL     1       4.270   2.826  19.617  0.00  0.00    +0.000 C 
ATOM      6  C   UNL     1       3.168   2.024  18.913  0.00  0.00    +0.000 C 
ENDROOT
BRANCH   1   8
ATOM      7  C   UNL     1       0.762   3.085  20.057  0.00  0.00    +0.000 C 
ATOM      8  O   UNL     1       1.546   3.829  19.130  0.00  0.00    +0.000 OA
ENDBRANCH   1   8
BRANCH   4   9
ATOM      9  O   UNL     1       5.883   4.656  19.303  0.00  0.00    +0.000 OA
ATOM     10  H   UNL     1       6.419   5.117  18.632  0.00  0.00    +0.000 HD
ENDBRANCH   4   9
BRANCH   5  11
ATOM     11  O   UNL     1       5.225   1.938  20.215  0.00  0.00    +0.000 OA
ATOM     12  H   UNL     1       5.009   1.044  19.880  0.00  0.00    +0.000 HD
ENDBRANCH   5  11
BRANCH   6  13
ATOM     13  O   UNL     1       3.787   1.111  17.985  0.00  0.00    +0.000 OA
ATOM     14  H   UNL     1       4.625   1.518  17.690  0.00  0.00    +0.000 HD
ENDBRANCH   6  13
BRANCH   3  15
ATOM     15  C   UNL     1       4.599   5.431  16.743  0.00  0.00    +0.000 C 
BRANCH  15  16
ATOM     16  C   UNL     1       5.478   4.563  15.865  0.00  0.00    +0.000 C 
BRANCH  16  17
ATOM     17  S   UNL     1       7.175   5.124  15.875  0.00  0.00    +0.000 S 
ATOM     18  O   UNL     1       7.921   4.384  16.872  0.00  0.00    +0.000 OA
ATOM     19  O   UNL     1       7.641   5.307  14.525  0.00  0.00    +0.000 OA
BRANCH  17  20
ATOM     20  O   UNL     1       6.914   6.574  16.530  0.00  0.00    +0.000 OA
ATOM     21  H   UNL     1       6.004   6.575  16.902  0.00  0.00    +0.000 HD
ENDBRANCH  17  20
ENDBRANCH  16  17
ENDBRANCH  15  16
ENDBRANCH   3  15
TORSDOF 8
ENDMDL
MODEL 2
REMARK VINA RESULT:      -6.7      0.365      1.116
REMARK  Name = 
REMARK  9 active torsions:
REMARK  status: ('A' for Active; 'I' for Inactive)
REMARK    1  A    between atoms: C_1  and  O_2
REMARK    2  A    between atoms: O_2  and  C_3
REMARK    3  A    between atoms: C_5  and  C_6
REMARK    4  A    between atoms: C_6  and  C_7
REMARK    5  A    between atoms: C_7  and  S_8
REMARK    6  A    between atoms: S_8  and  O_11
REMARK    7  A    between atoms: C_12  and  O_13
REMARK    8  A    between atoms: C_14  and  O_15
REMARK    9  A    between atoms: C_16  and  O_17
REMARK                            x       y       z     vdW  Elec       q    Type
REMARK                         _______ _______ _______ _____ _____    ______ ____
ROOT
ATOM      1  C   UNL     1       2.070   3.370  18.530  0.00  0.00    +0.000 C 
ATOM      2  O   UNL     1       2.810   4.096  17.537  0.00  0.00    +0.000 OA
ATOM      3  C   UNL     1       3.962   4.759  18.076  0.00  0.00    +0.000 C 
ATOM      4  C   UNL     1       4.958   3.755  18.681  0.00  0.00    +0.000 C 
ATOM      5  C   UNL     1       4.235   2.843  19.690  0.00  0.00    +0.000 C 
ATOM      6  C   UNL     1       2.965   2.240  19.076  0.00  0.00    +0.000 C 
ENDROOT
BRANCH   1   8
ATOM      7  C   UNL     1       0.864   3.508  20.558  0.00  0.00    +0.000 C 
ATOM      8  O   UNL     1       1.631   4.214  19.590  0.00  0.00    +0.000 OA
ENDBRANCH   1   8
BRANCH   4   9
ATOM      9  O   UNL     1       6.033   4.474  19.294  0.00  0.00    +0.000 OA
ATOM     10  H   UNL     1       5.702   5.350  19.564  0.00  0.00    +0.000 HD
ENDBRANCH   4   9
BRANCH   5  11
ATOM     11  O   UNL     1       5.123   1.801  20.118  0.00  0.00    +0.000 OA
ATOM     12  H   UNL     1       5.918   1.874  19.551  0.00  0.00    +0.000 HD
ENDBRANCH   5  11
BRANCH   6  13
ATOM     13  O   UNL     1       3.350   1.327  18.029  0.00  0.00    +0.000 OA
ATOM     14  H   UNL     1       2.975   0.452  18.252  0.00  0.00    +0.000 HD
ENDBRANCH   6  13
BRANCH   3  15
ATOM     15  C   UNL     1       4.589   5.590  16.955  0.00  0.00    +0.000 C 
BRANCH  15  16
ATOM     16  C   UNL     1       5.448   4.714  16.065  0.00  0.00    +0.000 C 
BRANCH  16  17
ATOM     17  S   UNL     1       7.121   5.333  15.952  0.00  0.00    +0.000 S 
ATOM     18  O   UNL     1       7.600   5.179  14.594  0.00  0.00    +0.000 OA
ATOM     19  O   UNL     1       7.241   6.564  16.689  0.00  0.00    +0.000 OA
BRANCH  17  20
ATOM     20  O   UNL     1       7.839   4.158  16.792  0.00  0.00    +0.000 OA
ATOM     21  H   UNL     1       8.650   3.895  16.304  0.00  0.00    +0.000 HD
ENDBRANCH  17  20
ENDBRANCH  16  17
ENDBRANCH  15  16
ENDBRANCH   3  15
TORSDOF 8
ENDMDL
MODEL 3
REMARK VINA RESULT:      -6.7      0.430      1.115
REMARK  Name = 
REMARK  9 active torsions:
REMARK  status: ('A' for Active; 'I' for Inactive)
REMARK    1  A    between atoms: C_1  and  O_2
REMARK    2  A    between atoms: O_2  and  C_3
REMARK    3  A    between atoms: C_5  and  C_6
REMARK    4  A    between atoms: C_6  and  C_7
REMARK    5  A    between atoms: C_7  and  S_8
REMARK    6  A    between atoms: S_8  and  O_11
REMARK    7  A    between atoms: C_12  and  O_13
REMARK    8  A    between atoms: C_14  and  O_15
REMARK    9  A    between atoms: C_16  and  O_17
REMARK                            x       y       z     vdW  Elec       q    Type
REMARK                         _______ _______ _______ _____ _____    ______ ____
ROOT
ATOM      1  C   UNL     1       2.107   3.520  18.431  0.00  0.00    +0.000 C 
ATOM      2  O   UNL     1       2.890   4.281  17.499  0.00  0.00    +0.000 OA
ATOM      3  C   UNL     1       4.034   4.898  18.107  0.00  0.00    +0.000 C 
ATOM      4  C   UNL     1       4.994   3.849  18.694  0.00  0.00    +0.000 C 
ATOM      5  C   UNL     1       4.224   2.903  19.634  0.00  0.00    +0.000 C 
ATOM      6  C   UNL     1       2.966   2.351  18.951  0.00  0.00    +0.000 C 
ENDROOT
BRANCH   1   8
ATOM      7  C   UNL     1       0.872   3.571  20.446  0.00  0.00    +0.000 C 
ATOM      8  O   UNL     1       1.646   4.320  19.516  0.00  0.00    +0.000 OA
ENDBRANCH   1   8
BRANCH   4   9
ATOM      9  O   UNL     1       6.059   4.520  19.376  0.00  0.00    +0.000 OA
ATOM     10  H   UNL     1       5.700   4.916  20.191  0.00  0.00    +0.000 HD
ENDBRANCH   4   9
BRANCH   5  11
ATOM     11  O   UNL     1       5.081   1.826  20.039  0.00  0.00    +0.000 OA
ATOM     12  H   UNL     1       4.968   1.124  19.367  0.00  0.00    +0.000 HD
ENDBRANCH   5  11
BRANCH   6  13
ATOM     13  O   UNL     1       3.372   1.483  17.873  0.00  0.00    +0.000 OA
ATOM     14  H   UNL     1       2.559   1.158  17.438  0.00  0.00    +0.000 HD
ENDBRANCH   6  13
BRANCH   3  15
ATOM     15  C   UNL     1       4.711   5.771  17.048  0.00  0.00    +0.000 C 
BRANCH  15  16
ATOM     16  C   UNL     1       5.511   4.913  16.089  0.00  0.00    +0.000 C 
BRANCH  16  17
ATOM     17  S   UNL     1       7.256   5.288  16.172  0.00  0.00    +0.000 S 
ATOM     18  O   UNL     1       7.433   6.682  16.523  0.00  0.00    +0.000 OA
ATOM     19  O   UNL     1       7.958   4.220  16.836  0.00  0.00    +0.000 OA
BRANCH  17  20
ATOM     20  O   UNL     1       7.568   5.203  14.593  0.00  0.00    +0.000 OA
ATOM     21  H   UNL     1       7.054   5.914  14.148  0.00  0.00    +0.000 HD
ENDBRANCH  17  20
ENDBRANCH  16  17
ENDBRANCH  15  16
ENDBRANCH   3  15
TORSDOF 8
ENDMDL
MODEL 4
REMARK VINA RESULT:      -6.6      0.968      1.415
REMARK  Name = 
REMARK  9 active torsions:
REMARK  status: ('A' for Active; 'I' for Inactive)
REMARK    1  A    between atoms: C_1  and  O_2
REMARK    2  A    between atoms: O_2  and  C_3
REMARK    3  A    between atoms: C_5  and  C_6
REMARK    4  A    between atoms: C_6  and  C_7
REMARK    5  A    between atoms: C_7  and  S_8
REMARK    6  A    between atoms: S_8  and  O_11
REMARK    7  A    between atoms: C_12  and  O_13
REMARK    8  A    between atoms: C_14  and  O_15
REMARK    9  A    between atoms: C_16  and  O_17
REMARK                            x       y       z     vdW  Elec       q    Type
REMARK                         _______ _______ _______ _____ _____    ______ ____
ROOT
ATOM      1  C   UNL     1       2.628   3.535  17.873  0.00  0.00    +0.000 C 
ATOM      2  O   UNL     1       3.559   4.378  17.179  0.00  0.00    +0.000 OA
ATOM      3  C   UNL     1       4.450   5.071  18.064  0.00  0.00    +0.000 C 
ATOM      4  C   UNL     1       5.310   4.090  18.880  0.00  0.00    +0.000 C 
ATOM      5  C   UNL     1       4.404   3.063  19.586  0.00  0.00    +0.000 C 
ATOM      6  C   UNL     1       3.418   2.428  18.598  0.00  0.00    +0.000 C 
ENDROOT
BRANCH   1   8
ATOM      7  C   UNL     1       0.929   3.436  19.515  0.00  0.00    +0.000 C 
ATOM      8  O   UNL     1       1.836   4.270  18.802  0.00  0.00    +0.000 OA
ENDBRANCH   1   8
BRANCH   4   9
ATOM      9  O   UNL     1       6.101   4.829  19.817  0.00  0.00    +0.000 OA
ATOM     10  H   UNL     1       6.702   5.412  19.318  0.00  0.00    +0.000 HD
ENDBRANCH   4   9
BRANCH   5  11
ATOM     11  O   UNL     1       5.215   2.050  20.199  0.00  0.00    +0.000 OA
ATOM     12  H   UNL     1       6.077   2.078  19.736  0.00  0.00    +0.000 HD
ENDBRANCH   5  11
BRANCH   6  13
ATOM     13  O   UNL     1       4.161   1.620  17.662  0.00  0.00    +0.000 OA
ATOM     14  H   UNL     1       4.163   0.704  18.005  0.00  0.00    +0.000 HD
ENDBRANCH   6  13
BRANCH   3  15
ATOM     15  C   UNL     1       5.303   6.021  17.219  0.00  0.00    +0.000 C 
BRANCH  15  16
ATOM     16  C   UNL     1       5.282   5.595  15.765  0.00  0.00    +0.000 C 
BRANCH  16  17
ATOM     17  S   UNL     1       6.681   4.558  15.364  0.00  0.00    +0.000 S 
ATOM     18  O   UNL     1       6.926   4.608  13.938  0.00  0.00    +0.000 OA
ATOM     19  O   UNL     1       7.723   4.737  16.343  0.00  0.00    +0.000 OA
BRANCH  17  20
ATOM     20  O   UNL     1       5.971   3.134  15.624  0.00  0.00    +0.000 OA
ATOM     21  H   UNL     1       5.984   2.634  14.778  0.00  0.00    +0.000 HD
ENDBRANCH  17  20
ENDBRANCH  16  17
ENDBRANCH  15  16
ENDBRANCH   3  15
TORSDOF 8
ENDMDL
MODEL 5
REMARK VINA RESULT:      -6.5      2.351      5.307
REMARK  Name = 
REMARK  9 active torsions:
REMARK  status: ('A' for Active; 'I' for Inactive)
REMARK    1  A    between atoms: C_1  and  O_2
REMARK    2  A    between atoms: O_2  and  C_3
REMARK    3  A    between atoms: C_5  and  C_6
REMARK    4  A    between atoms: C_6  and  C_7
REMARK    5  A    between atoms: C_7  and  S_8
REMARK    6  A    between atoms: S_8  and  O_11
REMARK    7  A    between atoms: C_12  and  O_13
REMARK    8  A    between atoms: C_14  and  O_15
REMARK    9  A    between atoms: C_16  and  O_17
REMARK                            x       y       z     vdW  Elec       q    Type
REMARK                         _______ _______ _______ _____ _____    ______ ____
ROOT
ATOM      1  C   UNL     1       5.557   5.486  15.449  0.00  0.00    +0.000 C 
ATOM      2  O   UNL     1       4.498   5.747  16.382  0.00  0.00    +0.000 OA
ATOM      3  C   UNL     1       4.324   4.691  17.337  0.00  0.00    +0.000 C 
ATOM      4  C   UNL     1       5.588   4.491  18.192  0.00  0.00    +0.000 C 
ATOM      5  C   UNL     1       6.815   4.309  17.278  0.00  0.00    +0.000 C 
ATOM      6  C   UNL     1       6.887   5.422  16.225  0.00  0.00    +0.000 C 
ENDROOT
BRANCH   1   8
ATOM      7  C   UNL     1       6.329   4.069  13.721  0.00  0.00    +0.000 C 
ATOM      8  O   UNL     1       5.345   4.276  14.728  0.00  0.00    +0.000 OA
ENDBRANCH   1   8
BRANCH   4   9
ATOM      9  O   UNL     1       5.397   3.362  19.051  0.00  0.00    +0.000 OA
ATOM     10  H   UNL     1       4.456   3.322  19.301  0.00  0.00    +0.000 HD
ENDBRANCH   4   9
BRANCH   5  11
ATOM     11  O   UNL     1       8.008   4.299  18.074  0.00  0.00    +0.000 OA
ATOM     12  H   UNL     1       8.611   3.656  17.648  0.00  0.00    +0.000 HD
ENDBRANCH   5  11
BRANCH   6  13
ATOM     13  O   UNL     1       7.160   6.670  16.895  0.00  0.00    +0.000 OA
ATOM     14  H   UNL     1       7.030   7.386  16.243  0.00  0.00    +0.000 HD
ENDBRANCH   6  13
BRANCH   3  15
ATOM     15  C   UNL     1       3.099   5.029  18.189  0.00  0.00    +0.000 C 
BRANCH  15  16
ATOM     16  C   UNL     1       1.902   4.215  17.738  0.00  0.00    +0.000 C 
BRANCH  16  17
ATOM     17  S   UNL     1       1.727   2.718  18.698  0.00  0.00    +0.000 S 
ATOM     18  O   UNL     1       2.592   2.785  19.857  0.00  0.00    +0.000 OA
ATOM     19  O   UNL     1       0.338   2.346  18.781  0.00  0.00    +0.000 OA
BRANCH  17  20
ATOM     20  O   UNL     1       2.466   1.719  17.671  0.00  0.00    +0.000 OA
ATOM     21  H   UNL     1       2.792   2.255  16.915  0.00  0.00    +0.000 HD
ENDBRANCH  17  20
ENDBRANCH  16  17
ENDBRANCH  15  16
ENDBRANCH   3  15
TORSDOF 8
ENDMDL
MODEL 6
REMARK VINA RESULT:      -6.5      2.336      5.262
REMARK  Name = 
REMARK  9 active torsions:
REMARK  status: ('A' for Active; 'I' for Inactive)
REMARK    1  A    between atoms: C_1  and  O_2
REMARK    2  A    between atoms: O_2  and  C_3
REMARK    3  A    between atoms: C_5  and  C_6
REMARK    4  A    between atoms: C_6  and  C_7
REMARK    5  A    between atoms: C_7  and  S_8
REMARK    6  A    between atoms: S_8  and  O_11
REMARK    7  A    between atoms: C_12  and  O_13
REMARK    8  A    between atoms: C_14  and  O_15
REMARK    9  A    between atoms: C_16  and  O_17
REMARK                            x       y       z     vdW  Elec       q    Type
REMARK                         _______ _______ _______ _____ _____    ______ ____
ROOT
ATOM      1  C   UNL     1       5.675   5.493  15.221  0.00  0.00    +0.000 C 
ATOM      2  O   UNL     1       4.735   5.900  16.226  0.00  0.00    +0.000 OA
ATOM      3  C   UNL     1       4.530   4.901  17.234  0.00  0.00    +0.000 C 
ATOM      4  C   UNL     1       5.832   4.587  17.990  0.00  0.00    +0.000 C 
ATOM      5  C   UNL     1       6.949   4.240  16.987  0.00  0.00    +0.000 C 
ATOM      6  C   UNL     1       7.052   5.305  15.887  0.00  0.00    +0.000 C 
ENDROOT
BRANCH   1   8
ATOM      7  C   UNL     1       6.186   3.896  13.554  0.00  0.00    +0.000 C 
ATOM      8  O   UNL     1       5.270   4.293  14.569  0.00  0.00    +0.000 OA
ENDBRANCH   1   8
BRANCH   4   9
ATOM      9  O   UNL     1       5.594   3.514  18.907  0.00  0.00    +0.000 OA
ATOM     10  H   UNL     1       5.274   2.744  18.402  0.00  0.00    +0.000 HD
ENDBRANCH   4   9
BRANCH   5  11
ATOM     11  O   UNL     1       8.198   4.121  17.682  0.00  0.00    +0.000 OA
ATOM     12  H   UNL     1       8.737   3.490  17.162  0.00  0.00    +0.000 HD
ENDBRANCH   5  11
BRANCH   6  13
ATOM     13  O   UNL     1       7.516   6.534  16.481  0.00  0.00    +0.000 OA
ATOM     14  H   UNL     1       8.481   6.448  16.614  0.00  0.00    +0.000 HD
ENDBRANCH   6  13
BRANCH   3  15
ATOM     15  C   UNL     1       3.426   5.400  18.169  0.00  0.00    +0.000 C 
BRANCH  15  16
ATOM     16  C   UNL     1       2.167   4.576  17.987  0.00  0.00    +0.000 C 
BRANCH  16  17
ATOM     17  S   UNL     1       2.107   3.207  19.134  0.00  0.00    +0.000 S 
ATOM     18  O   UNL     1       0.762   3.072  19.653  0.00  0.00    +0.000 OA
ATOM     19  O   UNL     1       2.859   2.095  18.613  0.00  0.00    +0.000 OA
BRANCH  17  20
ATOM     20  O   UNL     1       2.955   3.889  20.323  0.00  0.00    +0.000 OA
ATOM     21  H   UNL     1       2.947   4.861  20.176  0.00  0.00    +0.000 HD
ENDBRANCH  17  20
ENDBRANCH  16  17
ENDBRANCH  15  16
ENDBRANCH   3  15
TORSDOF 8
ENDMDL
MODEL 7
REMARK VINA RESULT:      -6.4      1.343      1.810
REMARK  Name = 
REMARK  9 active torsions:
REMARK  status: ('A' for Active; 'I' for Inactive)
REMARK    1  A    between atoms: C_1  and  O_2
REMARK    2  A    between atoms: O_2  and  C_3
REMARK    3  A    between atoms: C_5  and  C_6
REMARK    4  A    between atoms: C_6  and  C_7
REMARK    5  A    between atoms: C_7  and  S_8
REMARK    6  A    between atoms: S_8  and  O_11
REMARK    7  A    between atoms: C_12  and  O_13
REMARK    8  A    between atoms: C_14  and  O_15
REMARK    9  A    between atoms: C_16  and  O_17
REMARK                            x       y       z     vdW  Elec       q    Type
REMARK                         _______ _______ _______ _____ _____    ______ ____
ROOT
ATOM      1  C   UNL     1       2.549   4.852  18.415  0.00  0.00    +0.000 C 
ATOM      2  O   UNL     1       3.471   5.406  17.465  0.00  0.00    +0.000 OA
ATOM      3  C   UNL     1       4.778   5.616  18.015  0.00  0.00    +0.000 C 
ATOM      4  C   UNL     1       5.412   4.295  18.484  0.00  0.00    +0.000 C 
ATOM      5  C   UNL     1       4.447   3.560  19.434  0.00  0.00    +0.000 C 
ATOM      6  C   UNL     1       3.046   3.450  18.819  0.00  0.00    +0.000 C 
ENDROOT
BRANCH   1   8
ATOM      7  C   UNL     1       1.625   5.065  20.581  0.00  0.00    +0.000 C 
ATOM      8  O   UNL     1       2.409   5.681  19.566  0.00  0.00    +0.000 OA
ENDBRANCH   1   8
BRANCH   4   9
ATOM      9  O   UNL     1       6.665   4.576  19.116  0.00  0.00    +0.000 OA
ATOM     10  H   UNL     1       6.645   5.494  19.443  0.00  0.00    +0.000 HD
ENDBRANCH   4   9
BRANCH   5  11
ATOM     11  O   UNL     1       4.965   2.255  19.728  0.00  0.00    +0.000 OA
ATOM     12  H   UNL     1       4.186   1.667  19.808  0.00  0.00    +0.000 HD
ENDBRANCH   5  11
BRANCH   6  13
ATOM     13  O   UNL     1       3.113   2.572  17.678  0.00  0.00    +0.000 OA
ATOM     14  H   UNL     1       2.612   1.763  17.902  0.00  0.00    +0.000 HD
ENDBRANCH   6  13
BRANCH   3  15
ATOM     15  C   UNL     1       5.626   6.317  16.950  0.00  0.00    +0.000 C 
BRANCH  15  16
ATOM     16  C   UNL     1       5.498   5.602  15.619  0.00  0.00    +0.000 C 
BRANCH  16  17
ATOM     17  S   UNL     1       7.031   4.816  15.146  0.00  0.00    +0.000 S 
ATOM     18  O   UNL     1       7.607   5.522  14.021  0.00  0.00    +0.000 OA
ATOM     19  O   UNL     1       7.788   4.466  16.321  0.00  0.00    +0.000 OA
BRANCH  17  20
ATOM     20  O   UNL     1       6.397   3.470  14.525  0.00  0.00    +0.000 OA
ATOM     21  H   UNL     1       6.165   2.876  15.273  0.00  0.00    +0.000 HD
ENDBRANCH  17  20
ENDBRANCH  16  17
ENDBRANCH  15  16
ENDBRANCH   3  15
TORSDOF 8
ENDMDL
MODEL 8
REMARK VINA RESULT:      -6.4      1.664      2.248
REMARK  Name = 
REMARK  9 active torsions:
REMARK  status: ('A' for Active; 'I' for Inactive)
REMARK    1  A    between atoms: C_1  and  O_2
REMARK    2  A    between atoms: O_2  and  C_3
REMARK    3  A    between atoms: C_5  and  C_6
REMARK    4  A    between atoms: C_6  and  C_7
REMARK    5  A    between atoms: C_7  and  S_8
REMARK    6  A    between atoms: S_8  and  O_11
REMARK    7  A    between atoms: C_12  and  O_13
REMARK    8  A    between atoms: C_14  and  O_15
REMARK    9  A    between atoms: C_16  and  O_17
REMARK                            x       y       z     vdW  Elec       q    Type
REMARK                         _______ _______ _______ _____ _____    ______ ____
ROOT
ATOM      1  C   UNL     1       2.186   5.174  18.989  0.00  0.00    +0.000 C 
ATOM      2  O   UNL     1       3.558   5.450  18.669  0.00  0.00    +0.000 OA
ATOM      3  C   UNL     1       4.475   4.595  19.366  0.00  0.00    +0.000 C 
ATOM      4  C   UNL     1       4.255   3.117  19.002  0.00  0.00    +0.000 C 
ATOM      5  C   UNL     1       2.775   2.742  19.208  0.00  0.00    +0.000 C 
ATOM      6  C   UNL     1       1.850   3.748  18.512  0.00  0.00    +0.000 C 
ENDROOT
BRANCH   1   8
ATOM      7  C   UNL     1       1.571   6.634  20.744  0.00  0.00    +0.000 C 
ATOM      8  O   UNL     1       1.929   5.304  20.384  0.00  0.00    +0.000 OA
ENDBRANCH   1   8
BRANCH   4   9
ATOM      9  O   UNL     1       5.122   2.305  19.801  0.00  0.00    +0.000 OA
ATOM     10  H   UNL     1       6.021   2.678  19.754  0.00  0.00    +0.000 HD
ENDBRANCH   4   9
BRANCH   5  11
ATOM     11  O   UNL     1       2.541   1.419  18.704  0.00  0.00    +0.000 OA
ATOM     12  H   UNL     1       1.930   0.992  19.339  0.00  0.00    +0.000 HD
ENDBRANCH   5  11
BRANCH   6  13
ATOM     13  O   UNL     1       2.024   3.621  17.085  0.00  0.00    +0.000 OA
ATOM     14  H   UNL     1       2.347   2.715  16.910  0.00  0.00    +0.000 HD
ENDBRANCH   6  13
BRANCH   3  15
ATOM     15  C   UNL     1       5.894   5.066  19.037  0.00  0.00    +0.000 C 
BRANCH  15  16
ATOM     16  C   UNL     1       5.948   5.635  17.633  0.00  0.00    +0.000 C 
BRANCH  16  17
ATOM     17  S   UNL     1       6.999   4.657  16.568  0.00  0.00    +0.000 S 
ATOM     18  O   UNL     1       8.159   4.213  17.312  0.00  0.00    +0.000 OA
ATOM     19  O   UNL     1       6.197   3.769  15.767  0.00  0.00    +0.000 OA
BRANCH  17  20
ATOM     20  O   UNL     1       7.528   5.858  15.631  0.00  0.00    +0.000 OA
ATOM     21  H   UNL     1       7.633   6.655  16.197  0.00  0.00    +0.000 HD
ENDBRANCH  17  20
ENDBRANCH  16  17
ENDBRANCH  15  16
ENDBRANCH   3  15
TORSDOF 8
ENDMDL
MODEL 9
REMARK VINA RESULT:      -6.3      1.027      1.210
REMARK  Name = 
REMARK  9 active torsions:
REMARK  status: ('A' for Active; 'I' for Inactive)
REMARK    1  A    between atoms: C_1  and  O_2
REMARK    2  A    between atoms: O_2  and  C_3
REMARK    3  A    between atoms: C_5  and  C_6
REMARK    4  A    between atoms: C_6  and  C_7
REMARK    5  A    between atoms: C_7  and  S_8
REMARK    6  A    between atoms: S_8  and  O_11
REMARK    7  A    between atoms: C_12  and  O_13
REMARK    8  A    between atoms: C_14  and  O_15
REMARK    9  A    between atoms: C_16  and  O_17
REMARK                            x       y       z     vdW  Elec       q    Type
REMARK                         _______ _______ _______ _____ _____    ______ ____
ROOT
ATOM      1  C   UNL     1       2.793   3.680  17.543  0.00  0.00    +0.000 C 
ATOM      2  O   UNL     1       3.794   4.508  16.933  0.00  0.00    +0.000 OA
ATOM      3  C   UNL     1       4.612   5.191  17.893  0.00  0.00    +0.000 C 
ATOM      4  C   UNL     1       5.381   4.200  18.784  0.00  0.00    +0.000 C 
ATOM      5  C   UNL     1       4.403   3.187  19.408  0.00  0.00    +0.000 C 
ATOM      6  C   UNL     1       3.499   2.563  18.337  0.00  0.00    +0.000 C 
ENDROOT
BRANCH   1   8
ATOM      7  C   UNL     1       0.930   3.614  18.997  0.00  0.00    +0.000 C 
ATOM      8  O   UNL     1       1.931   4.427  18.397  0.00  0.00    +0.000 OA
ENDBRANCH   1   8
BRANCH   4   9
ATOM      9  O   UNL     1       6.096   4.930  19.786  0.00  0.00    +0.000 OA
ATOM     10  H   UNL     1       5.936   4.506  20.649  0.00  0.00    +0.000 HD
ENDBRANCH   4   9
BRANCH   5  11
ATOM     11  O   UNL     1       5.141   2.165  20.092  0.00  0.00    +0.000 OA
ATOM     12  H   UNL     1       4.929   2.269  21.042  0.00  0.00    +0.000 HD
ENDBRANCH   5  11
BRANCH   6  13
ATOM     13  O   UNL     1       4.311   1.743  17.472  0.00  0.00    +0.000 OA
ATOM     14  H   UNL     1       3.789   0.947  17.250  0.00  0.00    +0.000 HD
ENDBRANCH   6  13
BRANCH   3  15
ATOM     15  C   UNL     1       5.550   6.126  17.127  0.00  0.00    +0.000 C 
BRANCH  15  16
ATOM     16  C   UNL     1       5.542   5.787  15.649  0.00  0.00    +0.000 C 
BRANCH  16  17
ATOM     17  S   UNL     1       6.861   4.657  15.228  0.00  0.00    +0.000 S 
ATOM     18  O   UNL     1       7.790   4.568  16.335  0.00  0.00    +0.000 OA
ATOM     19  O   UNL     1       6.323   3.499  14.563  0.00  0.00    +0.000 OA
BRANCH  17  20
ATOM     20  O   UNL     1       7.593   5.586  14.132  0.00  0.00    +0.000 OA
ATOM     21  H   UNL     1       8.525   5.282  14.058  0.00  0.00    +0.000 HD
ENDBRANCH  17  20
ENDBRANCH  16  17
ENDBRANCH  15  16
ENDBRANCH   3  15
TORSDOF 8
ENDMDL
