MODEL 1
REMARK VINA RESULT:      -8.4      0.000      0.000
REMARK  Name = 
REMARK  6 active torsions:
REMARK  status: ('A' for Active; 'I' for Inactive)
REMARK    1  A    between atoms: C_1  and  O_2
REMARK    2  A    between atoms: O_2  and  C_3
REMARK    3  A    between atoms: C_6  and  C_7
REMARK    4  A    between atoms: C_12  and  C_13
REMARK    5  A    between atoms: C_19  and  C_20
REMARK    6  A    between atoms: C_20  and  C_22
REMARK                            x       y       z     vdW  Elec       q    Type
REMARK                         _______ _______ _______ _____ _____    ______ ____
ROOT
ATOM      1  C   UNL     1       2.090   8.641  18.525  0.00  0.00    +0.000 C 
ATOM      2  O   UNL     1       1.739   7.768  19.315  0.00  0.00    +0.000 OA
ATOM      3  N   UNL     1       3.087   8.508  17.577  0.00  0.00    +0.000 N 
ATOM      4  C   UNL     1       3.737   7.309  17.435  0.00  0.00    +0.000 A 
ATOM      5  N   UNL     1       3.422   6.152  17.940  0.00  0.00    +0.000 NA
ATOM      6  C   UNL     1       4.396   5.206  17.653  0.00  0.00    +0.000 A 
ATOM      7  C   UNL     1       5.462   5.690  16.905  0.00  0.00    +0.000 A 
ATOM      8  S   UNL     1       5.130   7.341  16.468  0.00  0.00    +0.000 S 
ATOM      9  H   UNL     1       3.453   9.286  17.060  0.00  0.00    +0.000 HD
ENDROOT
BRANCH   1  13
ATOM     10  C   UNL     1      -0.094  12.353  18.789  0.00  0.00    +0.000 A 
ATOM     11  C   UNL     1      -0.711  11.122  18.995  0.00  0.00    +0.000 A 
ATOM     12  C   UNL     1       0.028   9.943  18.927  0.00  0.00    +0.000 A 
ATOM     13  C   UNL     1       1.402   9.966  18.631  0.00  0.00    +0.000 A 
ATOM     14  C   UNL     1       2.020  11.203  18.411  0.00  0.00    +0.000 A 
ATOM     15  C   UNL     1       1.273  12.391  18.497  0.00  0.00    +0.000 A 
BRANCH  10  17
ATOM     16  C   UNL     1      -0.364  14.632  19.352  0.00  0.00    +0.000 C 
ATOM     17  O   UNL     1      -0.928  13.430  18.845  0.00  0.00    +0.000 OA
ENDBRANCH  10  17
ENDBRANCH   1  13
BRANCH   6  18
ATOM     18  C   UNL     1       4.199   3.853  18.175  0.00  0.00    +0.000 A 
ATOM     19  C   UNL     1       3.365   2.974  17.459  0.00  0.00    +0.000 A 
ATOM     20  C   UNL     1       3.087   1.690  17.937  0.00  0.00    +0.000 A 
ATOM     21  C   UNL     1       3.636   1.269  19.142  0.00  0.00    +0.000 A 
ATOM     22  C   UNL     1       4.455   2.130  19.871  0.00  0.00    +0.000 A 
ATOM     23  C   UNL     1       4.729   3.418  19.394  0.00  0.00    +0.000 A 
ENDBRANCH   6  18
BRANCH   7  24
ATOM     24  C   UNL     1       6.639   5.021  16.383  0.00  0.00    +0.000 C 
ATOM     25  O   UNL     1       7.568   4.643  17.098  0.00  0.00    +0.000 OA
BRANCH  24  26
ATOM     26  C   UNL     1       6.770   4.770  14.909  0.00  0.00    +0.000 A 
ATOM     27  C   UNL     1       5.928   3.842  14.301  0.00  0.00    +0.000 A 
ATOM     28  C   UNL     1       6.073   3.603  12.938  0.00  0.00    +0.000 A 
ATOM     29  C   UNL     1       7.055   4.285  12.227  0.00  0.00    +0.000 A 
ATOM     30  C   UNL     1       7.858   5.183  12.912  0.00  0.00    +0.000 A 
ATOM     31  N   UNL     1       7.741   5.441  14.233  0.00  0.00    +0.000 NA
ENDBRANCH  24  26
ENDBRANCH   7  24
TORSDOF 5
ENDMDL
MODEL 2
REMARK VINA RESULT:      -8.4      1.731      2.287
REMARK  Name = 
REMARK  6 active torsions:
REMARK  status: ('A' for Active; 'I' for Inactive)
REMARK    1  A    between atoms: C_1  and  O_2
REMARK    2  A    between atoms: O_2  and  C_3
REMARK    3  A    between atoms: C_6  and  C_7
REMARK    4  A    between atoms: C_12  and  C_13
REMARK    5  A    between atoms: C_19  and  C_20
REMARK    6  A    between atoms: C_20  and  C_22
REMARK                            x       y       z     vdW  Elec       q    Type
REMARK                         _______ _______ _______ _____ _____    ______ ____
ROOT
ATOM      1  C   UNL     1       1.221   9.607  18.948  0.00  0.00    +0.000 C 
ATOM      2  O   UNL     1       0.653   8.955  19.820  0.00  0.00    +0.000 OA
ATOM      3  N   UNL     1       2.255   9.150  18.153  0.00  0.00    +0.000 N 
ATOM      4  C   UNL     1       2.690   7.856  18.277  0.00  0.00    +0.000 A 
ATOM      5  N   UNL     1       2.132   6.872  18.920  0.00  0.00    +0.000 NA
ATOM      6  C   UNL     1       2.942   5.745  18.900  0.00  0.00    +0.000 A 
ATOM      7  C   UNL     1       4.137   5.912  18.211  0.00  0.00    +0.000 A 
ATOM      8  S   UNL     1       4.144   7.492  17.483  0.00  0.00    +0.000 S 
ATOM      9  H   UNL     1       2.797   9.756  17.564  0.00  0.00    +0.000 HD
ENDROOT
BRANCH   1  13
ATOM     10  C   UNL     1       0.127  13.759  18.523  0.00  0.00    +0.000 A 
ATOM     11  C   UNL     1       1.450  13.364  18.703  0.00  0.00    +0.000 A 
ATOM     12  C   UNL     1       1.773  12.012  18.812  0.00  0.00    +0.000 A 
ATOM     13  C   UNL     1       0.774  11.024  18.763  0.00  0.00    +0.000 A 
ATOM     14  C   UNL     1      -0.557  11.422  18.594  0.00  0.00    +0.000 A 
ATOM     15  C   UNL     1      -0.876  12.786  18.469  0.00  0.00    +0.000 A 
BRANCH  10  17
ATOM     16  C   UNL     1       1.053  15.914  18.814  0.00  0.00    +0.000 C 
ATOM     17  O   UNL     1      -0.066  15.108  18.467  0.00  0.00    +0.000 OA
ENDBRANCH  10  17
ENDBRANCH   1  13
BRANCH   6  18
ATOM     18  C   UNL     1       2.463   4.555  19.604  0.00  0.00    +0.000 A 
ATOM     19  C   UNL     1       2.437   4.574  21.011  0.00  0.00    +0.000 A 
ATOM     20  C   UNL     1       2.050   3.448  21.743  0.00  0.00    +0.000 A 
ATOM     21  C   UNL     1       1.687   2.283  21.077  0.00  0.00    +0.000 A 
ATOM     22  C   UNL     1       1.717   2.243  19.683  0.00  0.00    +0.000 A 
ATOM     23  C   UNL     1       2.111   3.370  18.950  0.00  0.00    +0.000 A 
ENDBRANCH   6  18
BRANCH   7  24
ATOM     24  C   UNL     1       5.216   4.980  17.939  0.00  0.00    +0.000 C 
ATOM     25  O   UNL     1       5.740   4.288  18.813  0.00  0.00    +0.000 OA
BRANCH  24  26
ATOM     26  C   UNL     1       5.750   4.834  16.544  0.00  0.00    +0.000 A 
ATOM     27  C   UNL     1       4.937   4.272  15.563  0.00  0.00    +0.000 A 
ATOM     28  C   UNL     1       5.451   4.122  14.277  0.00  0.00    +0.000 A 
ATOM     29  C   UNL     1       6.756   4.525  14.014  0.00  0.00    +0.000 A 
ATOM     30  C   UNL     1       7.499   5.064  15.052  0.00  0.00    +0.000 A 
ATOM     31  N   UNL     1       7.030   5.227  16.308  0.00  0.00    +0.000 NA
ENDBRANCH  24  26
ENDBRANCH   7  24
TORSDOF 5
ENDMDL
MODEL 3
REMARK VINA RESULT:      -8.3      0.328      1.279
REMARK  Name = 
REMARK  6 active torsions:
REMARK  status: ('A' for Active; 'I' for Inactive)
REMARK    1  A    between atoms: C_1  and  O_2
REMARK    2  A    between atoms: O_2  and  C_3
REMARK    3  A    between atoms: C_6  and  C_7
REMARK    4  A    between atoms: C_12  and  C_13
REMARK    5  A    between atoms: C_19  and  C_20
REMARK    6  A    between atoms: C_20  and  C_22
REMARK                            x       y       z     vdW  Elec       q    Type
REMARK                         _______ _______ _______ _____ _____    ______ ____
ROOT
ATOM      1  C   UNL     1       2.075   8.665  18.420  0.00  0.00    +0.000 C 
ATOM      2  O   UNL     1       1.706   7.819  19.231  0.00  0.00    +0.000 OA
ATOM      3  N   UNL     1       3.070   8.489  17.478  0.00  0.00    +0.000 N 
ATOM      4  C   UNL     1       3.697   7.275  17.366  0.00  0.00    +0.000 A 
ATOM      5  N   UNL     1       3.360   6.137  17.899  0.00  0.00    +0.000 NA
ATOM      6  C   UNL     1       4.316   5.166  17.637  0.00  0.00    +0.000 A 
ATOM      7  C   UNL     1       5.392   5.611  16.879  0.00  0.00    +0.000 A 
ATOM      8  S   UNL     1       5.092   7.257  16.401  0.00  0.00    +0.000 S 
ATOM      9  H   UNL     1       3.452   9.247  16.941  0.00  0.00    +0.000 HD
ENDROOT
BRANCH   1  13
ATOM     10  C   UNL     1       0.373  12.622  18.670  0.00  0.00    +0.000 A 
ATOM     11  C   UNL     1       1.719  12.419  18.380  0.00  0.00    +0.000 A 
ATOM     12  C   UNL     1       2.233  11.127  18.282  0.00  0.00    +0.000 A 
ATOM     13  C   UNL     1       1.412  10.005  18.492  0.00  0.00    +0.000 A 
ATOM     14  C   UNL     1       0.061  10.209  18.797  0.00  0.00    +0.000 A 
ATOM     15  C   UNL     1      -0.455  11.514  18.879  0.00  0.00    +0.000 A 
BRANCH  10  17
ATOM     16  C   UNL     1      -0.934  14.230  19.806  0.00  0.00    +0.000 C 
ATOM     17  O   UNL     1      -0.002  13.929  18.776  0.00  0.00    +0.000 OA
ENDBRANCH  10  17
ENDBRANCH   1  13
BRANCH   6  18
ATOM     18  C   UNL     1       4.093   3.830  18.192  0.00  0.00    +0.000 A 
ATOM     19  C   UNL     1       4.613   3.539  19.468  0.00  0.00    +0.000 A 
ATOM     20  C   UNL     1       4.488   2.264  20.027  0.00  0.00    +0.000 A 
ATOM     21  C   UNL     1       3.844   1.259  19.314  0.00  0.00    +0.000 A 
ATOM     22  C   UNL     1       3.333   1.526  18.045  0.00  0.00    +0.000 A 
ATOM     23  C   UNL     1       3.464   2.802  17.483  0.00  0.00    +0.000 A 
ENDBRANCH   6  18
BRANCH   7  24
ATOM     24  C   UNL     1       6.557   4.907  16.376  0.00  0.00    +0.000 C 
ATOM     25  O   UNL     1       7.434   4.451  17.110  0.00  0.00    +0.000 OA
BRANCH  24  26
ATOM     26  C   UNL     1       6.739   4.715  14.898  0.00  0.00    +0.000 A 
ATOM     27  C   UNL     1       5.939   3.791  14.231  0.00  0.00    +0.000 A 
ATOM     28  C   UNL     1       6.132   3.608  12.864  0.00  0.00    +0.000 A 
ATOM     29  C   UNL     1       7.119   4.338  12.211  0.00  0.00    +0.000 A 
ATOM     30  C   UNL     1       7.877   5.228  12.954  0.00  0.00    +0.000 A 
ATOM     31  N   UNL     1       7.714   5.434  14.279  0.00  0.00    +0.000 NA
ENDBRANCH  24  26
ENDBRANCH   7  24
TORSDOF 5
ENDMDL
MODEL 4
REMARK VINA RESULT:      -8.2      1.724      1.947
REMARK  Name = 
REMARK  6 active torsions:
REMARK  status: ('A' for Active; 'I' for Inactive)
REMARK    1  A    between atoms: C_1  and  O_2
REMARK    2  A    between atoms: O_2  and  C_3
REMARK    3  A    between atoms: C_6  and  C_7
REMARK    4  A    between atoms: C_12  and  C_13
REMARK    5  A    between atoms: C_19  and  C_20
REMARK    6  A    between atoms: C_20  and  C_22
REMARK                            x       y       z     vdW  Elec       q    Type
REMARK                         _______ _______ _______ _____ _____    ______ ____
ROOT
ATOM      1  C   UNL     1       1.460   9.693  18.994  0.00  0.00    +0.000 C 
ATOM      2  O   UNL     1       0.880   9.070  19.878  0.00  0.00    +0.000 OA
ATOM      3  N   UNL     1       2.447   9.184  18.171  0.00  0.00    +0.000 N 
ATOM      4  C   UNL     1       2.813   7.867  18.279  0.00  0.00    +0.000 A 
ATOM      5  N   UNL     1       2.218   6.912  18.933  0.00  0.00    +0.000 NA
ATOM      6  C   UNL     1       2.964   5.743  18.888  0.00  0.00    +0.000 A 
ATOM      7  C   UNL     1       4.148   5.847  18.169  0.00  0.00    +0.000 A 
ATOM      8  S   UNL     1       4.223   7.428  17.446  0.00  0.00    +0.000 S 
ATOM      9  H   UNL     1       3.006   9.762  17.570  0.00  0.00    +0.000 HD
ENDROOT
BRANCH   1  13
ATOM     10  C   UNL     1       0.173  13.776  18.448  0.00  0.00    +0.000 A 
ATOM     11  C   UNL     1      -0.733  12.748  18.696  0.00  0.00    +0.000 A 
ATOM     12  C   UNL     1      -0.282  11.444  18.893  0.00  0.00    +0.000 A 
ATOM     13  C   UNL     1       1.087  11.133  18.825  0.00  0.00    +0.000 A 
ATOM     14  C   UNL     1       1.997  12.165  18.563  0.00  0.00    +0.000 A 
ATOM     15  C   UNL     1       1.538  13.482  18.381  0.00  0.00    +0.000 A 
BRANCH  10  17
ATOM     16  C   UNL     1      -0.345  15.906  19.330  0.00  0.00    +0.000 C 
ATOM     17  O   UNL     1      -0.391  14.999  18.236  0.00  0.00    +0.000 OA
ENDBRANCH  10  17
ENDBRANCH   1  13
BRANCH   6  18
ATOM     18  C   UNL     1       2.438   4.578  19.600  0.00  0.00    +0.000 A 
ATOM     19  C   UNL     1       1.704   3.623  18.871  0.00  0.00    +0.000 A 
ATOM     20  C   UNL     1       1.123   2.520  19.504  0.00  0.00    +0.000 A 
ATOM     21  C   UNL     1       1.263   2.360  20.877  0.00  0.00    +0.000 A 
ATOM     22  C   UNL     1       1.977   3.302  21.617  0.00  0.00    +0.000 A 
ATOM     23  C   UNL     1       2.554   4.409  20.983  0.00  0.00    +0.000 A 
ENDBRANCH   6  18
BRANCH   7  24
ATOM     24  C   UNL     1       5.167   4.859  17.866  0.00  0.00    +0.000 C 
ATOM     25  O   UNL     1       5.616   4.079  18.708  0.00  0.00    +0.000 OA
BRANCH  24  26
ATOM     26  C   UNL     1       5.728   4.759  16.478  0.00  0.00    +0.000 A 
ATOM     27  C   UNL     1       4.936   4.231  15.462  0.00  0.00    +0.000 A 
ATOM     28  C   UNL     1       5.476   4.124  14.183  0.00  0.00    +0.000 A 
ATOM     29  C   UNL     1       6.785   4.534  13.960  0.00  0.00    +0.000 A 
ATOM     30  C   UNL     1       7.507   5.037  15.030  0.00  0.00    +0.000 A 
ATOM     31  N   UNL     1       7.013   5.158  16.282  0.00  0.00    +0.000 NA
ENDBRANCH  24  26
ENDBRANCH   7  24
TORSDOF 5
ENDMDL
MODEL 5
REMARK VINA RESULT:      -8.0      0.539      1.032
REMARK  Name = 
REMARK  6 active torsions:
REMARK  status: ('A' for Active; 'I' for Inactive)
REMARK    1  A    between atoms: C_1  and  O_2
REMARK    2  A    between atoms: O_2  and  C_3
REMARK    3  A    between atoms: C_6  and  C_7
REMARK    4  A    between atoms: C_12  and  C_13
REMARK    5  A    between atoms: C_19  and  C_20
REMARK    6  A    between atoms: C_20  and  C_22
REMARK                            x       y       z     vdW  Elec       q    Type
REMARK                         _______ _______ _______ _____ _____    ______ ____
ROOT
ATOM      1  C   UNL     1       1.890   8.703  18.759  0.00  0.00    +0.000 C 
ATOM      2  O   UNL     1       1.499   7.783  19.473  0.00  0.00    +0.000 OA
ATOM      3  N   UNL     1       2.925   8.624  17.847  0.00  0.00    +0.000 N 
ATOM      4  C   UNL     1       3.572   7.431  17.650  0.00  0.00    +0.000 A 
ATOM      5  N   UNL     1       3.228   6.246  18.062  0.00  0.00    +0.000 NA
ATOM      6  C   UNL     1       4.206   5.311  17.753  0.00  0.00    +0.000 A 
ATOM      7  C   UNL     1       5.306   5.834  17.084  0.00  0.00    +0.000 A 
ATOM      8  S   UNL     1       5.005   7.514  16.747  0.00  0.00    +0.000 S 
ATOM      9  H   UNL     1       3.319   9.432  17.399  0.00  0.00    +0.000 HD
ENDROOT
BRANCH   1  13
ATOM     10  C   UNL     1      -0.277  12.400  19.264  0.00  0.00    +0.000 A 
ATOM     11  C   UNL     1      -0.773  11.189  19.737  0.00  0.00    +0.000 A 
ATOM     12  C   UNL     1      -0.036  10.016  19.580  0.00  0.00    +0.000 A 
ATOM     13  C   UNL     1       1.208  10.025  18.926  0.00  0.00    +0.000 A 
ATOM     14  C   UNL     1       1.701  11.241  18.439  0.00  0.00    +0.000 A 
ATOM     15  C   UNL     1       0.961  12.424  18.614  0.00  0.00    +0.000 A 
BRANCH  10  17
ATOM     16  C   UNL     1      -1.766  13.542  20.700  0.00  0.00    +0.000 C 
ATOM     17  O   UNL     1      -1.104  13.469  19.444  0.00  0.00    +0.000 OA
ENDBRANCH  10  17
ENDBRANCH   1  13
BRANCH   6  18
ATOM     18  C   UNL     1       3.977   3.929  18.173  0.00  0.00    +0.000 A 
ATOM     19  C   UNL     1       4.627   3.464  19.332  0.00  0.00    +0.000 A 
ATOM     20  C   UNL     1       4.500   2.137  19.751  0.00  0.00    +0.000 A 
ATOM     21  C   UNL     1       3.723   1.252  19.012  0.00  0.00    +0.000 A 
ATOM     22  C   UNL     1       3.081   1.692  17.855  0.00  0.00    +0.000 A 
ATOM     23  C   UNL     1       3.213   3.020  17.433  0.00  0.00    +0.000 A 
ENDBRANCH   6  18
BRANCH   7  24
ATOM     24  C   UNL     1       6.499   5.190  16.567  0.00  0.00    +0.000 C 
ATOM     25  O   UNL     1       7.471   4.915  17.273  0.00  0.00    +0.000 OA
BRANCH  24  26
ATOM     26  C   UNL     1       6.593   4.837  15.112  0.00  0.00    +0.000 A 
ATOM     27  C   UNL     1       5.631   4.000  14.554  0.00  0.00    +0.000 A 
ATOM     28  C   UNL     1       5.741   3.664  13.207  0.00  0.00    +0.000 A 
ATOM     29  C   UNL     1       6.807   4.160  12.465  0.00  0.00    +0.000 A 
ATOM     30  C   UNL     1       7.726   4.978  13.103  0.00  0.00    +0.000 A 
ATOM     31  N   UNL     1       7.647   5.328  14.405  0.00  0.00    +0.000 NA
ENDBRANCH  24  26
ENDBRANCH   7  24
TORSDOF 5
ENDMDL
MODEL 6
REMARK VINA RESULT:      -8.0      1.367      1.708
REMARK  Name = 
REMARK  6 active torsions:
REMARK  status: ('A' for Active; 'I' for Inactive)
REMARK    1  A    between atoms: C_1  and  O_2
REMARK    2  A    between atoms: O_2  and  C_3
REMARK    3  A    between atoms: C_6  and  C_7
REMARK    4  A    between atoms: C_12  and  C_13
REMARK    5  A    between atoms: C_19  and  C_20
REMARK    6  A    between atoms: C_20  and  C_22
REMARK                            x       y       z     vdW  Elec       q    Type
REMARK                         _______ _______ _______ _____ _____    ______ ____
ROOT
ATOM      1  C   UNL     1       1.506   9.544  18.600  0.00  0.00    +0.000 C 
ATOM      2  O   UNL     1       0.889   8.795  19.353  0.00  0.00    +0.000 OA
ATOM      3  N   UNL     1       2.589   9.182  17.822  0.00  0.00    +0.000 N 
ATOM      4  C   UNL     1       3.022   7.881  17.819  0.00  0.00    +0.000 A 
ATOM      5  N   UNL     1       2.431   6.829  18.306  0.00  0.00    +0.000 NA
ATOM      6  C   UNL     1       3.246   5.711  18.203  0.00  0.00    +0.000 A 
ATOM      7  C   UNL     1       4.480   5.956  17.613  0.00  0.00    +0.000 A 
ATOM      8  S   UNL     1       4.524   7.611  17.079  0.00  0.00    +0.000 S 
ATOM      9  H   UNL     1       3.163   9.852  17.343  0.00  0.00    +0.000 HD
ENDROOT
BRANCH   1  13
ATOM     10  C   UNL     1       0.447  13.727  18.538  0.00  0.00    +0.000 A 
ATOM     11  C   UNL     1       1.766  13.302  18.405  0.00  0.00    +0.000 A 
ATOM     12  C   UNL     1       2.072  11.942  18.404  0.00  0.00    +0.000 A 
ATOM     13  C   UNL     1       1.064  10.974  18.557  0.00  0.00    +0.000 A 
ATOM     14  C   UNL     1      -0.261  11.402  18.704  0.00  0.00    +0.000 A 
ATOM     15  C   UNL     1      -0.566  12.774  18.689  0.00  0.00    +0.000 A 
BRANCH  10  17
ATOM     16  C   UNL     1       0.887  15.766  19.650  0.00  0.00    +0.000 C 
ATOM     17  O   UNL     1       0.280  15.080  18.562  0.00  0.00    +0.000 OA
ENDBRANCH  10  17
ENDBRANCH   1  13
BRANCH   6  18
ATOM     18  C   UNL     1       2.731   4.447  18.730  0.00  0.00    +0.000 A 
ATOM     19  C   UNL     1       1.575   3.899  18.144  0.00  0.00    +0.000 A 
ATOM     20  C   UNL     1       0.997   2.727  18.641  0.00  0.00    +0.000 A 
ATOM     21  C   UNL     1       1.565   2.090  19.738  0.00  0.00    +0.000 A 
ATOM     22  C   UNL     1       2.704   2.625  20.339  0.00  0.00    +0.000 A 
ATOM     23  C   UNL     1       3.279   3.802  19.843  0.00  0.00    +0.000 A 
ENDBRANCH   6  18
BRANCH   7  24
ATOM     24  C   UNL     1       5.579   5.060  17.300  0.00  0.00    +0.000 C 
ATOM     25  O   UNL     1       6.216   4.454  18.163  0.00  0.00    +0.000 OA
BRANCH  24  26
ATOM     26  C   UNL     1       5.991   4.846  15.873  0.00  0.00    +0.000 A 
ATOM     27  C   UNL     1       5.204   4.043  15.053  0.00  0.00    +0.000 A 
ATOM     28  C   UNL     1       5.609   3.835  13.737  0.00  0.00    +0.000 A 
ATOM     29  C   UNL     1       6.785   4.422  13.285  0.00  0.00    +0.000 A 
ATOM     30  C   UNL     1       7.515   5.198  14.172  0.00  0.00    +0.000 A 
ATOM     31  N   UNL     1       7.149   5.423  15.453  0.00  0.00    +0.000 NA
ENDBRANCH  24  26
ENDBRANCH   7  24
TORSDOF 5
ENDMDL
MODEL 7
REMARK VINA RESULT:      -8.0      3.238      3.969
REMARK  Name = 
REMARK  6 active torsions:
REMARK  status: ('A' for Active; 'I' for Inactive)
REMARK    1  A    between atoms: C_1  and  O_2
REMARK    2  A    between atoms: O_2  and  C_3
REMARK    3  A    between atoms: C_6  and  C_7
REMARK    4  A    between atoms: C_12  and  C_13
REMARK    5  A    between atoms: C_19  and  C_20
REMARK    6  A    between atoms: C_20  and  C_22
REMARK                            x       y       z     vdW  Elec       q    Type
REMARK                         _______ _______ _______ _____ _____    ______ ____
ROOT
ATOM      1  C   UNL     1       0.211   9.674  21.030  0.00  0.00    +0.000 C 
ATOM      2  O   UNL     1       0.003   8.788  21.854  0.00  0.00    +0.000 OA
ATOM      3  N   UNL     1       0.968   9.538  19.881  0.00  0.00    +0.000 N 
ATOM      4  C   UNL     1       1.515   8.321  19.566  0.00  0.00    +0.000 A 
ATOM      5  N   UNL     1       1.267   7.159  20.097  0.00  0.00    +0.000 NA
ATOM      6  C   UNL     1       2.110   6.187  19.575  0.00  0.00    +0.000 A 
ATOM      7  C   UNL     1       3.005   6.658  18.622  0.00  0.00    +0.000 A 
ATOM      8  S   UNL     1       2.660   8.335  18.315  0.00  0.00    +0.000 S 
ATOM      9  H   UNL     1       1.246  10.320  19.317  0.00  0.00    +0.000 HD
ENDROOT
BRANCH   1  13
ATOM     10  C   UNL     1      -1.588  13.460  22.055  0.00  0.00    +0.000 A 
ATOM     11  C   UNL     1      -1.417  12.450  22.997  0.00  0.00    +0.000 A 
ATOM     12  C   UNL     1      -0.809  11.248  22.640  0.00  0.00    +0.000 A 
ATOM     13  C   UNL     1      -0.375  11.020  21.322  0.00  0.00    +0.000 A 
ATOM     14  C   UNL     1      -0.559  12.031  20.371  0.00  0.00    +0.000 A 
ATOM     15  C   UNL     1      -1.158  13.248  20.741  0.00  0.00    +0.000 A 
BRANCH  10  17
ATOM     16  C   UNL     1      -2.243  14.745  23.927  0.00  0.00    +0.000 C 
ATOM     17  O   UNL     1      -2.227  14.573  22.515  0.00  0.00    +0.000 OA
ENDBRANCH  10  17
ENDBRANCH   1  13
BRANCH   6  18
ATOM     18  C   UNL     1       1.972   4.825  20.091  0.00  0.00    +0.000 A 
ATOM     19  C   UNL     1       1.312   3.871  19.293  0.00  0.00    +0.000 A 
ATOM     20  C   UNL     1       1.093   2.570  19.754  0.00  0.00    +0.000 A 
ATOM     21  C   UNL     1       1.526   2.205  21.023  0.00  0.00    +0.000 A 
ATOM     22  C   UNL     1       2.171   3.141  21.832  0.00  0.00    +0.000 A 
ATOM     23  C   UNL     1       2.385   4.446  21.372  0.00  0.00    +0.000 A 
ENDBRANCH   6  18
BRANCH   7  24
ATOM     24  C   UNL     1       4.007   5.964  17.834  0.00  0.00    +0.000 C 
ATOM     25  O   UNL     1       3.722   5.169  16.937  0.00  0.00    +0.000 OA
BRANCH  24  26
ATOM     26  C   UNL     1       5.466   6.195  18.101  0.00  0.00    +0.000 A 
ATOM     27  C   UNL     1       6.178   7.060  17.274  0.00  0.00    +0.000 A 
ATOM     28  C   UNL     1       7.535   7.249  17.519  0.00  0.00    +0.000 A 
ATOM     29  C   UNL     1       8.140   6.566  18.568  0.00  0.00    +0.000 A 
ATOM     30  C   UNL     1       7.359   5.715  19.335  0.00  0.00    +0.000 A 
ATOM     31  N   UNL     1       6.040   5.512  19.127  0.00  0.00    +0.000 NA
ENDBRANCH  24  26
ENDBRANCH   7  24
TORSDOF 5
ENDMDL
MODEL 8
REMARK VINA RESULT:      -7.9      2.628      3.379
REMARK  Name = 
REMARK  6 active torsions:
REMARK  status: ('A' for Active; 'I' for Inactive)
REMARK    1  A    between atoms: C_1  and  O_2
REMARK    2  A    between atoms: O_2  and  C_3
REMARK    3  A    between atoms: C_6  and  C_7
REMARK    4  A    between atoms: C_12  and  C_13
REMARK    5  A    between atoms: C_19  and  C_20
REMARK    6  A    between atoms: C_20  and  C_22
REMARK                            x       y       z     vdW  Elec       q    Type
REMARK                         _______ _______ _______ _____ _____    ______ ____
ROOT
ATOM      1  C   UNL     1       0.519   9.074  20.653  0.00  0.00    +0.000 C 
ATOM      2  O   UNL     1       0.519   8.001  21.249  0.00  0.00    +0.000 OA
ATOM      3  N   UNL     1       1.204   9.339  19.482  0.00  0.00    +0.000 N 
ATOM      4  C   UNL     1       1.920   8.342  18.870  0.00  0.00    +0.000 A 
ATOM      5  N   UNL     1       1.905   7.064  19.118  0.00  0.00    +0.000 NA
ATOM      6  C   UNL     1       2.857   6.402  18.356  0.00  0.00    +0.000 A 
ATOM      7  C   UNL     1       3.592   7.227  17.515  0.00  0.00    +0.000 A 
ATOM      8  S   UNL     1       2.956   8.843  17.624  0.00  0.00    +0.000 S 
ATOM      9  H   UNL     1       1.309  10.265  19.110  0.00  0.00    +0.000 HD
ENDROOT
BRANCH   1  13
ATOM     10  C   UNL     1      -1.808  12.146  22.593  0.00  0.00    +0.000 A 
ATOM     11  C   UNL     1      -1.449  10.973  23.250  0.00  0.00    +0.000 A 
ATOM     12  C   UNL     1      -0.675  10.011  22.603  0.00  0.00    +0.000 A 
ATOM     13  C   UNL     1      -0.258  10.193  21.273  0.00  0.00    +0.000 A 
ATOM     14  C   UNL     1      -0.631  11.367  20.608  0.00  0.00    +0.000 A 
ATOM     15  C   UNL     1      -1.398  12.341  21.270  0.00  0.00    +0.000 A 
BRANCH  10  17
ATOM     16  C   UNL     1      -3.631  12.383  24.077  0.00  0.00    +0.000 C 
ATOM     17  O   UNL     1      -2.596  12.992  23.317  0.00  0.00    +0.000 OA
ENDBRANCH  10  17
ENDBRANCH   1  13
BRANCH   6  18
ATOM     18  C   UNL     1       2.981   4.955  18.539  0.00  0.00    +0.000 A 
ATOM     19  C   UNL     1       2.183   4.109  17.746  0.00  0.00    +0.000 A 
ATOM     20  C   UNL     1       2.210   2.722  17.914  0.00  0.00    +0.000 A 
ATOM     21  C   UNL     1       3.032   2.161  18.884  0.00  0.00    +0.000 A 
ATOM     22  C   UNL     1       3.820   2.984  19.687  0.00  0.00    +0.000 A 
ATOM     23  C   UNL     1       3.790   4.375  19.521  0.00  0.00    +0.000 A 
ENDBRANCH   6  18
BRANCH   7  24
ATOM     24  C   UNL     1       4.636   6.919  16.555  0.00  0.00    +0.000 C 
ATOM     25  O   UNL     1       4.610   7.312  15.387  0.00  0.00    +0.000 OA
BRANCH  24  26
ATOM     26  C   UNL     1       5.811   6.081  16.964  0.00  0.00    +0.000 A 
ATOM     27  C   UNL     1       6.136   4.955  16.213  0.00  0.00    +0.000 A 
ATOM     28  C   UNL     1       7.216   4.174  16.615  0.00  0.00    +0.000 A 
ATOM     29  C   UNL     1       7.929   4.531  17.754  0.00  0.00    +0.000 A 
ATOM     30  C   UNL     1       7.531   5.662  18.450  0.00  0.00    +0.000 A 
ATOM     31  N   UNL     1       6.491   6.443  18.085  0.00  0.00    +0.000 NA
ENDBRANCH  24  26
ENDBRANCH   7  24
TORSDOF 5
ENDMDL
MODEL 9
REMARK VINA RESULT:      -7.9      2.657      3.740
REMARK  Name = 
REMARK  6 active torsions:
REMARK  status: ('A' for Active; 'I' for Inactive)
REMARK    1  A    between atoms: C_1  and  O_2
REMARK    2  A    between atoms: O_2  and  C_3
REMARK    3  A    between atoms: C_6  and  C_7
REMARK    4  A    between atoms: C_12  and  C_13
REMARK    5  A    between atoms: C_19  and  C_20
REMARK    6  A    between atoms: C_20  and  C_22
REMARK                            x       y       z     vdW  Elec       q    Type
REMARK                         _______ _______ _______ _____ _____    ______ ____
ROOT
ATOM      1  C   UNL     1       1.059  10.087  19.119  0.00  0.00    +0.000 C 
ATOM      2  O   UNL     1       0.514   9.482  20.038  0.00  0.00    +0.000 OA
ATOM      3  N   UNL     1       2.006   9.558  18.262  0.00  0.00    +0.000 N 
ATOM      4  C   UNL     1       2.368   8.241  18.376  0.00  0.00    +0.000 A 
ATOM      5  N   UNL     1       1.796   7.300  19.071  0.00  0.00    +0.000 NA
ATOM      6  C   UNL     1       2.532   6.125  19.013  0.00  0.00    +0.000 A 
ATOM      7  C   UNL     1       3.685   6.210  18.241  0.00  0.00    +0.000 A 
ATOM      8  S   UNL     1       3.738   7.778  17.490  0.00  0.00    +0.000 S 
ATOM      9  H   UNL     1       2.542  10.122  17.628  0.00  0.00    +0.000 HD
ENDROOT
BRANCH   1  13
ATOM     10  C   UNL     1       0.207  14.294  18.674  0.00  0.00    +0.000 A 
ATOM     11  C   UNL     1       1.506  13.797  18.607  0.00  0.00    +0.000 A 
ATOM     12  C   UNL     1       1.745  12.430  18.730  0.00  0.00    +0.000 A 
ATOM     13  C   UNL     1       0.688  11.527  18.943  0.00  0.00    +0.000 A 
ATOM     14  C   UNL     1      -0.616  12.028  19.024  0.00  0.00    +0.000 A 
ATOM     15  C   UNL     1      -0.854  13.407  18.883  0.00  0.00    +0.000 A 
BRANCH  10  17
ATOM     16  C   UNL     1       1.314  16.381  18.745  0.00  0.00    +0.000 C 
ATOM     17  O   UNL     1       0.105  15.650  18.578  0.00  0.00    +0.000 OA
ENDBRANCH  10  17
ENDBRANCH   1  13
BRANCH   6  18
ATOM     18  C   UNL     1       2.031   4.976  19.766  0.00  0.00    +0.000 A 
ATOM     19  C   UNL     1       2.523   4.761  21.068  0.00  0.00    +0.000 A 
ATOM     20  C   UNL     1       2.131   3.647  21.815  0.00  0.00    +0.000 A 
ATOM     21  C   UNL     1       1.244   2.727  21.268  0.00  0.00    +0.000 A 
ATOM     22  C   UNL     1       0.756   2.917  19.976  0.00  0.00    +0.000 A 
ATOM     23  C   UNL     1       1.153   4.031  19.226  0.00  0.00    +0.000 A 
ENDBRANCH   6  18
BRANCH   7  24
ATOM     24  C   UNL     1       4.683   5.210  17.911  0.00  0.00    +0.000 C 
ATOM     25  O   UNL     1       5.748   5.484  17.355  0.00  0.00    +0.000 OA
BRANCH  24  26
ATOM     26  C   UNL     1       4.439   3.766  18.239  0.00  0.00    +0.000 A 
ATOM     27  C   UNL     1       3.711   2.982  17.349  0.00  0.00    +0.000 A 
ATOM     28  C   UNL     1       3.474   1.649  17.675  0.00  0.00    +0.000 A 
ATOM     29  C   UNL     1       3.958   1.145  18.876  0.00  0.00    +0.000 A 
ATOM     30  C   UNL     1       4.664   1.998  19.710  0.00  0.00    +0.000 A 
ATOM     31  N   UNL     1       4.915   3.294  19.423  0.00  0.00    +0.000 NA
ENDBRANCH  24  26
ENDBRANCH   7  24
TORSDOF 5
ENDMDL
