MODEL 1
REMARK VINA RESULT:      -8.2      0.000      0.000
REMARK  Name = 
REMARK  13 active torsions:
REMARK  status: ('A' for Active; 'I' for Inactive)
REMARK    1  A    between atoms: C_1  and  O_2
REMARK    2  A    between atoms: O_2  and  C_3
REMARK    3  A    between atoms: C_3  and  C_5
REMARK    4  A    between atoms: N_12  and  C_13
REMARK    5  A    between atoms: C_19  and  O_20
REMARK    6  A    between atoms: O_20  and  C_21
REMARK    7  A    between atoms: C_21  and  C_22
REMARK    8  A    between atoms: C_21  and  C_23
REMARK    9  A    between atoms: N_25  and  C_26
REMARK   10  A    between atoms: C_26  and  C_27
REMARK   11  A    between atoms: C_27  and  C_28
REMARK   12  A    between atoms: C_28  and  N_29
REMARK   13  A    between atoms: C_31  and  C_32
REMARK                            x       y       z     vdW  Elec       q    Type
REMARK                         _______ _______ _______ _____ _____    ______ ____
ROOT
ATOM      1  C   UNL     1       2.131   5.358  20.306  0.00  0.00    +0.000 A 
ATOM      2  C   UNL     1       0.994   4.548  20.543  0.00  0.00    +0.000 A 
ATOM      3  C   UNL     1       0.964   3.197  20.211  0.00  0.00    +0.000 A 
ATOM      4  C   UNL     1       2.081   2.628  19.640  0.00  0.00    +0.000 A 
ATOM      5  F   UNL     1       2.061   1.339  19.282  0.00  0.00    +0.000 F 
ATOM      6  C   UNL     1       3.234   3.376  19.439  0.00  0.00    +0.000 A 
ATOM      7  C   UNL     1       3.300   4.734  19.798  0.00  0.00    +0.000 A 
ENDROOT
BRANCH   1  15
ATOM      8  C   UNL     1       0.349  11.023  20.887  0.00  0.00    +0.000 A 
ATOM      9  S   UNL     1       0.606  11.451  19.255  0.00  0.00    +0.000 S 
ATOM     10  C   UNL     1       1.316   9.958  18.896  0.00  0.00    +0.000 A 
ATOM     11  N   UNL     1       1.714   9.731  17.636  0.00  0.00    +0.000 NA
ATOM     12  C   UNL     1       2.221   8.518  17.475  0.00  0.00    +0.000 A 
ATOM     13  N   UNL     1       2.346   7.571  18.411  0.00  0.00    +0.000 NA
ATOM     14  C   UNL     1       1.942   7.805  19.693  0.00  0.00    +0.000 A 
ATOM     15  N   UNL     1       2.051   6.744  20.633  0.00  0.00    +0.000 N 
ATOM     16  C   UNL     1       1.402   9.094  19.981  0.00  0.00    +0.000 A 
ATOM     17  C   UNL     1       0.841   9.743  21.167  0.00  0.00    +0.000 A 
ATOM     18  C   UNL     1       0.755   9.134  22.533  0.00  0.00    +0.000 C 
ATOM     19  H   UNL     1       2.578   7.000  21.456  0.00  0.00    +0.000 HD
BRANCH   8  20
ATOM     20  C   UNL     1      -0.316  11.950  21.803  0.00  0.00    +0.000 C 
ATOM     21  O   UNL     1      -1.403  11.749  22.333  0.00  0.00    +0.000 OA
BRANCH  20  23
ATOM     22  C   UNL     1      -0.357  14.285  22.072  0.00  0.00    +0.000 C 
ATOM     23  O   UNL     1       0.416  13.087  22.001  0.00  0.00    +0.000 OA
ENDBRANCH  20  23
ENDBRANCH   8  20
ENDBRANCH   1  15
BRANCH   7  24
ATOM     24  O   UNL     1       4.462   5.475  19.648  0.00  0.00    +0.000 OA
BRANCH  24  25
ATOM     25  C   UNL     1       5.354   5.040  18.593  0.00  0.00    +0.000 C 
ATOM     26  C   UNL     1       4.851   5.414  17.191  0.00  0.00    +0.000 C 
BRANCH  25  27
ATOM     27  C   UNL     1       6.789   5.599  18.712  0.00  0.00    +0.000 C 
ATOM     28  O   UNL     1       7.686   4.992  19.296  0.00  0.00    +0.000 OA
ATOM     29  N   UNL     1       6.964   6.868  18.217  0.00  0.00    +0.000 N 
ATOM     30  H   UNL     1       6.192   7.300  17.723  0.00  0.00    +0.000 HD
BRANCH  29  31
ATOM     31  C   UNL     1       8.231   7.565  18.327  0.00  0.00    +0.000 C 
BRANCH  31  32
ATOM     32  C   UNL     1       8.136   9.020  17.872  0.00  0.00    +0.000 C 
BRANCH  32  33
ATOM     33  C   UNL     1       8.981   9.961  18.731  0.00  0.00    +0.000 C 
BRANCH  33  34
ATOM     34  N   UNL     1       9.047  11.282  18.111  0.00  0.00    +0.000 NA
ATOM     35  H   UNL     1       8.454  11.932  18.628  0.00  0.00    +0.000 HD
ATOM     36  H   UNL     1       8.652  11.231  17.172  0.00  0.00    +0.000 HD
ENDBRANCH  33  34
ENDBRANCH  32  33
ENDBRANCH  31  32
ENDBRANCH  29  31
ENDBRANCH  25  27
ENDBRANCH  24  25
ENDBRANCH   7  24
TORSDOF 10
ENDMDL
MODEL 2
REMARK VINA RESULT:      -7.6      1.834      2.630
REMARK  Name = 
REMARK  13 active torsions:
REMARK  status: ('A' for Active; 'I' for Inactive)
REMARK    1  A    between atoms: C_1  and  O_2
REMARK    2  A    between atoms: O_2  and  C_3
REMARK    3  A    between atoms: C_3  and  C_5
REMARK    4  A    between atoms: N_12  and  C_13
REMARK    5  A    between atoms: C_19  and  O_20
REMARK    6  A    between atoms: O_20  and  C_21
REMARK    7  A    between atoms: C_21  and  C_22
REMARK    8  A    between atoms: C_21  and  C_23
REMARK    9  A    between atoms: N_25  and  C_26
REMARK   10  A    between atoms: C_26  and  C_27
REMARK   11  A    between atoms: C_27  and  C_28
REMARK   12  A    between atoms: C_28  and  N_29
REMARK   13  A    between atoms: C_31  and  C_32
REMARK                            x       y       z     vdW  Elec       q    Type
REMARK                         _______ _______ _______ _____ _____    ______ ____
ROOT
ATOM      1  C   UNL     1       2.496   5.317  20.087  0.00  0.00    +0.000 A 
ATOM      2  C   UNL     1       1.428   4.423  20.342  0.00  0.00    +0.000 A 
ATOM      3  C   UNL     1       1.474   3.085  19.961  0.00  0.00    +0.000 A 
ATOM      4  C   UNL     1       2.599   2.615  19.320  0.00  0.00    +0.000 A 
ATOM      5  F   UNL     1       2.648   1.341  18.915  0.00  0.00    +0.000 F 
ATOM      6  C   UNL     1       3.689   3.447  19.098  0.00  0.00    +0.000 A 
ATOM      7  C   UNL     1       3.680   4.793  19.505  0.00  0.00    +0.000 A 
ENDROOT
BRANCH   1  15
ATOM      8  C   UNL     1       0.335  10.797  21.039  0.00  0.00    +0.000 A 
ATOM      9  S   UNL     1       0.395  11.289  19.406  0.00  0.00    +0.000 S 
ATOM     10  C   UNL     1       1.183   9.871  18.927  0.00  0.00    +0.000 A 
ATOM     11  N   UNL     1       1.472   9.713  17.628  0.00  0.00    +0.000 NA
ATOM     12  C   UNL     1       2.055   8.551  17.375  0.00  0.00    +0.000 A 
ATOM     13  N   UNL     1       2.347   7.593  18.261  0.00  0.00    +0.000 NA
ATOM     14  C   UNL     1       2.053   7.756  19.583  0.00  0.00    +0.000 A 
ATOM     15  N   UNL     1       2.338   6.681  20.470  0.00  0.00    +0.000 N 
ATOM     16  C   UNL     1       1.444   8.987  19.967  0.00  0.00    +0.000 A 
ATOM     17  C   UNL     1       0.952   9.554  21.224  0.00  0.00    +0.000 A 
ATOM     18  C   UNL     1       1.050   8.902  22.569  0.00  0.00    +0.000 C 
ATOM     19  H   UNL     1       2.922   6.958  21.247  0.00  0.00    +0.000 HD
BRANCH   8  20
ATOM     20  C   UNL     1      -0.309  11.639  22.047  0.00  0.00    +0.000 C 
ATOM     21  O   UNL     1      -1.209  11.272  22.793  0.00  0.00    +0.000 OA
BRANCH  20  23
ATOM     22  C   UNL     1      -0.772  13.944  22.020  0.00  0.00    +0.000 C 
ATOM     23  O   UNL     1       0.207  12.905  22.060  0.00  0.00    +0.000 OA
ENDBRANCH  20  23
ENDBRANCH   8  20
ENDBRANCH   1  15
BRANCH   7  24
ATOM     24  O   UNL     1       4.782   5.617  19.333  0.00  0.00    +0.000 OA
BRANCH  24  25
ATOM     25  C   UNL     1       5.113   5.946  17.962  0.00  0.00    +0.000 C 
ATOM     26  C   UNL     1       5.905   7.255  17.835  0.00  0.00    +0.000 C 
BRANCH  25  27
ATOM     27  C   UNL     1       5.936   4.859  17.236  0.00  0.00    +0.000 C 
ATOM     28  O   UNL     1       7.000   4.431  17.681  0.00  0.00    +0.000 OA
ATOM     29  N   UNL     1       5.453   4.486  16.006  0.00  0.00    +0.000 N 
ATOM     30  H   UNL     1       4.557   4.856  15.711  0.00  0.00    +0.000 HD
BRANCH  29  31
ATOM     31  C   UNL     1       6.155   3.538  15.162  0.00  0.00    +0.000 C 
BRANCH  31  32
ATOM     32  C   UNL     1       6.011   3.864  13.676  0.00  0.00    +0.000 C 
BRANCH  32  33
ATOM     33  C   UNL     1       7.160   4.722  13.148  0.00  0.00    +0.000 C 
BRANCH  33  34
ATOM     34  N   UNL     1       7.755   5.490  14.239  0.00  0.00    +0.000 NA
ATOM     35  H   UNL     1       7.508   5.063  15.132  0.00  0.00    +0.000 HD
ATOM     36  H   UNL     1       7.343   6.423  14.254  0.00  0.00    +0.000 HD
ENDBRANCH  33  34
ENDBRANCH  32  33
ENDBRANCH  31  32
ENDBRANCH  29  31
ENDBRANCH  25  27
ENDBRANCH  24  25
ENDBRANCH   7  24
TORSDOF 10
ENDMDL
MODEL 3
REMARK VINA RESULT:      -7.3      0.884      1.136
REMARK  Name = 
REMARK  13 active torsions:
REMARK  status: ('A' for Active; 'I' for Inactive)
REMARK    1  A    between atoms: C_1  and  O_2
REMARK    2  A    between atoms: O_2  and  C_3
REMARK    3  A    between atoms: C_3  and  C_5
REMARK    4  A    between atoms: N_12  and  C_13
REMARK    5  A    between atoms: C_19  and  O_20
REMARK    6  A    between atoms: O_20  and  C_21
REMARK    7  A    between atoms: C_21  and  C_22
REMARK    8  A    between atoms: C_21  and  C_23
REMARK    9  A    between atoms: N_25  and  C_26
REMARK   10  A    between atoms: C_26  and  C_27
REMARK   11  A    between atoms: C_27  and  C_28
REMARK   12  A    between atoms: C_28  and  N_29
REMARK   13  A    between atoms: C_31  and  C_32
REMARK                            x       y       z     vdW  Elec       q    Type
REMARK                         _______ _______ _______ _____ _____    ______ ____
ROOT
ATOM      1  C   UNL     1       2.253   5.371  20.267  0.00  0.00    +0.000 A 
ATOM      2  C   UNL     1       1.206   4.520  20.696  0.00  0.00    +0.000 A 
ATOM      3  C   UNL     1       1.184   3.161  20.395  0.00  0.00    +0.000 A 
ATOM      4  C   UNL     1       2.222   2.626  19.663  0.00  0.00    +0.000 A 
ATOM      5  F   UNL     1       2.202   1.330  19.334  0.00  0.00    +0.000 F 
ATOM      6  C   UNL     1       3.293   3.417  19.268  0.00  0.00    +0.000 A 
ATOM      7  C   UNL     1       3.354   4.785  19.590  0.00  0.00    +0.000 A 
ENDROOT
BRANCH   1  15
ATOM      8  C   UNL     1       0.396  11.010  20.869  0.00  0.00    +0.000 A 
ATOM      9  S   UNL     1       0.557  11.418  19.220  0.00  0.00    +0.000 S 
ATOM     10  C   UNL     1       1.275   9.934  18.843  0.00  0.00    +0.000 A 
ATOM     11  N   UNL     1       1.609   9.697  17.567  0.00  0.00    +0.000 NA
ATOM     12  C   UNL     1       2.130   8.492  17.394  0.00  0.00    +0.000 A 
ATOM     13  N   UNL     1       2.324   7.561  18.335  0.00  0.00    +0.000 NA
ATOM     14  C   UNL     1       1.984   7.805  19.633  0.00  0.00    +0.000 A 
ATOM     15  N   UNL     1       2.164   6.759  20.581  0.00  0.00    +0.000 N 
ATOM     16  C   UNL     1       1.436   9.088  19.933  0.00  0.00    +0.000 A 
ATOM     17  C   UNL     1       0.926   9.743  21.139  0.00  0.00    +0.000 A 
ATOM     18  C   UNL     1       0.926   9.152  22.515  0.00  0.00    +0.000 C 
ATOM     19  H   UNL     1       2.730   7.037  21.370  0.00  0.00    +0.000 HD
BRANCH   8  20
ATOM     20  C   UNL     1      -0.237  11.936  21.807  0.00  0.00    +0.000 C 
ATOM     21  O   UNL     1       0.254  12.996  22.181  0.00  0.00    +0.000 OA
BRANCH  20  23
ATOM     22  C   UNL     1      -2.188  12.409  23.032  0.00  0.00    +0.000 C 
ATOM     23  O   UNL     1      -1.452  11.480  22.236  0.00  0.00    +0.000 OA
ENDBRANCH  20  23
ENDBRANCH   8  20
ENDBRANCH   1  15
BRANCH   7  24
ATOM     24  O   UNL     1       4.443   5.570  19.244  0.00  0.00    +0.000 OA
BRANCH  24  25
ATOM     25  C   UNL     1       5.113   5.209  18.012  0.00  0.00    +0.000 C 
ATOM     26  C   UNL     1       4.144   4.719  16.925  0.00  0.00    +0.000 C 
BRANCH  25  27
ATOM     27  C   UNL     1       5.938   6.356  17.385  0.00  0.00    +0.000 C 
ATOM     28  O   UNL     1       5.598   6.918  16.345  0.00  0.00    +0.000 OA
ATOM     29  N   UNL     1       7.130   6.625  18.011  0.00  0.00    +0.000 N 
ATOM     30  H   UNL     1       7.335   6.145  18.879  0.00  0.00    +0.000 HD
BRANCH  29  31
ATOM     31  C   UNL     1       8.057   7.615  17.496  0.00  0.00    +0.000 C 
BRANCH  31  32
ATOM     32  C   UNL     1       7.726   9.027  17.976  0.00  0.00    +0.000 C 
BRANCH  32  33
ATOM     33  C   UNL     1       8.900   9.696  18.689  0.00  0.00    +0.000 C 
BRANCH  33  34
ATOM     34  N   UNL     1       9.025  11.086  18.256  0.00  0.00    +0.000 NA
ATOM     35  H   UNL     1       8.127  11.414  17.900  0.00  0.00    +0.000 HD
ATOM     36  H   UNL     1       9.671  11.133  17.469  0.00  0.00    +0.000 HD
ENDBRANCH  33  34
ENDBRANCH  32  33
ENDBRANCH  31  32
ENDBRANCH  29  31
ENDBRANCH  25  27
ENDBRANCH  24  25
ENDBRANCH   7  24
TORSDOF 10
ENDMDL
MODEL 4
REMARK VINA RESULT:      -7.2      1.915      2.853
REMARK  Name = 
REMARK  13 active torsions:
REMARK  status: ('A' for Active; 'I' for Inactive)
REMARK    1  A    between atoms: C_1  and  O_2
REMARK    2  A    between atoms: O_2  and  C_3
REMARK    3  A    between atoms: C_3  and  C_5
REMARK    4  A    between atoms: N_12  and  C_13
REMARK    5  A    between atoms: C_19  and  O_20
REMARK    6  A    between atoms: O_20  and  C_21
REMARK    7  A    between atoms: C_21  and  C_22
REMARK    8  A    between atoms: C_21  and  C_23
REMARK    9  A    between atoms: N_25  and  C_26
REMARK   10  A    between atoms: C_26  and  C_27
REMARK   11  A    between atoms: C_27  and  C_28
REMARK   12  A    between atoms: C_28  and  N_29
REMARK   13  A    between atoms: C_31  and  C_32
REMARK                            x       y       z     vdW  Elec       q    Type
REMARK                         _______ _______ _______ _____ _____    ______ ____
ROOT
ATOM      1  C   UNL     1       2.108   5.473  20.311  0.00  0.00    +0.000 A 
ATOM      2  C   UNL     1       1.026   4.608  20.603  0.00  0.00    +0.000 A 
ATOM      3  C   UNL     1       1.040   3.260  20.256  0.00  0.00    +0.000 A 
ATOM      4  C   UNL     1       2.148   2.751  19.613  0.00  0.00    +0.000 A 
ATOM      5  F   UNL     1       2.166   1.466  19.241  0.00  0.00    +0.000 F 
ATOM      6  C   UNL     1       3.250   3.555  19.355  0.00  0.00    +0.000 A 
ATOM      7  C   UNL     1       3.274   4.911  19.727  0.00  0.00    +0.000 A 
ENDROOT
BRANCH   1  15
ATOM      8  C   UNL     1       0.085  11.031  21.105  0.00  0.00    +0.000 A 
ATOM      9  S   UNL     1       0.183  11.483  19.462  0.00  0.00    +0.000 S 
ATOM     10  C   UNL     1       0.938  10.033  19.028  0.00  0.00    +0.000 A 
ATOM     11  N   UNL     1       1.241   9.837  17.737  0.00  0.00    +0.000 NA
ATOM     12  C   UNL     1       1.796   8.655  17.520  0.00  0.00    +0.000 A 
ATOM     13  N   UNL     1       2.049   7.709  18.431  0.00  0.00    +0.000 NA
ATOM     14  C   UNL     1       1.741   7.912  19.745  0.00  0.00    +0.000 A 
ATOM     15  N   UNL     1       1.983   6.850  20.660  0.00  0.00    +0.000 N 
ATOM     16  C   UNL     1       1.159   9.167  20.092  0.00  0.00    +0.000 A 
ATOM     17  C   UNL     1       0.665   9.776  21.327  0.00  0.00    +0.000 A 
ATOM     18  C   UNL     1       0.726   9.153  22.689  0.00  0.00    +0.000 C 
ATOM     19  H   UNL     1       2.563   7.128  21.440  0.00  0.00    +0.000 HD
BRANCH   8  20
ATOM     20  C   UNL     1      -0.549  11.913  22.084  0.00  0.00    +0.000 C 
ATOM     21  O   UNL     1       0.055  12.662  22.844  0.00  0.00    +0.000 OA
BRANCH  20  23
ATOM     22  C   UNL     1      -2.536  11.942  23.340  0.00  0.00    +0.000 C 
ATOM     23  O   UNL     1      -1.911  11.804  22.064  0.00  0.00    +0.000 OA
ENDBRANCH  20  23
ENDBRANCH   8  20
ENDBRANCH   1  15
BRANCH   7  24
ATOM     24  O   UNL     1       4.389   5.708  19.520  0.00  0.00    +0.000 OA
BRANCH  24  25
ATOM     25  C   UNL     1       4.742   5.947  18.136  0.00  0.00    +0.000 C 
ATOM     26  C   UNL     1       5.232   7.380  17.882  0.00  0.00    +0.000 C 
BRANCH  25  27
ATOM     27  C   UNL     1       5.838   5.002  17.594  0.00  0.00    +0.000 C 
ATOM     28  O   UNL     1       6.544   4.319  18.334  0.00  0.00    +0.000 OA
ATOM     29  N   UNL     1       6.041   5.063  16.237  0.00  0.00    +0.000 N 
ATOM     30  H   UNL     1       5.406   5.625  15.682  0.00  0.00    +0.000 HD
BRANCH  29  31
ATOM     31  C   UNL     1       7.089   4.301  15.585  0.00  0.00    +0.000 C 
BRANCH  31  32
ATOM     32  C   UNL     1       7.316   4.742  14.140  0.00  0.00    +0.000 C 
BRANCH  32  33
ATOM     33  C   UNL     1       6.516   3.908  13.139  0.00  0.00    +0.000 C 
BRANCH  33  34
ATOM     34  N   UNL     1       5.104   3.894  13.512  0.00  0.00    +0.000 NA
ATOM     35  H   UNL     1       4.972   3.292  14.325  0.00  0.00    +0.000 HD
ATOM     36  H   UNL     1       4.564   3.470  12.759  0.00  0.00    +0.000 HD
ENDBRANCH  33  34
ENDBRANCH  32  33
ENDBRANCH  31  32
ENDBRANCH  29  31
ENDBRANCH  25  27
ENDBRANCH  24  25
ENDBRANCH   7  24
TORSDOF 10
ENDMDL
MODEL 5
REMARK VINA RESULT:      -7.2      1.820      2.533
REMARK  Name = 
REMARK  13 active torsions:
REMARK  status: ('A' for Active; 'I' for Inactive)
REMARK    1  A    between atoms: C_1  and  O_2
REMARK    2  A    between atoms: O_2  and  C_3
REMARK    3  A    between atoms: C_3  and  C_5
REMARK    4  A    between atoms: N_12  and  C_13
REMARK    5  A    between atoms: C_19  and  O_20
REMARK    6  A    between atoms: O_20  and  C_21
REMARK    7  A    between atoms: C_21  and  C_22
REMARK    8  A    between atoms: C_21  and  C_23
REMARK    9  A    between atoms: N_25  and  C_26
REMARK   10  A    between atoms: C_26  and  C_27
REMARK   11  A    between atoms: C_27  and  C_28
REMARK   12  A    between atoms: C_28  and  N_29
REMARK   13  A    between atoms: C_31  and  C_32
REMARK                            x       y       z     vdW  Elec       q    Type
REMARK                         _______ _______ _______ _____ _____    ______ ____
ROOT
ATOM      1  C   UNL     1       2.144   5.158  20.238  0.00  0.00    +0.000 A 
ATOM      2  C   UNL     1       0.930   4.435  20.152  0.00  0.00    +0.000 A 
ATOM      3  C   UNL     1       0.890   3.096  19.774  0.00  0.00    +0.000 A 
ATOM      4  C   UNL     1       2.073   2.452  19.482  0.00  0.00    +0.000 A 
ATOM      5  F   UNL     1       2.053   1.175  19.083  0.00  0.00    +0.000 F 
ATOM      6  C   UNL     1       3.289   3.112  19.604  0.00  0.00    +0.000 A 
ATOM      7  C   UNL     1       3.357   4.455  20.018  0.00  0.00    +0.000 A 
ENDROOT
BRANCH   1  15
ATOM      8  C   UNL     1       0.431  10.836  20.904  0.00  0.00    +0.000 A 
ATOM      9  S   UNL     1       0.690  11.283  19.277  0.00  0.00    +0.000 S 
ATOM     10  C   UNL     1       1.381   9.787  18.895  0.00  0.00    +0.000 A 
ATOM     11  N   UNL     1       1.775   9.573  17.632  0.00  0.00    +0.000 NA
ATOM     12  C   UNL     1       2.267   8.357  17.452  0.00  0.00    +0.000 A 
ATOM     13  N   UNL     1       2.382   7.396  18.375  0.00  0.00    +0.000 NA
ATOM     14  C   UNL     1       1.983   7.616  19.661  0.00  0.00    +0.000 A 
ATOM     15  N   UNL     1       2.081   6.540  20.586  0.00  0.00    +0.000 N 
ATOM     16  C   UNL     1       1.459   8.907  19.968  0.00  0.00    +0.000 A 
ATOM     17  C   UNL     1       0.908   9.546  21.164  0.00  0.00    +0.000 A 
ATOM     18  C   UNL     1       0.818   8.918  22.521  0.00  0.00    +0.000 C 
ATOM     19  H   UNL     1       2.613   6.778  21.411  0.00  0.00    +0.000 HD
BRANCH   8  20
ATOM     20  C   UNL     1      -0.221  11.757  21.834  0.00  0.00    +0.000 C 
ATOM     21  O   UNL     1      -1.299  11.551  22.381  0.00  0.00    +0.000 OA
BRANCH  20  23
ATOM     22  C   UNL     1      -0.217  14.108  21.829  0.00  0.00    +0.000 C 
ATOM     23  O   UNL     1       0.511  12.895  22.023  0.00  0.00    +0.000 OA
ENDBRANCH  20  23
ENDBRANCH   8  20
ENDBRANCH   1  15
BRANCH   7  24
ATOM     24  O   UNL     1       4.568   5.106  20.192  0.00  0.00    +0.000 OA
BRANCH  24  25
ATOM     25  C   UNL     1       5.146   5.689  18.999  0.00  0.00    +0.000 C 
ATOM     26  C   UNL     1       6.681   5.739  19.040  0.00  0.00    +0.000 C 
BRANCH  25  27
ATOM     27  C   UNL     1       4.761   4.961  17.692  0.00  0.00    +0.000 C 
ATOM     28  O   UNL     1       3.641   5.054  17.192  0.00  0.00    +0.000 OA
ATOM     29  N   UNL     1       5.722   4.117  17.190  0.00  0.00    +0.000 N 
ATOM     30  H   UNL     1       6.632   4.109  17.635  0.00  0.00    +0.000 HD
BRANCH  29  31
ATOM     31  C   UNL     1       5.484   3.298  16.017  0.00  0.00    +0.000 C 
BRANCH  31  32
ATOM     32  C   UNL     1       5.790   4.040  14.718  0.00  0.00    +0.000 C 
BRANCH  32  33
ATOM     33  C   UNL     1       7.213   4.598  14.682  0.00  0.00    +0.000 C 
BRANCH  33  34
ATOM     34  N   UNL     1       7.287   5.835  15.454  0.00  0.00    +0.000 NA
ATOM     35  H   UNL     1       6.357   6.081  15.795  0.00  0.00    +0.000 HD
ATOM     36  H   UNL     1       7.569   6.597  14.838  0.00  0.00    +0.000 HD
ENDBRANCH  33  34
ENDBRANCH  32  33
ENDBRANCH  31  32
ENDBRANCH  29  31
ENDBRANCH  25  27
ENDBRANCH  24  25
ENDBRANCH   7  24
TORSDOF 10
ENDMDL
MODEL 6
REMARK VINA RESULT:      -7.2      2.107      2.661
REMARK  Name = 
REMARK  13 active torsions:
REMARK  status: ('A' for Active; 'I' for Inactive)
REMARK    1  A    between atoms: C_1  and  O_2
REMARK    2  A    between atoms: O_2  and  C_3
REMARK    3  A    between atoms: C_3  and  C_5
REMARK    4  A    between atoms: N_12  and  C_13
REMARK    5  A    between atoms: C_19  and  O_20
REMARK    6  A    between atoms: O_20  and  C_21
REMARK    7  A    between atoms: C_21  and  C_22
REMARK    8  A    between atoms: C_21  and  C_23
REMARK    9  A    between atoms: N_25  and  C_26
REMARK   10  A    between atoms: C_26  and  C_27
REMARK   11  A    between atoms: C_27  and  C_28
REMARK   12  A    between atoms: C_28  and  N_29
REMARK   13  A    between atoms: C_31  and  C_32
REMARK                            x       y       z     vdW  Elec       q    Type
REMARK                         _______ _______ _______ _____ _____    ______ ____
ROOT
ATOM      1  C   UNL     1       1.994   5.441  20.375  0.00  0.00    +0.000 A 
ATOM      2  C   UNL     1       0.825   4.651  20.482  0.00  0.00    +0.000 A 
ATOM      3  C   UNL     1       0.808   3.302  20.139  0.00  0.00    +0.000 A 
ATOM      4  C   UNL     1       1.971   2.717  19.687  0.00  0.00    +0.000 A 
ATOM      5  F   UNL     1       1.967   1.431  19.319  0.00  0.00    +0.000 F 
ATOM      6  C   UNL     1       3.151   3.445  19.617  0.00  0.00    +0.000 A 
ATOM      7  C   UNL     1       3.201   4.800  19.991  0.00  0.00    +0.000 A 
ENDROOT
BRANCH   1  15
ATOM      8  C   UNL     1       0.211  11.114  20.877  0.00  0.00    +0.000 A 
ATOM      9  S   UNL     1       0.562  11.546  19.263  0.00  0.00    +0.000 S 
ATOM     10  C   UNL     1       1.283  10.051  18.939  0.00  0.00    +0.000 A 
ATOM     11  N   UNL     1       1.750   9.826  17.703  0.00  0.00    +0.000 NA
ATOM     12  C   UNL     1       2.259   8.611  17.565  0.00  0.00    +0.000 A 
ATOM     13  N   UNL     1       2.327   7.660  18.504  0.00  0.00    +0.000 NA
ATOM     14  C   UNL     1       1.852   7.892  19.762  0.00  0.00    +0.000 A 
ATOM     15  N   UNL     1       1.903   6.827  20.703  0.00  0.00    +0.000 N 
ATOM     16  C   UNL     1       1.304   9.182  20.024  0.00  0.00    +0.000 A 
ATOM     17  C   UNL     1       0.680   9.830  21.179  0.00  0.00    +0.000 A 
ATOM     18  C   UNL     1       0.514   9.217  22.536  0.00  0.00    +0.000 C 
ATOM     19  H   UNL     1       2.384   7.077  21.555  0.00  0.00    +0.000 HD
BRANCH   8  20
ATOM     20  C   UNL     1      -0.500  12.041  21.757  0.00  0.00    +0.000 C 
ATOM     21  O   UNL     1       0.023  12.971  22.362  0.00  0.00    +0.000 OA
BRANCH  20  23
ATOM     22  C   UNL     1      -2.386  11.870  23.151  0.00  0.00    +0.000 C 
ATOM     23  O   UNL     1      -1.832  11.747  21.841  0.00  0.00    +0.000 OA
ENDBRANCH  20  23
ENDBRANCH   8  20
ENDBRANCH   1  15
BRANCH   7  24
ATOM     24  O   UNL     1       4.385   5.521  19.973  0.00  0.00    +0.000 OA
BRANCH  24  25
ATOM     25  C   UNL     1       5.417   5.014  19.093  0.00  0.00    +0.000 C 
ATOM     26  C   UNL     1       5.328   3.496  18.878  0.00  0.00    +0.000 C 
BRANCH  25  27
ATOM     27  C   UNL     1       5.421   5.661  17.689  0.00  0.00    +0.000 C 
ATOM     28  O   UNL     1       5.478   6.878  17.526  0.00  0.00    +0.000 OA
ATOM     29  N   UNL     1       5.245   4.787  16.645  0.00  0.00    +0.000 N 
ATOM     30  H   UNL     1       5.234   3.794  16.847  0.00  0.00    +0.000 HD
BRANCH  29  31
ATOM     31  C   UNL     1       5.142   5.245  15.272  0.00  0.00    +0.000 C 
BRANCH  31  32
ATOM     32  C   UNL     1       5.644   4.205  14.273  0.00  0.00    +0.000 C 
BRANCH  32  33
ATOM     33  C   UNL     1       7.007   4.567  13.683  0.00  0.00    +0.000 C 
BRANCH  33  34
ATOM     34  N   UNL     1       7.728   5.455  14.592  0.00  0.00    +0.000 NA
ATOM     35  H   UNL     1       7.160   6.280  14.785  0.00  0.00    +0.000 HD
ATOM     36  H   UNL     1       8.568   5.797  14.127  0.00  0.00    +0.000 HD
ENDBRANCH  33  34
ENDBRANCH  32  33
ENDBRANCH  31  32
ENDBRANCH  29  31
ENDBRANCH  25  27
ENDBRANCH  24  25
ENDBRANCH   7  24
TORSDOF 10
ENDMDL
MODEL 7
REMARK VINA RESULT:      -7.0      3.935      8.678
REMARK  Name = 
REMARK  13 active torsions:
REMARK  status: ('A' for Active; 'I' for Inactive)
REMARK    1  A    between atoms: C_1  and  O_2
REMARK    2  A    between atoms: O_2  and  C_3
REMARK    3  A    between atoms: C_3  and  C_5
REMARK    4  A    between atoms: N_12  and  C_13
REMARK    5  A    between atoms: C_19  and  O_20
REMARK    6  A    between atoms: O_20  and  C_21
REMARK    7  A    between atoms: C_21  and  C_22
REMARK    8  A    between atoms: C_21  and  C_23
REMARK    9  A    between atoms: N_25  and  C_26
REMARK   10  A    between atoms: C_26  and  C_27
REMARK   11  A    between atoms: C_27  and  C_28
REMARK   12  A    between atoms: C_28  and  N_29
REMARK   13  A    between atoms: C_31  and  C_32
REMARK                            x       y       z     vdW  Elec       q    Type
REMARK                         _______ _______ _______ _____ _____    ______ ____
ROOT
ATOM      1  C   UNL     1       0.039   9.131  21.207  0.00  0.00    +0.000 A 
ATOM      2  C   UNL     1       0.189   9.099  22.614  0.00  0.00    +0.000 A 
ATOM      3  C   UNL     1      -0.258  10.134  23.431  0.00  0.00    +0.000 A 
ATOM      4  C   UNL     1      -0.874  11.221  22.849  0.00  0.00    +0.000 A 
ATOM      5  F   UNL     1      -1.280  12.241  23.614  0.00  0.00    +0.000 F 
ATOM      6  C   UNL     1      -1.086  11.266  21.478  0.00  0.00    +0.000 A 
ATOM      7  C   UNL     1      -0.675  10.217  20.635  0.00  0.00    +0.000 A 
ENDROOT
BRANCH   1  15
ATOM      8  C   UNL     1       3.703   5.205  18.604  0.00  0.00    +0.000 A 
ATOM      9  S   UNL     1       4.314   6.291  17.437  0.00  0.00    +0.000 S 
ATOM     10  C   UNL     1       3.234   7.509  17.893  0.00  0.00    +0.000 A 
ATOM     11  N   UNL     1       3.302   8.689  17.259  0.00  0.00    +0.000 NA
ATOM     12  C   UNL     1       2.430   9.569  17.728  0.00  0.00    +0.000 A 
ATOM     13  N   UNL     1       1.555   9.378  18.721  0.00  0.00    +0.000 NA
ATOM     14  C   UNL     1       1.486   8.176  19.364  0.00  0.00    +0.000 A 
ATOM     15  N   UNL     1       0.574   8.048  20.447  0.00  0.00    +0.000 N 
ATOM     16  C   UNL     1       2.368   7.147  18.919  0.00  0.00    +0.000 A 
ATOM     17  C   UNL     1       2.642   5.768  19.324  0.00  0.00    +0.000 A 
ATOM     18  C   UNL     1       1.917   5.017  20.398  0.00  0.00    +0.000 C 
ATOM     19  H   UNL     1      -0.066   7.274  20.333  0.00  0.00    +0.000 HD
BRANCH   8  20
ATOM     20  C   UNL     1       4.286   3.873  18.759  0.00  0.00    +0.000 C 
ATOM     21  O   UNL     1       5.046   3.543  19.663  0.00  0.00    +0.000 OA
BRANCH  20  23
ATOM     22  C   UNL     1       2.750   2.228  18.079  0.00  0.00    +0.000 C 
ATOM     23  O   UNL     1       3.893   3.024  17.763  0.00  0.00    +0.000 OA
ENDBRANCH  20  23
ENDBRANCH   8  20
ENDBRANCH   1  15
BRANCH   7  24
ATOM     24  O   UNL     1      -0.928  10.231  19.273  0.00  0.00    +0.000 OA
BRANCH  24  25
ATOM     25  C   UNL     1      -1.519  11.447  18.755  0.00  0.00    +0.000 C 
ATOM     26  C   UNL     1      -0.498  12.363  18.065  0.00  0.00    +0.000 C 
BRANCH  25  27
ATOM     27  C   UNL     1      -2.659  11.209  17.739  0.00  0.00    +0.000 C 
ATOM     28  O   UNL     1      -3.769  10.802  18.078  0.00  0.00    +0.000 OA
ATOM     29  N   UNL     1      -2.310  11.379  16.421  0.00  0.00    +0.000 N 
ATOM     30  H   UNL     1      -1.388  11.743  16.213  0.00  0.00    +0.000 HD
BRANCH  29  31
ATOM     31  C   UNL     1      -3.242  11.114  15.342  0.00  0.00    +0.000 C 
BRANCH  31  32
ATOM     32  C   UNL     1      -3.014   9.747  14.700  0.00  0.00    +0.000 C 
BRANCH  32  33
ATOM     33  C   UNL     1      -3.374   9.728  13.215  0.00  0.00    +0.000 C 
BRANCH  33  34
ATOM     34  N   UNL     1      -2.171   9.537  12.409  0.00  0.00    +0.000 NA
ATOM     35  H   UNL     1      -1.398  10.061  12.820  0.00  0.00    +0.000 HD
ATOM     36  H   UNL     1      -2.321   9.940  11.485  0.00  0.00    +0.000 HD
ENDBRANCH  33  34
ENDBRANCH  32  33
ENDBRANCH  31  32
ENDBRANCH  29  31
ENDBRANCH  25  27
ENDBRANCH  24  25
ENDBRANCH   7  24
TORSDOF 10
ENDMDL
MODEL 8
REMARK VINA RESULT:      -6.9      5.327      8.201
REMARK  Name = 
REMARK  13 active torsions:
REMARK  status: ('A' for Active; 'I' for Inactive)
REMARK    1  A    between atoms: C_1  and  O_2
REMARK    2  A    between atoms: O_2  and  C_3
REMARK    3  A    between atoms: C_3  and  C_5
REMARK    4  A    between atoms: N_12  and  C_13
REMARK    5  A    between atoms: C_19  and  O_20
REMARK    6  A    between atoms: O_20  and  C_21
REMARK    7  A    between atoms: C_21  and  C_22
REMARK    8  A    between atoms: C_21  and  C_23
REMARK    9  A    between atoms: N_25  and  C_26
REMARK   10  A    between atoms: C_26  and  C_27
REMARK   11  A    between atoms: C_27  and  C_28
REMARK   12  A    between atoms: C_28  and  N_29
REMARK   13  A    between atoms: C_31  and  C_32
REMARK                            x       y       z     vdW  Elec       q    Type
REMARK                         _______ _______ _______ _____ _____    ______ ____
ROOT
ATOM      1  C   UNL     1      -3.710  11.634  17.775  0.00  0.00    +0.000 A 
ATOM      2  C   UNL     1      -4.436  11.589  16.561  0.00  0.00    +0.000 A 
ATOM      3  C   UNL     1      -4.039  10.794  15.489  0.00  0.00    +0.000 A 
ATOM      4  C   UNL     1      -2.905  10.022  15.619  0.00  0.00    +0.000 A 
ATOM      5  F   UNL     1      -2.488   9.278  14.589  0.00  0.00    +0.000 F 
ATOM      6  C   UNL     1      -2.195   9.999  16.812  0.00  0.00    +0.000 A 
ATOM      7  C   UNL     1      -2.596  10.767  17.921  0.00  0.00    +0.000 A 
ENDROOT
BRANCH   1  15
ATOM      8  C   UNL     1      -5.131  14.077  23.031  0.00  0.00    +0.000 A 
ATOM      9  S   UNL     1      -6.487  13.082  23.320  0.00  0.00    +0.000 S 
ATOM     10  C   UNL     1      -6.385  12.368  21.790  0.00  0.00    +0.000 A 
ATOM     11  N   UNL     1      -7.273  11.415  21.474  0.00  0.00    +0.000 NA
ATOM     12  C   UNL     1      -7.069  10.911  20.266  0.00  0.00    +0.000 A 
ATOM     13  N   UNL     1      -6.104  11.257  19.407  0.00  0.00    +0.000 NA
ATOM     14  C   UNL     1      -5.202  12.228  19.731  0.00  0.00    +0.000 A 
ATOM     15  N   UNL     1      -4.166  12.516  18.800  0.00  0.00    +0.000 N 
ATOM     16  C   UNL     1      -5.348  12.855  21.004  0.00  0.00    +0.000 A 
ATOM     17  C   UNL     1      -4.618  13.885  21.743  0.00  0.00    +0.000 A 
ATOM     18  C   UNL     1      -3.435  14.649  21.232  0.00  0.00    +0.000 C 
ATOM     19  H   UNL     1      -4.128  13.493  18.545  0.00  0.00    +0.000 HD
BRANCH   8  20
ATOM     20  C   UNL     1      -4.639  14.984  24.068  0.00  0.00    +0.000 C 
ATOM     21  O   UNL     1      -3.601  14.824  24.701  0.00  0.00    +0.000 OA
BRANCH  20  23
ATOM     22  C   UNL     1      -4.899  17.143  24.962  0.00  0.00    +0.000 C 
ATOM     23  O   UNL     1      -5.481  16.042  24.264  0.00  0.00    +0.000 OA
ENDBRANCH  20  23
ENDBRANCH   8  20
ENDBRANCH   1  15
BRANCH   7  24
ATOM     24  O   UNL     1      -1.923  10.712  19.131  0.00  0.00    +0.000 OA
BRANCH  24  25
ATOM     25  C   UNL     1      -0.643  11.388  19.170  0.00  0.00    +0.000 C 
ATOM     26  C   UNL     1      -0.514  12.357  20.355  0.00  0.00    +0.000 C 
BRANCH  25  27
ATOM     27  C   UNL     1       0.570  10.434  19.243  0.00  0.00    +0.000 C 
ATOM     28  O   UNL     1       1.049  10.060  20.313  0.00  0.00    +0.000 OA
ATOM     29  N   UNL     1       1.142  10.124  18.034  0.00  0.00    +0.000 N 
ATOM     30  H   UNL     1       0.680  10.442  17.190  0.00  0.00    +0.000 HD
BRANCH  29  31
ATOM     31  C   UNL     1       2.338   9.309  17.939  0.00  0.00    +0.000 C 
BRANCH  31  32
ATOM     32  C   UNL     1       2.018   7.831  17.723  0.00  0.00    +0.000 C 
BRANCH  32  33
ATOM     33  C   UNL     1       2.951   6.907  18.505  0.00  0.00    +0.000 C 
BRANCH  33  34
ATOM     34  N   UNL     1       2.909   5.559  17.945  0.00  0.00    +0.000 NA
ATOM     35  H   UNL     1       2.146   5.493  17.270  0.00  0.00    +0.000 HD
ATOM     36  H   UNL     1       2.684   4.896  18.686  0.00  0.00    +0.000 HD
ENDBRANCH  33  34
ENDBRANCH  32  33
ENDBRANCH  31  32
ENDBRANCH  29  31
ENDBRANCH  25  27
ENDBRANCH  24  25
ENDBRANCH   7  24
TORSDOF 10
ENDMDL
MODEL 9
REMARK VINA RESULT:      -6.8      2.071      2.937
REMARK  Name = 
REMARK  13 active torsions:
REMARK  status: ('A' for Active; 'I' for Inactive)
REMARK    1  A    between atoms: C_1  and  O_2
REMARK    2  A    between atoms: O_2  and  C_3
REMARK    3  A    between atoms: C_3  and  C_5
REMARK    4  A    between atoms: N_12  and  C_13
REMARK    5  A    between atoms: C_19  and  O_20
REMARK    6  A    between atoms: O_20  and  C_21
REMARK    7  A    between atoms: C_21  and  C_22
REMARK    8  A    between atoms: C_21  and  C_23
REMARK    9  A    between atoms: N_25  and  C_26
REMARK   10  A    between atoms: C_26  and  C_27
REMARK   11  A    between atoms: C_27  and  C_28
REMARK   12  A    between atoms: C_28  and  N_29
REMARK   13  A    between atoms: C_31  and  C_32
REMARK                            x       y       z     vdW  Elec       q    Type
REMARK                         _______ _______ _______ _____ _____    ______ ____
ROOT
ATOM      1  C   UNL     1       1.994   5.534  20.333  0.00  0.00    +0.000 A 
ATOM      2  C   UNL     1       0.903   4.643  20.478  0.00  0.00    +0.000 A 
ATOM      3  C   UNL     1       0.948   3.334  20.005  0.00  0.00    +0.000 A 
ATOM      4  C   UNL     1       2.095   2.891  19.383  0.00  0.00    +0.000 A 
ATOM      5  F   UNL     1       2.145   1.648  18.892  0.00  0.00    +0.000 F 
ATOM      6  C   UNL     1       3.204   3.718  19.269  0.00  0.00    +0.000 A 
ATOM      7  C   UNL     1       3.196   5.033  19.769  0.00  0.00    +0.000 A 
ENDROOT
BRANCH   1  15
ATOM      8  C   UNL     1      -0.098  11.000  21.499  0.00  0.00    +0.000 A 
ATOM      9  S   UNL     1       0.134  11.610  19.922  0.00  0.00    +0.000 S 
ATOM     10  C   UNL     1       0.924  10.205  19.411  0.00  0.00    +0.000 A 
ATOM     11  N   UNL     1       1.334  10.134  18.137  0.00  0.00    +0.000 NA
ATOM     12  C   UNL     1       1.907   8.975  17.851  0.00  0.00    +0.000 A 
ATOM     13  N   UNL     1       2.085   7.943  18.684  0.00  0.00    +0.000 NA
ATOM     14  C   UNL     1       1.669   8.018  19.981  0.00  0.00    +0.000 A 
ATOM     15  N   UNL     1       1.837   6.871  20.805  0.00  0.00    +0.000 N 
ATOM     16  C   UNL     1       1.059   9.238  20.400  0.00  0.00    +0.000 A 
ATOM     17  C   UNL     1       0.464   9.726  21.645  0.00  0.00    +0.000 A 
ATOM     18  C   UNL     1       0.413   8.973  22.939  0.00  0.00    +0.000 C 
ATOM     19  H   UNL     1       2.350   7.068  21.653  0.00  0.00    +0.000 HD
BRANCH   8  20
ATOM     20  C   UNL     1      -0.813  11.787  22.504  0.00  0.00    +0.000 C 
ATOM     21  O   UNL     1      -1.912  11.499  22.964  0.00  0.00    +0.000 OA
BRANCH  20  23
ATOM     22  C   UNL     1      -0.902  14.083  23.002  0.00  0.00    +0.000 C 
ATOM     23  O   UNL     1      -0.112  12.900  22.874  0.00  0.00    +0.000 OA
ENDBRANCH  20  23
ENDBRANCH   8  20
ENDBRANCH   1  15
BRANCH   7  24
ATOM     24  O   UNL     1       4.315   5.848  19.704  0.00  0.00    +0.000 OA
BRANCH  24  25
ATOM     25  C   UNL     1       5.485   5.262  19.084  0.00  0.00    +0.000 C 
ATOM     26  C   UNL     1       5.486   3.727  19.137  0.00  0.00    +0.000 C 
BRANCH  25  27
ATOM     27  C   UNL     1       5.675   5.654  17.602  0.00  0.00    +0.000 C 
ATOM     28  O   UNL     1       4.984   6.512  17.054  0.00  0.00    +0.000 OA
ATOM     29  N   UNL     1       6.592   4.900  16.912  0.00  0.00    +0.000 N 
ATOM     30  H   UNL     1       7.147   4.229  17.430  0.00  0.00    +0.000 HD
BRANCH  29  31
ATOM     31  C   UNL     1       6.826   5.088  15.493  0.00  0.00    +0.000 C 
BRANCH  31  32
ATOM     32  C   UNL     1       5.987   4.141  14.636  0.00  0.00    +0.000 C 
BRANCH  32  33
ATOM     33  C   UNL     1       6.442   4.111  13.177  0.00  0.00    +0.000 C 
BRANCH  33  34
ATOM     34  N   UNL     1       6.253   2.773  12.621  0.00  0.00    +0.000 NA
ATOM     35  H   UNL     1       6.476   2.783  11.625  0.00  0.00    +0.000 HD
ATOM     36  H   UNL     1       5.267   2.522  12.684  0.00  0.00    +0.000 HD
ENDBRANCH  33  34
ENDBRANCH  32  33
ENDBRANCH  31  32
ENDBRANCH  29  31
ENDBRANCH  25  27
ENDBRANCH  24  25
ENDBRANCH   7  24
TORSDOF 10
ENDMDL
