MODEL 1
REMARK VINA RESULT:      -7.3      0.000      0.000
REMARK  Name = 
REMARK  3 active torsions:
REMARK  status: ('A' for Active; 'I' for Inactive)
REMARK    1  A    between atoms: N_3  and  C_4
REMARK    2  A    between atoms: N_8  and  C_9
REMARK    3  A    between atoms: C_9  and  C_10
REMARK                            x       y       z     vdW  Elec       q    Type
REMARK                         _______ _______ _______ _____ _____    ______ ____
ROOT
ATOM      1  C   UNL     1       2.984   3.758  18.914  0.00  0.00    +0.000 C 
ATOM      2  C   UNL     1       2.441   5.173  19.156  0.00  0.00    +0.000 C 
ATOM      3  C   UNL     1       2.840   6.044  17.972  0.00  0.00    +0.000 C 
ATOM      4  C   UNL     1       4.355   6.027  17.757  0.00  0.00    +0.000 C 
ATOM      5  N   UNL     1       4.875   4.658  17.601  0.00  0.00    +0.000 NA
ATOM      6  C   UNL     1       4.521   3.817  18.771  0.00  0.00    +0.000 C 
ENDROOT
BRANCH   1   9
ATOM      7  C   UNL     1       1.365   2.936  21.676  0.00  0.00    +0.000 A 
ATOM      8  C   UNL     1       1.155   2.798  20.325  0.00  0.00    +0.000 A 
ATOM      9  N   UNL     1       2.441   2.762  19.827  0.00  0.00    +0.000 N 
ATOM     10  N   UNL     1       3.272   2.362  20.819  0.00  0.00    +0.000 NA
ATOM     11  N   UNL     1       2.662   2.633  21.964  0.00  0.00    +0.000 NA
ENDBRANCH   1   9
BRANCH   5  12
ATOM     12  C   UNL     1       6.337   4.656  17.379  0.00  0.00    +0.000 C 
BRANCH  12  13
ATOM     13  C   UNL     1       6.666   4.700  15.925  0.00  0.00    +0.000 A 
ATOM     14  C   UNL     1       6.196   3.943  14.867  0.00  0.00    +0.000 A 
ATOM     15  N   UNL     1       6.836   4.455  13.776  0.00  0.00    +0.000 N 
ATOM     16  N   UNL     1       7.675   5.443  14.122  0.00  0.00    +0.000 NA
ATOM     17  N   UNL     1       7.585   5.610  15.432  0.00  0.00    +0.000 NA
ATOM     18  H   UNL     1       6.769   4.191  12.802  0.00  0.00    +0.000 HD
ENDBRANCH  12  13
ENDBRANCH   5  12
TORSDOF 3
ENDMDL
MODEL 2
REMARK VINA RESULT:      -7.1      0.965      1.227
REMARK  Name = 
REMARK  3 active torsions:
REMARK  status: ('A' for Active; 'I' for Inactive)
REMARK    1  A    between atoms: N_3  and  C_4
REMARK    2  A    between atoms: N_8  and  C_9
REMARK    3  A    between atoms: C_9  and  C_10
REMARK                            x       y       z     vdW  Elec       q    Type
REMARK                         _______ _______ _______ _____ _____    ______ ____
ROOT
ATOM      1  C   UNL     1       2.422   4.901  18.459  0.00  0.00    +0.000 C 
ATOM      2  C   UNL     1       2.513   6.380  18.853  0.00  0.00    +0.000 C 
ATOM      3  C   UNL     1       3.350   7.101  17.805  0.00  0.00    +0.000 C 
ATOM      4  C   UNL     1       4.726   6.452  17.652  0.00  0.00    +0.000 C 
ATOM      5  N   UNL     1       4.627   5.013  17.348  0.00  0.00    +0.000 NA
ATOM      6  C   UNL     1       3.845   4.302  18.388  0.00  0.00    +0.000 C 
ENDROOT
BRANCH   1   9
ATOM      7  C   UNL     1       1.543   3.060  21.060  0.00  0.00    +0.000 A 
ATOM      8  C   UNL     1       1.227   4.306  20.576  0.00  0.00    +0.000 A 
ATOM      9  N   UNL     1       1.427   4.155  19.219  0.00  0.00    +0.000 N 
ATOM     10  N   UNL     1       1.323   2.840  18.915  0.00  0.00    +0.000 NA
ATOM     11  N   UNL     1       1.566   2.167  20.031  0.00  0.00    +0.000 NA
ENDBRANCH   1   9
BRANCH   5  12
ATOM     12  C   UNL     1       5.963   4.400  17.188  0.00  0.00    +0.000 C 
BRANCH  12  13
ATOM     13  C   UNL     1       6.487   4.592  15.805  0.00  0.00    +0.000 A 
ATOM     14  C   UNL     1       6.140   3.982  14.612  0.00  0.00    +0.000 A 
ATOM     15  N   UNL     1       6.938   4.583  13.682  0.00  0.00    +0.000 N 
ATOM     16  N   UNL     1       7.754   5.485  14.249  0.00  0.00    +0.000 NA
ATOM     17  N   UNL     1       7.493   5.508  15.547  0.00  0.00    +0.000 NA
ATOM     18  H   UNL     1       6.996   4.433  12.684  0.00  0.00    +0.000 HD
ENDBRANCH  12  13
ENDBRANCH   5  12
TORSDOF 3
ENDMDL
MODEL 3
REMARK VINA RESULT:      -6.7      1.295      1.445
REMARK  Name = 
REMARK  3 active torsions:
REMARK  status: ('A' for Active; 'I' for Inactive)
REMARK    1  A    between atoms: N_3  and  C_4
REMARK    2  A    between atoms: N_8  and  C_9
REMARK    3  A    between atoms: C_9  and  C_10
REMARK                            x       y       z     vdW  Elec       q    Type
REMARK                         _______ _______ _______ _____ _____    ______ ____
ROOT
ATOM      1  C   UNL     1       3.467   4.451  18.364  0.00  0.00    +0.000 C 
ATOM      2  C   UNL     1       3.267   5.898  18.835  0.00  0.00    +0.000 C 
ATOM      3  C   UNL     1       3.748   6.828  17.729  0.00  0.00    +0.000 C 
ATOM      4  C   UNL     1       5.199   6.532  17.348  0.00  0.00    +0.000 C 
ATOM      5  N   UNL     1       5.394   5.122  16.970  0.00  0.00    +0.000 NA
ATOM      6  C   UNL     1       4.963   4.214  18.061  0.00  0.00    +0.000 C 
ENDROOT
BRANCH   1   9
ATOM      7  C   UNL     1       0.844   2.582  19.109  0.00  0.00    +0.000 A 
ATOM      8  C   UNL     1       2.140   2.359  18.711  0.00  0.00    +0.000 A 
ATOM      9  N   UNL     1       2.797   3.467  19.204  0.00  0.00    +0.000 N 
ATOM     10  N   UNL     1       2.073   3.970  20.232  0.00  0.00    +0.000 NA
ATOM     11  N   UNL     1       0.827   3.552  20.066  0.00  0.00    +0.000 NA
ENDBRANCH   1   9
BRANCH   5  12
ATOM     12  C   UNL     1       6.797   4.852  16.589  0.00  0.00    +0.000 C 
BRANCH  12  13
ATOM     13  C   UNL     1       6.947   4.742  15.109  0.00  0.00    +0.000 A 
ATOM     14  C   UNL     1       6.299   3.934  14.191  0.00  0.00    +0.000 A 
ATOM     15  N   UNL     1       6.833   4.296  12.988  0.00  0.00    +0.000 N 
ATOM     16  N   UNL     1       7.775   5.240  13.137  0.00  0.00    +0.000 NA
ATOM     17  N   UNL     1       7.859   5.528  14.427  0.00  0.00    +0.000 NA
ATOM     18  H   UNL     1       6.630   3.953  12.060  0.00  0.00    +0.000 HD
ENDBRANCH  12  13
ENDBRANCH   5  12
TORSDOF 3
ENDMDL
MODEL 4
REMARK VINA RESULT:      -6.7      1.541      6.256
REMARK  Name = 
REMARK  3 active torsions:
REMARK  status: ('A' for Active; 'I' for Inactive)
REMARK    1  A    between atoms: N_3  and  C_4
REMARK    2  A    between atoms: N_8  and  C_9
REMARK    3  A    between atoms: C_9  and  C_10
REMARK                            x       y       z     vdW  Elec       q    Type
REMARK                         _______ _______ _______ _____ _____    ______ ____
ROOT
ATOM      1  C   UNL     1       4.980   5.979  17.489  0.00  0.00    +0.000 C 
ATOM      2  C   UNL     1       4.107   7.189  17.137  0.00  0.00    +0.000 C 
ATOM      3  C   UNL     1       3.003   7.299  18.181  0.00  0.00    +0.000 C 
ATOM      4  C   UNL     1       2.196   6.003  18.273  0.00  0.00    +0.000 C 
ATOM      5  N   UNL     1       3.055   4.835  18.537  0.00  0.00    +0.000 NA
ATOM      6  C   UNL     1       4.108   4.704  17.500  0.00  0.00    +0.000 C 
ENDROOT
BRANCH   1   9
ATOM      7  C   UNL     1       7.163   4.350  15.615  0.00  0.00    +0.000 A 
ATOM      8  C   UNL     1       6.327   5.428  15.453  0.00  0.00    +0.000 A 
ATOM      9  N   UNL     1       6.228   5.922  16.739  0.00  0.00    +0.000 N 
ATOM     10  N   UNL     1       7.314   5.515  17.437  0.00  0.00    +0.000 NA
ATOM     11  N   UNL     1       7.784   4.438  16.825  0.00  0.00    +0.000 NA
ENDBRANCH   1   9
BRANCH   5  12
ATOM     12  C   UNL     1       2.263   3.592  18.639  0.00  0.00    +0.000 C 
BRANCH  12  13
ATOM     13  C   UNL     1       2.146   3.136  20.054  0.00  0.00    +0.000 A 
ATOM     14  C   UNL     1       1.049   3.072  20.897  0.00  0.00    +0.000 A 
ATOM     15  N   UNL     1       1.546   2.548  22.055  0.00  0.00    +0.000 N 
ATOM     16  N   UNL     1       2.866   2.327  21.964  0.00  0.00    +0.000 NA
ATOM     17  N   UNL     1       3.252   2.678  20.747  0.00  0.00    +0.000 NA
ATOM     18  H   UNL     1       1.073   2.331  22.922  0.00  0.00    +0.000 HD
ENDBRANCH  12  13
ENDBRANCH   5  12
TORSDOF 3
ENDMDL
MODEL 5
REMARK VINA RESULT:      -6.7      1.177      1.383
REMARK  Name = 
REMARK  3 active torsions:
REMARK  status: ('A' for Active; 'I' for Inactive)
REMARK    1  A    between atoms: N_3  and  C_4
REMARK    2  A    between atoms: N_8  and  C_9
REMARK    3  A    between atoms: C_9  and  C_10
REMARK                            x       y       z     vdW  Elec       q    Type
REMARK                         _______ _______ _______ _____ _____    ______ ____
ROOT
ATOM      1  C   UNL     1       3.222   5.097  19.166  0.00  0.00    +0.000 C 
ATOM      2  C   UNL     1       2.831   6.580  19.120  0.00  0.00    +0.000 C 
ATOM      3  C   UNL     1       3.192   7.124  17.744  0.00  0.00    +0.000 C 
ATOM      4  C   UNL     1       4.673   6.900  17.430  0.00  0.00    +0.000 C 
ATOM      5  N   UNL     1       5.054   5.482  17.552  0.00  0.00    +0.000 NA
ATOM      6  C   UNL     1       4.739   4.959  18.903  0.00  0.00    +0.000 C 
ENDROOT
BRANCH   1   9
ATOM      7  C   UNL     1       1.742   2.469  20.517  0.00  0.00    +0.000 A 
ATOM      8  C   UNL     1       2.973   3.071  20.612  0.00  0.00    +0.000 A 
ATOM      9  N   UNL     1       2.683   4.387  20.318  0.00  0.00    +0.000 N 
ATOM     10  N   UNL     1       1.372   4.604  20.578  0.00  0.00    +0.000 NA
ATOM     11  N   UNL     1       0.770   3.424  20.530  0.00  0.00    +0.000 NA
ENDBRANCH   1   9
BRANCH   5  12
ATOM     12  C   UNL     1       6.482   5.276  17.231  0.00  0.00    +0.000 C 
BRANCH  12  13
ATOM     13  C   UNL     1       6.678   4.980  15.782  0.00  0.00    +0.000 A 
ATOM     14  C   UNL     1       6.029   4.089  14.945  0.00  0.00    +0.000 A 
ATOM     15  N   UNL     1       6.618   4.281  13.729  0.00  0.00    +0.000 N 
ATOM     16  N   UNL     1       7.591   5.202  13.798  0.00  0.00    +0.000 NA
ATOM     17  N   UNL     1       7.643   5.643  15.045  0.00  0.00    +0.000 NA
ATOM     18  H   UNL     1       6.431   3.834  12.841  0.00  0.00    +0.000 HD
ENDBRANCH  12  13
ENDBRANCH   5  12
TORSDOF 3
ENDMDL
MODEL 6
REMARK VINA RESULT:      -6.6      2.015      6.098
REMARK  Name = 
REMARK  3 active torsions:
REMARK  status: ('A' for Active; 'I' for Inactive)
REMARK    1  A    between atoms: N_3  and  C_4
REMARK    2  A    between atoms: N_8  and  C_9
REMARK    3  A    between atoms: C_9  and  C_10
REMARK                            x       y       z     vdW  Elec       q    Type
REMARK                         _______ _______ _______ _____ _____    ______ ____
ROOT
ATOM      1  C   UNL     1       6.478   5.070  16.577  0.00  0.00    +0.000 C 
ATOM      2  C   UNL     1       7.270   6.225  17.204  0.00  0.00    +0.000 C 
ATOM      3  C   UNL     1       7.716   5.796  18.595  0.00  0.00    +0.000 C 
ATOM      4  C   UNL     1       6.524   5.371  19.453  0.00  0.00    +0.000 C 
ATOM      5  N   UNL     1       5.728   4.313  18.807  0.00  0.00    +0.000 NA
ATOM      6  C   UNL     1       5.259   4.743  17.467  0.00  0.00    +0.000 C 
ENDROOT
BRANCH   1   9
ATOM      7  C   UNL     1       6.222   3.848  13.516  0.00  0.00    +0.000 A 
ATOM      8  C   UNL     1       5.375   4.439  14.422  0.00  0.00    +0.000 A 
ATOM      9  N   UNL     1       6.232   5.239  15.151  0.00  0.00    +0.000 N 
ATOM     10  N   UNL     1       7.324   5.496  14.394  0.00  0.00    +0.000 NA
ATOM     11  N   UNL     1       7.402   4.530  13.490  0.00  0.00    +0.000 NA
ENDBRANCH   1   9
BRANCH   5  12
ATOM     12  C   UNL     1       4.588   3.900  19.652  0.00  0.00    +0.000 C 
BRANCH  12  13
ATOM     13  C   UNL     1       3.564   3.157  18.862  0.00  0.00    +0.000 A 
ATOM     14  C   UNL     1       3.564   1.863  18.370  0.00  0.00    +0.000 A 
ATOM     15  N   UNL     1       2.353   1.738  17.754  0.00  0.00    +0.000 N 
ATOM     16  N   UNL     1       1.650   2.879  17.823  0.00  0.00    +0.000 NA
ATOM     17  N   UNL     1       2.373   3.759  18.498  0.00  0.00    +0.000 NA
ATOM     18  H   UNL     1       1.950   0.946  17.273  0.00  0.00    +0.000 HD
ENDBRANCH  12  13
ENDBRANCH   5  12
TORSDOF 3
ENDMDL
MODEL 7
REMARK VINA RESULT:      -6.6      1.981      6.592
REMARK  Name = 
REMARK  3 active torsions:
REMARK  status: ('A' for Active; 'I' for Inactive)
REMARK    1  A    between atoms: N_3  and  C_4
REMARK    2  A    between atoms: N_8  and  C_9
REMARK    3  A    between atoms: C_9  and  C_10
REMARK                            x       y       z     vdW  Elec       q    Type
REMARK                         _______ _______ _______ _____ _____    ______ ____
ROOT
ATOM      1  C   UNL     1       5.759   5.850  18.084  0.00  0.00    +0.000 C 
ATOM      2  C   UNL     1       4.762   6.250  16.989  0.00  0.00    +0.000 C 
ATOM      3  C   UNL     1       3.353   6.064  17.538  0.00  0.00    +0.000 C 
ATOM      4  C   UNL     1       3.135   4.633  18.032  0.00  0.00    +0.000 C 
ATOM      5  N   UNL     1       4.145   4.233  19.028  0.00  0.00    +0.000 NA
ATOM      6  C   UNL     1       5.517   4.377  18.483  0.00  0.00    +0.000 C 
ENDROOT
BRANCH   1   9
ATOM      7  C   UNL     1       8.331   7.892  18.454  0.00  0.00    +0.000 A 
ATOM      8  C   UNL     1       8.053   6.582  18.762  0.00  0.00    +0.000 A 
ATOM      9  N   UNL     1       7.132   6.240  17.793  0.00  0.00    +0.000 N 
ATOM     10  N   UNL     1       7.293   7.072  16.737  0.00  0.00    +0.000 NA
ATOM     11  N   UNL     1       7.886   8.165  17.196  0.00  0.00    +0.000 NA
ENDBRANCH   1   9
BRANCH   5  12
ATOM     12  C   UNL     1       3.915   2.855  19.510  0.00  0.00    +0.000 C 
BRANCH  12  13
ATOM     13  C   UNL     1       2.720   2.781  20.399  0.00  0.00    +0.000 A 
ATOM     14  C   UNL     1       1.369   2.878  20.111  0.00  0.00    +0.000 A 
ATOM     15  N   UNL     1       0.754   2.707  21.317  0.00  0.00    +0.000 N 
ATOM     16  N   UNL     1       1.650   2.545  22.303  0.00  0.00    +0.000 NA
ATOM     17  N   UNL     1       2.859   2.585  21.762  0.00  0.00    +0.000 NA
ATOM     18  H   UNL     1      -0.230   2.699  21.547  0.00  0.00    +0.000 HD
ENDBRANCH  12  13
ENDBRANCH   5  12
TORSDOF 3
ENDMDL
MODEL 8
REMARK VINA RESULT:      -6.6      1.805      6.465
REMARK  Name = 
REMARK  3 active torsions:
REMARK  status: ('A' for Active; 'I' for Inactive)
REMARK    1  A    between atoms: N_3  and  C_4
REMARK    2  A    between atoms: N_8  and  C_9
REMARK    3  A    between atoms: C_9  and  C_10
REMARK                            x       y       z     vdW  Elec       q    Type
REMARK                         _______ _______ _______ _____ _____    ______ ____
ROOT
ATOM      1  C   UNL     1       5.375   5.237  17.490  0.00  0.00    +0.000 C 
ATOM      2  C   UNL     1       5.038   3.825  16.995  0.00  0.00    +0.000 C 
ATOM      3  C   UNL     1       3.534   3.748  16.766  0.00  0.00    +0.000 C 
ATOM      4  C   UNL     1       2.761   4.124  18.032  0.00  0.00    +0.000 C 
ATOM      5  N   UNL     1       3.148   5.451  18.541  0.00  0.00    +0.000 NA
ATOM      6  C   UNL     1       4.607   5.517  18.801  0.00  0.00    +0.000 C 
ENDROOT
BRANCH   1   9
ATOM      7  C   UNL     1       7.929   7.217  18.188  0.00  0.00    +0.000 A 
ATOM      8  C   UNL     1       7.499   5.975  18.588  0.00  0.00    +0.000 A 
ATOM      9  N   UNL     1       6.802   5.533  17.482  0.00  0.00    +0.000 N 
ATOM     10  N   UNL     1       7.255   6.201  16.395  0.00  0.00    +0.000 NA
ATOM     11  N   UNL     1       7.801   7.325  16.836  0.00  0.00    +0.000 NA
ENDBRANCH   1   9
BRANCH   5  12
ATOM     12  C   UNL     1       2.384   5.809  19.755  0.00  0.00    +0.000 C 
BRANCH  12  13
ATOM     13  C   UNL     1       1.913   4.595  20.481  0.00  0.00    +0.000 A 
ATOM     14  C   UNL     1       0.816   3.780  20.265  0.00  0.00    +0.000 A 
ATOM     15  N   UNL     1       0.919   2.815  21.224  0.00  0.00    +0.000 N 
ATOM     16  N   UNL     1       1.986   3.022  22.011  0.00  0.00    +0.000 NA
ATOM     17  N   UNL     1       2.609   4.105  21.572  0.00  0.00    +0.000 NA
ATOM     18  H   UNL     1       0.322   2.021  21.411  0.00  0.00    +0.000 HD
ENDBRANCH  12  13
ENDBRANCH   5  12
TORSDOF 3
ENDMDL
MODEL 9
REMARK VINA RESULT:      -6.6      1.903      2.468
REMARK  Name = 
REMARK  3 active torsions:
REMARK  status: ('A' for Active; 'I' for Inactive)
REMARK    1  A    between atoms: N_3  and  C_4
REMARK    2  A    between atoms: N_8  and  C_9
REMARK    3  A    between atoms: C_9  and  C_10
REMARK                            x       y       z     vdW  Elec       q    Type
REMARK                         _______ _______ _______ _____ _____    ______ ____
ROOT
ATOM      1  C   UNL     1       2.680   4.334  18.609  0.00  0.00    +0.000 C 
ATOM      2  C   UNL     1       2.382   5.720  19.196  0.00  0.00    +0.000 C 
ATOM      3  C   UNL     1       2.695   6.764  18.132  0.00  0.00    +0.000 C 
ATOM      4  C   UNL     1       4.137   6.636  17.637  0.00  0.00    +0.000 C 
ATOM      5  N   UNL     1       4.433   5.279  17.146  0.00  0.00    +0.000 NA
ATOM      6  C   UNL     1       4.166   4.263  18.193  0.00  0.00    +0.000 C 
ENDROOT
BRANCH   1   9
ATOM      7  C   UNL     1       1.559   3.120  21.473  0.00  0.00    +0.000 A 
ATOM      8  C   UNL     1       1.044   3.333  20.217  0.00  0.00    +0.000 A 
ATOM      9  N   UNL     1       2.164   3.236  19.417  0.00  0.00    +0.000 N 
ATOM     10  N   UNL     1       3.096   2.504  20.073  0.00  0.00    +0.000 NA
ATOM     11  N   UNL     1       2.806   2.581  21.363  0.00  0.00    +0.000 NA
ENDBRANCH   1   9
BRANCH   5  12
ATOM     12  C   UNL     1       5.824   5.171  16.656  0.00  0.00    +0.000 C 
BRANCH  12  13
ATOM     13  C   UNL     1       6.803   5.591  17.700  0.00  0.00    +0.000 A 
ATOM     14  C   UNL     1       7.465   6.792  17.889  0.00  0.00    +0.000 A 
ATOM     15  N   UNL     1       8.205   6.594  19.018  0.00  0.00    +0.000 N 
ATOM     16  N   UNL     1       8.049   5.348  19.491  0.00  0.00    +0.000 NA
ATOM     17  N   UNL     1       7.194   4.719  18.700  0.00  0.00    +0.000 NA
ATOM     18  H   UNL     1       8.827   7.226  19.505  0.00  0.00    +0.000 HD
ENDBRANCH  12  13
ENDBRANCH   5  12
TORSDOF 3
ENDMDL
