MODEL 1
REMARK VINA RESULT:      -7.3      0.000      0.000
REMARK  Name = 
REMARK  6 active torsions:
REMARK  status: ('A' for Active; 'I' for Inactive)
REMARK    1  A    between atoms: C_3  and  C_4
REMARK    2  A    between atoms: C_7  and  O_8
REMARK    3  A    between atoms: C_11  and  S_12
REMARK    4  A    between atoms: S_12  and  C_13
REMARK    5  A    between atoms: C_16  and  O_17
REMARK    6  A    between atoms: C_23  and  O_24
REMARK                            x       y       z     vdW  Elec       q    Type
REMARK                         _______ _______ _______ _____ _____    ______ ____
ROOT
ATOM      1  O   UNL     1      -0.077  10.183  23.523  0.00  0.00    +0.000 OA
ATOM      2  C   UNL     1      -0.234  10.439  22.334  0.00  0.00    +0.000 A 
ATOM      3  C   UNL     1      -1.095  11.559  21.865  0.00  0.00    +0.000 A 
ATOM      4  C   UNL     1      -1.221  11.753  20.530  0.00  0.00    +0.000 A 
ATOM      5  O   UNL     1      -0.601  10.966  19.568  0.00  0.00    +0.000 OA
ATOM      6  C   UNL     1       0.229   9.952  19.969  0.00  0.00    +0.000 A 
ATOM      7  C   UNL     1       0.871   9.218  18.969  0.00  0.00    +0.000 A 
ATOM      8  C   UNL     1       1.724   8.176  19.328  0.00  0.00    +0.000 A 
ATOM      9  C   UNL     1       1.944   7.858  20.664  0.00  0.00    +0.000 A 
ATOM     10  C   UNL     1       1.306   8.595  21.661  0.00  0.00    +0.000 A 
ATOM     11  C   UNL     1       0.448   9.643  21.307  0.00  0.00    +0.000 A 
ENDROOT
BRANCH   3  12
ATOM     12  C   UNL     1      -1.767  12.409  22.867  0.00  0.00    +0.000 A 
ATOM     13  C   UNL     1      -3.044  12.063  23.331  0.00  0.00    +0.000 A 
ATOM     14  C   UNL     1      -3.735  12.914  24.195  0.00  0.00    +0.000 A 
ATOM     15  C   UNL     1      -3.142  14.105  24.599  0.00  0.00    +0.000 A 
ATOM     16  C   UNL     1      -1.863  14.448  24.174  0.00  0.00    +0.000 A 
ATOM     17  C   UNL     1      -1.172  13.599  23.309  0.00  0.00    +0.000 A 
BRANCH  15  18
ATOM     18  O   UNL     1      -3.794  14.981  25.417  0.00  0.00    +0.000 OA
ATOM     19  H   UNL     1      -3.644  15.882  25.088  0.00  0.00    +0.000 HD
ENDBRANCH  15  18
ENDBRANCH   3  12
BRANCH   8  20
ATOM     20  O   UNL     1       2.373   7.432  18.390  0.00  0.00    +0.000 OA
ATOM     21  H   UNL     1       3.197   7.083  18.773  0.00  0.00    +0.000 HD
ENDBRANCH   8  20
BRANCH   4  22
ATOM     22  S   UNL     1      -2.100  13.128  19.890  0.00  0.00    +0.000 S 
BRANCH  22  23
ATOM     23  C   UNL     1      -3.647  12.405  19.379  0.00  0.00    +0.000 A 
ATOM     24  C   UNL     1      -3.761  11.550  18.276  0.00  0.00    +0.000 A 
ATOM     25  C   UNL     1      -4.975  10.912  17.992  0.00  0.00    +0.000 A 
ATOM     26  C   UNL     1      -6.071  11.126  18.822  0.00  0.00    +0.000 A 
ATOM     27  C   UNL     1      -5.974  11.966  19.923  0.00  0.00    +0.000 A 
ATOM     28  C   UNL     1      -4.762  12.601  20.202  0.00  0.00    +0.000 A 
BRANCH  26  29
ATOM     29  O   UNL     1      -7.268  10.515  18.598  0.00  0.00    +0.000 OA
ATOM     30  H   UNL     1      -7.837  11.113  18.086  0.00  0.00    +0.000 HD
ENDBRANCH  26  29
ENDBRANCH  22  23
ENDBRANCH   4  22
TORSDOF 6
ENDMDL
MODEL 2
REMARK VINA RESULT:      -7.2      4.803     10.464
REMARK  Name = 
REMARK  6 active torsions:
REMARK  status: ('A' for Active; 'I' for Inactive)
REMARK    1  A    between atoms: C_3  and  C_4
REMARK    2  A    between atoms: C_7  and  O_8
REMARK    3  A    between atoms: C_11  and  S_12
REMARK    4  A    between atoms: S_12  and  C_13
REMARK    5  A    between atoms: C_16  and  O_17
REMARK    6  A    between atoms: C_23  and  O_24
REMARK                            x       y       z     vdW  Elec       q    Type
REMARK                         _______ _______ _______ _____ _____    ______ ____
ROOT
ATOM      1  O   UNL     1       1.684   5.569  21.063  0.00  0.00    +0.000 OA
ATOM      2  C   UNL     1       1.938   6.426  20.224  0.00  0.00    +0.000 A 
ATOM      3  C   UNL     1       2.648   6.114  18.953  0.00  0.00    +0.000 A 
ATOM      4  C   UNL     1       2.900   7.131  18.094  0.00  0.00    +0.000 A 
ATOM      5  O   UNL     1       2.542   8.453  18.329  0.00  0.00    +0.000 OA
ATOM      6  C   UNL     1       1.853   8.765  19.470  0.00  0.00    +0.000 A 
ATOM      7  C   UNL     1       1.469  10.096  19.642  0.00  0.00    +0.000 A 
ATOM      8  C   UNL     1       0.767  10.462  20.788  0.00  0.00    +0.000 A 
ATOM      9  C   UNL     1       0.443   9.523  21.762  0.00  0.00    +0.000 A 
ATOM     10  C   UNL     1       0.823   8.192  21.586  0.00  0.00    +0.000 A 
ATOM     11  C   UNL     1       1.529   7.819  20.436  0.00  0.00    +0.000 A 
ENDROOT
BRANCH   3  12
ATOM     12  C   UNL     1       3.042   4.717  18.681  0.00  0.00    +0.000 A 
ATOM     13  C   UNL     1       2.331   3.963  17.736  0.00  0.00    +0.000 A 
ATOM     14  C   UNL     1       2.623   2.611  17.548  0.00  0.00    +0.000 A 
ATOM     15  C   UNL     1       3.632   2.020  18.300  0.00  0.00    +0.000 A 
ATOM     16  C   UNL     1       4.368   2.761  19.218  0.00  0.00    +0.000 A 
ATOM     17  C   UNL     1       4.076   4.112  19.408  0.00  0.00    +0.000 A 
BRANCH  15  18
ATOM     18  O   UNL     1       3.928   0.695  18.171  0.00  0.00    +0.000 OA
ATOM     19  H   UNL     1       3.168   0.246  17.765  0.00  0.00    +0.000 HD
ENDBRANCH  15  18
ENDBRANCH   3  12
BRANCH   8  20
ATOM     20  O   UNL     1       0.370  11.748  21.001  0.00  0.00    +0.000 OA
ATOM     21  H   UNL     1      -0.342  11.970  20.376  0.00  0.00    +0.000 HD
ENDBRANCH   8  20
BRANCH   4  22
ATOM     22  S   UNL     1       3.607   6.836  16.517  0.00  0.00    +0.000 S 
BRANCH  22  23
ATOM     23  C   UNL     1       5.183   6.109  16.920  0.00  0.00    +0.000 A 
ATOM     24  C   UNL     1       5.998   6.583  17.955  0.00  0.00    +0.000 A 
ATOM     25  C   UNL     1       7.168   5.900  18.309  0.00  0.00    +0.000 A 
ATOM     26  C   UNL     1       7.514   4.736  17.629  0.00  0.00    +0.000 A 
ATOM     27  C   UNL     1       6.714   4.249  16.604  0.00  0.00    +0.000 A 
ATOM     28  C   UNL     1       5.549   4.934  16.253  0.00  0.00    +0.000 A 
BRANCH  26  29
ATOM     29  O   UNL     1       8.633   4.026  17.948  0.00  0.00    +0.000 OA
ATOM     30  H   UNL     1       8.526   3.652  18.838  0.00  0.00    +0.000 HD
ENDBRANCH  26  29
ENDBRANCH  22  23
ENDBRANCH   4  22
TORSDOF 6
ENDMDL
MODEL 3
REMARK VINA RESULT:      -6.9      2.306      7.758
REMARK  Name = 
REMARK  6 active torsions:
REMARK  status: ('A' for Active; 'I' for Inactive)
REMARK    1  A    between atoms: C_3  and  C_4
REMARK    2  A    between atoms: C_7  and  O_8
REMARK    3  A    between atoms: C_11  and  S_12
REMARK    4  A    between atoms: S_12  and  C_13
REMARK    5  A    between atoms: C_16  and  O_17
REMARK    6  A    between atoms: C_23  and  O_24
REMARK                            x       y       z     vdW  Elec       q    Type
REMARK                         _______ _______ _______ _____ _____    ______ ____
ROOT
ATOM      1  O   UNL     1      -6.591  10.792  18.953  0.00  0.00    +0.000 OA
ATOM      2  C   UNL     1      -5.777  11.425  19.616  0.00  0.00    +0.000 A 
ATOM      3  C   UNL     1      -4.382  11.664  19.154  0.00  0.00    +0.000 A 
ATOM      4  C   UNL     1      -3.549  12.359  19.966  0.00  0.00    +0.000 A 
ATOM      5  O   UNL     1      -3.914  12.859  21.209  0.00  0.00    +0.000 OA
ATOM      6  C   UNL     1      -5.202  12.690  21.645  0.00  0.00    +0.000 A 
ATOM      7  C   UNL     1      -5.539  13.252  22.878  0.00  0.00    +0.000 A 
ATOM      8  C   UNL     1      -6.837  13.104  23.363  0.00  0.00    +0.000 A 
ATOM      9  C   UNL     1      -7.798  12.408  22.639  0.00  0.00    +0.000 A 
ATOM     10  C   UNL     1      -7.461  11.851  21.405  0.00  0.00    +0.000 A 
ATOM     11  C   UNL     1      -6.159  11.996  20.913  0.00  0.00    +0.000 A 
ENDROOT
BRANCH   3  12
ATOM     12  C   UNL     1      -3.968  11.141  17.837  0.00  0.00    +0.000 A 
ATOM     13  C   UNL     1      -3.040  10.092  17.764  0.00  0.00    +0.000 A 
ATOM     14  C   UNL     1      -2.558   9.661  16.526  0.00  0.00    +0.000 A 
ATOM     15  C   UNL     1      -3.015  10.276  15.365  0.00  0.00    +0.000 A 
ATOM     16  C   UNL     1      -3.959  11.295  15.418  0.00  0.00    +0.000 A 
ATOM     17  C   UNL     1      -4.440  11.728  16.656  0.00  0.00    +0.000 A 
BRANCH  15  18
ATOM     18  O   UNL     1      -2.547   9.908  14.138  0.00  0.00    +0.000 OA
ATOM     19  H   UNL     1      -3.275   9.503  13.638  0.00  0.00    +0.000 HD
ENDBRANCH  15  18
ENDBRANCH   3  12
BRANCH   8  20
ATOM     20  O   UNL     1      -7.214  13.635  24.560  0.00  0.00    +0.000 OA
ATOM     21  H   UNL     1      -6.516  14.231  24.880  0.00  0.00    +0.000 HD
ENDBRANCH   8  20
BRANCH   4  22
ATOM     22  S   UNL     1      -1.936  12.806  19.446  0.00  0.00    +0.000 S 
BRANCH  22  23
ATOM     23  C   UNL     1      -0.903  11.646  20.319  0.00  0.00    +0.000 A 
ATOM     24  C   UNL     1      -1.010  11.418  21.696  0.00  0.00    +0.000 A 
ATOM     25  C   UNL     1      -0.260  10.408  22.311  0.00  0.00    +0.000 A 
ATOM     26  C   UNL     1       0.589   9.620  21.540  0.00  0.00    +0.000 A 
ATOM     27  C   UNL     1       0.703   9.829  20.172  0.00  0.00    +0.000 A 
ATOM     28  C   UNL     1      -0.046  10.838  19.563  0.00  0.00    +0.000 A 
BRANCH  26  29
ATOM     29  O   UNL     1       1.327   8.613  22.088  0.00  0.00    +0.000 OA
ATOM     30  H   UNL     1       1.563   7.980  21.390  0.00  0.00    +0.000 HD
ENDBRANCH  26  29
ENDBRANCH  22  23
ENDBRANCH   4  22
TORSDOF 6
ENDMDL
MODEL 4
REMARK VINA RESULT:      -6.9      0.236      1.335
REMARK  Name = 
REMARK  6 active torsions:
REMARK  status: ('A' for Active; 'I' for Inactive)
REMARK    1  A    between atoms: C_3  and  C_4
REMARK    2  A    between atoms: C_7  and  O_8
REMARK    3  A    between atoms: C_11  and  S_12
REMARK    4  A    between atoms: S_12  and  C_13
REMARK    5  A    between atoms: C_16  and  O_17
REMARK    6  A    between atoms: C_23  and  O_24
REMARK                            x       y       z     vdW  Elec       q    Type
REMARK                         _______ _______ _______ _____ _____    ______ ____
ROOT
ATOM      1  O   UNL     1      -0.091  10.226  23.517  0.00  0.00    +0.000 OA
ATOM      2  C   UNL     1      -0.201  10.430  22.313  0.00  0.00    +0.000 A 
ATOM      3  C   UNL     1      -1.031  11.537  21.763  0.00  0.00    +0.000 A 
ATOM      4  C   UNL     1      -1.106  11.672  20.417  0.00  0.00    +0.000 A 
ATOM      5  O   UNL     1      -0.461  10.836  19.515  0.00  0.00    +0.000 OA
ATOM      6  C   UNL     1       0.342   9.833  19.991  0.00  0.00    +0.000 A 
ATOM      7  C   UNL     1       1.011   9.049  19.049  0.00  0.00    +0.000 A 
ATOM      8  C   UNL     1       1.838   8.015  19.486  0.00  0.00    +0.000 A 
ATOM      9  C   UNL     1       2.006   7.755  20.842  0.00  0.00    +0.000 A 
ATOM     10  C   UNL     1       1.340   8.543  21.781  0.00  0.00    +0.000 A 
ATOM     11  C   UNL     1       0.508   9.583  21.348  0.00  0.00    +0.000 A 
ENDROOT
BRANCH   3  12
ATOM     12  C   UNL     1      -1.730  12.438  22.701  0.00  0.00    +0.000 A 
ATOM     13  C   UNL     1      -1.102  13.613  23.137  0.00  0.00    +0.000 A 
ATOM     14  C   UNL     1      -1.705  14.418  24.106  0.00  0.00    +0.000 A 
ATOM     15  C   UNL     1      -2.940  14.047  24.628  0.00  0.00    +0.000 A 
ATOM     16  C   UNL     1      -3.591  12.903  24.182  0.00  0.00    +0.000 A 
ATOM     17  C   UNL     1      -2.988  12.097  23.215  0.00  0.00    +0.000 A 
BRANCH  15  18
ATOM     18  O   UNL     1      -3.549  14.787  25.598  0.00  0.00    +0.000 OA
ATOM     19  H   UNL     1      -2.878  15.068  26.240  0.00  0.00    +0.000 HD
ENDBRANCH  15  18
ENDBRANCH   3  12
BRANCH   8  20
ATOM     20  O   UNL     1       2.513   7.223  18.606  0.00  0.00    +0.000 OA
ATOM     21  H   UNL     1       3.204   6.733  19.084  0.00  0.00    +0.000 HD
ENDBRANCH   8  20
BRANCH   4  22
ATOM     22  S   UNL     1      -1.946  13.026  19.684  0.00  0.00    +0.000 S 
BRANCH  22  23
ATOM     23  C   UNL     1      -3.579  12.372  19.402  0.00  0.00    +0.000 A 
ATOM     24  C   UNL     1      -4.697  12.768  20.146  0.00  0.00    +0.000 A 
ATOM     25  C   UNL     1      -5.977  12.316  19.802  0.00  0.00    +0.000 A 
ATOM     26  C   UNL     1      -6.135  11.474  18.706  0.00  0.00    +0.000 A 
ATOM     27  C   UNL     1      -5.037  11.076  17.953  0.00  0.00    +0.000 A 
ATOM     28  C   UNL     1      -3.763  11.528  18.300  0.00  0.00    +0.000 A 
BRANCH  26  29
ATOM     29  O   UNL     1      -7.361  11.021  18.320  0.00  0.00    +0.000 OA
ATOM     30  H   UNL     1      -7.282  10.094  18.044  0.00  0.00    +0.000 HD
ENDBRANCH  26  29
ENDBRANCH  22  23
ENDBRANCH   4  22
TORSDOF 6
ENDMDL
MODEL 5
REMARK VINA RESULT:      -6.7      4.829     10.397
REMARK  Name = 
REMARK  6 active torsions:
REMARK  status: ('A' for Active; 'I' for Inactive)
REMARK    1  A    between atoms: C_3  and  C_4
REMARK    2  A    between atoms: C_7  and  O_8
REMARK    3  A    between atoms: C_11  and  S_12
REMARK    4  A    between atoms: S_12  and  C_13
REMARK    5  A    between atoms: C_16  and  O_17
REMARK    6  A    between atoms: C_23  and  O_24
REMARK                            x       y       z     vdW  Elec       q    Type
REMARK                         _______ _______ _______ _____ _____    ______ ____
ROOT
ATOM      1  O   UNL     1       1.572   6.141  20.893  0.00  0.00    +0.000 OA
ATOM      2  C   UNL     1       1.898   6.908  19.994  0.00  0.00    +0.000 A 
ATOM      3  C   UNL     1       2.617   6.449  18.773  0.00  0.00    +0.000 A 
ATOM      4  C   UNL     1       2.952   7.375  17.842  0.00  0.00    +0.000 A 
ATOM      5  O   UNL     1       2.672   8.730  17.958  0.00  0.00    +0.000 OA
ATOM      6  C   UNL     1       1.976   9.177  19.050  0.00  0.00    +0.000 A 
ATOM      7  C   UNL     1       1.672  10.539  19.102  0.00  0.00    +0.000 A 
ATOM      8  C   UNL     1       0.967  11.040  20.194  0.00  0.00    +0.000 A 
ATOM      9  C   UNL     1       0.564  10.206  21.231  0.00  0.00    +0.000 A 
ATOM     10  C   UNL     1       0.864   8.845  21.175  0.00  0.00    +0.000 A 
ATOM     11  C   UNL     1       1.572   8.335  20.080  0.00  0.00    +0.000 A 
ENDROOT
BRANCH   3  12
ATOM     12  C   UNL     1       2.930   5.014  18.627  0.00  0.00    +0.000 A 
ATOM     13  C   UNL     1       3.922   4.431  19.429  0.00  0.00    +0.000 A 
ATOM     14  C   UNL     1       4.302   3.103  19.226  0.00  0.00    +0.000 A 
ATOM     15  C   UNL     1       3.682   2.360  18.228  0.00  0.00    +0.000 A 
ATOM     16  C   UNL     1       2.674   2.913  17.446  0.00  0.00    +0.000 A 
ATOM     17  C   UNL     1       2.294   4.241  17.646  0.00  0.00    +0.000 A 
BRANCH  15  18
ATOM     18  O   UNL     1       4.045   1.070  17.975  0.00  0.00    +0.000 OA
ATOM     19  H   UNL     1       4.109   0.949  17.013  0.00  0.00    +0.000 HD
ENDBRANCH  15  18
ENDBRANCH   3  12
BRANCH   8  20
ATOM     20  O   UNL     1       0.646  12.361  20.289  0.00  0.00    +0.000 OA
ATOM     21  H   UNL     1       0.067  12.494  21.059  0.00  0.00    +0.000 HD
ENDBRANCH   8  20
BRANCH   4  22
ATOM     22  S   UNL     1       3.675   6.908  16.315  0.00  0.00    +0.000 S 
BRANCH  22  23
ATOM     23  C   UNL     1       5.229   6.194  16.815  0.00  0.00    +0.000 A 
ATOM     24  C   UNL     1       6.000   6.706  17.867  0.00  0.00    +0.000 A 
ATOM     25  C   UNL     1       7.150   6.035  18.299  0.00  0.00    +0.000 A 
ATOM     26  C   UNL     1       7.521   4.845  17.681  0.00  0.00    +0.000 A 
ATOM     27  C   UNL     1       6.766   4.320  16.641  0.00  0.00    +0.000 A 
ATOM     28  C   UNL     1       5.620   4.993  16.212  0.00  0.00    +0.000 A 
BRANCH  26  29
ATOM     29  O   UNL     1       8.622   4.146  18.077  0.00  0.00    +0.000 OA
ATOM     30  H   UNL     1       9.080   3.807  17.290  0.00  0.00    +0.000 HD
ENDBRANCH  26  29
ENDBRANCH  22  23
ENDBRANCH   4  22
TORSDOF 6
ENDMDL
MODEL 6
REMARK VINA RESULT:      -6.7      3.628      6.522
REMARK  Name = 
REMARK  6 active torsions:
REMARK  status: ('A' for Active; 'I' for Inactive)
REMARK    1  A    between atoms: C_3  and  C_4
REMARK    2  A    between atoms: C_7  and  O_8
REMARK    3  A    between atoms: C_11  and  S_12
REMARK    4  A    between atoms: S_12  and  C_13
REMARK    5  A    between atoms: C_16  and  O_17
REMARK    6  A    between atoms: C_23  and  O_24
REMARK                            x       y       z     vdW  Elec       q    Type
REMARK                         _______ _______ _______ _____ _____    ______ ____
ROOT
ATOM      1  O   UNL     1       2.958  12.627  18.522  0.00  0.00    +0.000 OA
ATOM      2  C   UNL     1       1.783  12.935  18.682  0.00  0.00    +0.000 A 
ATOM      3  C   UNL     1       0.720  11.926  18.947  0.00  0.00    +0.000 A 
ATOM      4  C   UNL     1      -0.554  12.362  19.092  0.00  0.00    +0.000 A 
ATOM      5  O   UNL     1      -0.935  13.695  19.003  0.00  0.00    +0.000 OA
ATOM      6  C   UNL     1       0.025  14.651  18.799  0.00  0.00    +0.000 A 
ATOM      7  C   UNL     1      -0.395  15.982  18.766  0.00  0.00    +0.000 A 
ATOM      8  C   UNL     1       0.545  16.990  18.560  0.00  0.00    +0.000 A 
ATOM      9  C   UNL     1       1.892  16.689  18.388  0.00  0.00    +0.000 A 
ATOM     10  C   UNL     1       2.310  15.359  18.426  0.00  0.00    +0.000 A 
ATOM     11  C   UNL     1       1.370  14.343  18.633  0.00  0.00    +0.000 A 
ENDROOT
BRANCH   3  12
ATOM     12  C   UNL     1       1.098  10.502  19.044  0.00  0.00    +0.000 A 
ATOM     13  C   UNL     1       1.032   9.846  20.282  0.00  0.00    +0.000 A 
ATOM     14  C   UNL     1       1.489   8.533  20.409  0.00  0.00    +0.000 A 
ATOM     15  C   UNL     1       2.002   7.878  19.295  0.00  0.00    +0.000 A 
ATOM     16  C   UNL     1       2.045   8.503  18.054  0.00  0.00    +0.000 A 
ATOM     17  C   UNL     1       1.590   9.817  17.926  0.00  0.00    +0.000 A 
BRANCH  15  18
ATOM     18  O   UNL     1       2.489   6.607  19.382  0.00  0.00    +0.000 OA
ATOM     19  H   UNL     1       1.871   6.008  18.932  0.00  0.00    +0.000 HD
ENDBRANCH  15  18
ENDBRANCH   3  12
BRANCH   8  20
ATOM     20  O   UNL     1       0.184  18.303  18.520  0.00  0.00    +0.000 OA
ATOM     21  H   UNL     1      -0.470  18.476  19.219  0.00  0.00    +0.000 HD
ENDBRANCH   8  20
BRANCH   4  22
ATOM     22  S   UNL     1      -1.845  11.264  19.542  0.00  0.00    +0.000 S 
BRANCH  22  23
ATOM     23  C   UNL     1      -2.604  10.884  17.976  0.00  0.00    +0.000 A 
ATOM     24  C   UNL     1      -3.753  11.535  17.508  0.00  0.00    +0.000 A 
ATOM     25  C   UNL     1      -4.237  11.286  16.218  0.00  0.00    +0.000 A 
ATOM     26  C   UNL     1      -3.562  10.390  15.395  0.00  0.00    +0.000 A 
ATOM     27  C   UNL     1      -2.419   9.740  15.841  0.00  0.00    +0.000 A 
ATOM     28  C   UNL     1      -1.940   9.990  17.128  0.00  0.00    +0.000 A 
BRANCH  26  29
ATOM     29  O   UNL     1      -3.983  10.127  14.126  0.00  0.00    +0.000 OA
ATOM     30  H   UNL     1      -4.900  10.433  14.028  0.00  0.00    +0.000 HD
ENDBRANCH  26  29
ENDBRANCH  22  23
ENDBRANCH   4  22
TORSDOF 6
ENDMDL
MODEL 7
REMARK VINA RESULT:      -6.6      3.719      5.818
REMARK  Name = 
REMARK  6 active torsions:
REMARK  status: ('A' for Active; 'I' for Inactive)
REMARK    1  A    between atoms: C_3  and  C_4
REMARK    2  A    between atoms: C_7  and  O_8
REMARK    3  A    between atoms: C_11  and  S_12
REMARK    4  A    between atoms: S_12  and  C_13
REMARK    5  A    between atoms: C_16  and  O_17
REMARK    6  A    between atoms: C_23  and  O_24
REMARK                            x       y       z     vdW  Elec       q    Type
REMARK                         _______ _______ _______ _____ _____    ______ ____
ROOT
ATOM      1  O   UNL     1       1.369  14.639  22.291  0.00  0.00    +0.000 OA
ATOM      2  C   UNL     1       1.569  14.068  21.225  0.00  0.00    +0.000 A 
ATOM      3  C   UNL     1       0.665  13.005  20.705  0.00  0.00    +0.000 A 
ATOM      4  C   UNL     1       0.979  12.418  19.525  0.00  0.00    +0.000 A 
ATOM      5  O   UNL     1       2.098  12.742  18.769  0.00  0.00    +0.000 OA
ATOM      6  C   UNL     1       2.928  13.743  19.201  0.00  0.00    +0.000 A 
ATOM      7  C   UNL     1       4.013  14.070  18.385  0.00  0.00    +0.000 A 
ATOM      8  C   UNL     1       4.885  15.081  18.783  0.00  0.00    +0.000 A 
ATOM      9  C   UNL     1       4.691  15.767  19.977  0.00  0.00    +0.000 A 
ATOM     10  C   UNL     1       3.604  15.442  20.788  0.00  0.00    +0.000 A 
ATOM     11  C   UNL     1       2.724  14.428  20.394  0.00  0.00    +0.000 A 
ENDROOT
BRANCH   3  12
ATOM     12  C   UNL     1      -0.531  12.640  21.491  0.00  0.00    +0.000 A 
ATOM     13  C   UNL     1      -1.698  13.409  21.383  0.00  0.00    +0.000 A 
ATOM     14  C   UNL     1      -2.798  13.141  22.200  0.00  0.00    +0.000 A 
ATOM     15  C   UNL     1      -2.729  12.097  23.116  0.00  0.00    +0.000 A 
ATOM     16  C   UNL     1      -1.591  11.304  23.213  0.00  0.00    +0.000 A 
ATOM     17  C   UNL     1      -0.490  11.573  22.398  0.00  0.00    +0.000 A 
BRANCH  15  18
ATOM     18  O   UNL     1      -3.768  11.821  23.955  0.00  0.00    +0.000 OA
ATOM     19  H   UNL     1      -3.775  12.482  24.667  0.00  0.00    +0.000 HD
ENDBRANCH  15  18
ENDBRANCH   3  12
BRANCH   8  20
ATOM     20  O   UNL     1       5.958  15.437  18.022  0.00  0.00    +0.000 OA
ATOM     21  H   UNL     1       6.078  14.782  17.313  0.00  0.00    +0.000 HD
ENDBRANCH   8  20
BRANCH   4  22
ATOM     22  S   UNL     1      -0.099  11.258  18.772  0.00  0.00    +0.000 S 
BRANCH  22  23
ATOM     23  C   UNL     1       0.764   9.715  18.995  0.00  0.00    +0.000 A 
ATOM     24  C   UNL     1       1.531   9.118  17.987  0.00  0.00    +0.000 A 
ATOM     25  C   UNL     1       2.288   7.970  18.253  0.00  0.00    +0.000 A 
ATOM     26  C   UNL     1       2.281   7.428  19.534  0.00  0.00    +0.000 A 
ATOM     27  C   UNL     1       1.530   8.010  20.547  0.00  0.00    +0.000 A 
ATOM     28  C   UNL     1       0.777   9.153  20.277  0.00  0.00    +0.000 A 
BRANCH  26  29
ATOM     29  O   UNL     1       3.014   6.322  19.847  0.00  0.00    +0.000 OA
ATOM     30  H   UNL     1       2.834   6.075  20.769  0.00  0.00    +0.000 HD
ENDBRANCH  26  29
ENDBRANCH  22  23
ENDBRANCH   4  22
TORSDOF 6
ENDMDL
MODEL 8
REMARK VINA RESULT:      -6.6      2.603      4.168
REMARK  Name = 
REMARK  6 active torsions:
REMARK  status: ('A' for Active; 'I' for Inactive)
REMARK    1  A    between atoms: C_3  and  C_4
REMARK    2  A    between atoms: C_7  and  O_8
REMARK    3  A    between atoms: C_11  and  S_12
REMARK    4  A    between atoms: S_12  and  C_13
REMARK    5  A    between atoms: C_16  and  O_17
REMARK    6  A    between atoms: C_23  and  O_24
REMARK                            x       y       z     vdW  Elec       q    Type
REMARK                         _______ _______ _______ _____ _____    ______ ____
ROOT
ATOM      1  O   UNL     1      -0.242  10.220  23.414  0.00  0.00    +0.000 OA
ATOM      2  C   UNL     1      -0.267  10.593  22.247  0.00  0.00    +0.000 A 
ATOM      3  C   UNL     1      -0.977  11.829  21.818  0.00  0.00    +0.000 A 
ATOM      4  C   UNL     1      -0.964  12.151  20.502  0.00  0.00    +0.000 A 
ATOM      5  O   UNL     1      -0.332  11.395  19.523  0.00  0.00    +0.000 OA
ATOM      6  C   UNL     1       0.364  10.274  19.892  0.00  0.00    +0.000 A 
ATOM      7  C   UNL     1       1.026   9.572  18.883  0.00  0.00    +0.000 A 
ATOM      8  C   UNL     1       1.746   8.424  19.209  0.00  0.00    +0.000 A 
ATOM      9  C   UNL     1       1.815   7.970  20.522  0.00  0.00    +0.000 A 
ATOM     10  C   UNL     1       1.157   8.675  21.529  0.00  0.00    +0.000 A 
ATOM     11  C   UNL     1       0.432   9.829  21.207  0.00  0.00    +0.000 A 
ENDROOT
BRANCH   3  12
ATOM     12  C   UNL     1      -1.660  12.650  22.838  0.00  0.00    +0.000 A 
ATOM     13  C   UNL     1      -2.957  12.313  23.250  0.00  0.00    +0.000 A 
ATOM     14  C   UNL     1      -3.654  13.141  24.132  0.00  0.00    +0.000 A 
ATOM     15  C   UNL     1      -3.046  14.299  24.606  0.00  0.00    +0.000 A 
ATOM     16  C   UNL     1      -1.749  14.630  24.233  0.00  0.00    +0.000 A 
ATOM     17  C   UNL     1      -1.052  13.804  23.350  0.00  0.00    +0.000 A 
BRANCH  15  18
ATOM     18  O   UNL     1      -3.703  15.151  25.444  0.00  0.00    +0.000 OA
ATOM     19  H   UNL     1      -4.488  14.699  25.793  0.00  0.00    +0.000 HD
ENDBRANCH  15  18
ENDBRANCH   3  12
BRANCH   8  20
ATOM     20  O   UNL     1       2.409   7.705  18.261  0.00  0.00    +0.000 OA
ATOM     21  H   UNL     1       2.181   6.764  18.355  0.00  0.00    +0.000 HD
ENDBRANCH   8  20
BRANCH   4  22
ATOM     22  S   UNL     1      -1.655  13.656  19.927  0.00  0.00    +0.000 S 
BRANCH  22  23
ATOM     23  C   UNL     1      -0.222  14.695  19.719  0.00  0.00    +0.000 A 
ATOM     24  C   UNL     1       1.030  14.383  20.262  0.00  0.00    +0.000 A 
ATOM     25  C   UNL     1       2.151  15.170  19.966  0.00  0.00    +0.000 A 
ATOM     26  C   UNL     1       2.015  16.263  19.116  0.00  0.00    +0.000 A 
ATOM     27  C   UNL     1       0.781  16.583  18.564  0.00  0.00    +0.000 A 
ATOM     28  C   UNL     1      -0.334  15.797  18.863  0.00  0.00    +0.000 A 
BRANCH  26  29
ATOM     29  O   UNL     1       3.078  17.048  18.783  0.00  0.00    +0.000 OA
ATOM     30  H   UNL     1       3.823  16.479  18.531  0.00  0.00    +0.000 HD
ENDBRANCH  26  29
ENDBRANCH  22  23
ENDBRANCH   4  22
TORSDOF 6
ENDMDL
MODEL 9
REMARK VINA RESULT:      -6.6      1.920      5.381
REMARK  Name = 
REMARK  6 active torsions:
REMARK  status: ('A' for Active; 'I' for Inactive)
REMARK    1  A    between atoms: C_3  and  C_4
REMARK    2  A    between atoms: C_7  and  O_8
REMARK    3  A    between atoms: C_11  and  S_12
REMARK    4  A    between atoms: S_12  and  C_13
REMARK    5  A    between atoms: C_16  and  O_17
REMARK    6  A    between atoms: C_23  and  O_24
REMARK                            x       y       z     vdW  Elec       q    Type
REMARK                         _______ _______ _______ _____ _____    ______ ____
ROOT
ATOM      1  O   UNL     1      -5.273  12.513  19.880  0.00  0.00    +0.000 OA
ATOM      2  C   UNL     1      -4.112  12.345  19.523  0.00  0.00    +0.000 A 
ATOM      3  C   UNL     1      -2.952  12.672  20.397  0.00  0.00    +0.000 A 
ATOM      4  C   UNL     1      -1.705  12.468  19.908  0.00  0.00    +0.000 A 
ATOM      5  O   UNL     1      -1.440  11.977  18.636  0.00  0.00    +0.000 OA
ATOM      6  C   UNL     1      -2.486  11.630  17.823  0.00  0.00    +0.000 A 
ATOM      7  C   UNL     1      -2.174  11.094  16.572  0.00  0.00    +0.000 A 
ATOM      8  C   UNL     1      -3.205  10.727  15.709  0.00  0.00    +0.000 A 
ATOM      9  C   UNL     1      -4.537  10.886  16.076  0.00  0.00    +0.000 A 
ATOM     10  C   UNL     1      -4.847  11.417  17.328  0.00  0.00    +0.000 A 
ATOM     11  C   UNL     1      -3.815  11.787  18.199  0.00  0.00    +0.000 A 
ENDROOT
BRANCH   3  12
ATOM     12  C   UNL     1      -3.207  13.197  21.753  0.00  0.00    +0.000 A 
ATOM     13  C   UNL     1      -3.250  14.582  21.968  0.00  0.00    +0.000 A 
ATOM     14  C   UNL     1      -3.381  15.092  23.260  0.00  0.00    +0.000 A 
ATOM     15  C   UNL     1      -3.479  14.213  24.334  0.00  0.00    +0.000 A 
ATOM     16  C   UNL     1      -3.471  12.837  24.135  0.00  0.00    +0.000 A 
ATOM     17  C   UNL     1      -3.337  12.326  22.843  0.00  0.00    +0.000 A 
BRANCH  15  18
ATOM     18  O   UNL     1      -3.576  14.668  25.616  0.00  0.00    +0.000 OA
ATOM     19  H   UNL     1      -4.486  14.527  25.926  0.00  0.00    +0.000 HD
ENDBRANCH  15  18
ENDBRANCH   3  12
BRANCH   8  20
ATOM     20  O   UNL     1      -2.951  10.199  14.479  0.00  0.00    +0.000 OA
ATOM     21  H   UNL     1      -3.013   9.230  14.528  0.00  0.00    +0.000 HD
ENDBRANCH   8  20
BRANCH   4  22
ATOM     22  S   UNL     1      -0.286  12.694  20.912  0.00  0.00    +0.000 S 
BRANCH  22  23
ATOM     23  C   UNL     1       0.346  11.037  21.082  0.00  0.00    +0.000 A 
ATOM     24  C   UNL     1       0.194  10.279  22.250  0.00  0.00    +0.000 A 
ATOM     25  C   UNL     1       0.601   8.940  22.289  0.00  0.00    +0.000 A 
ATOM     26  C   UNL     1       1.151   8.358  21.150  0.00  0.00    +0.000 A 
ATOM     27  C   UNL     1       1.303   9.093  19.982  0.00  0.00    +0.000 A 
ATOM     28  C   UNL     1       0.897  10.428  19.948  0.00  0.00    +0.000 A 
BRANCH  26  29
ATOM     29  O   UNL     1       1.545   7.054  21.131  0.00  0.00    +0.000 OA
ATOM     30  H   UNL     1       0.828   6.513  20.763  0.00  0.00    +0.000 HD
ENDBRANCH  26  29
ENDBRANCH  22  23
ENDBRANCH   4  22
TORSDOF 6
ENDMDL
