MODEL 1
REMARK VINA RESULT:      -6.8      0.000      0.000
REMARK  Name = 
REMARK  6 active torsions:
REMARK  status: ('A' for Active; 'I' for Inactive)
REMARK    1  A    between atoms: C_1  and  N_2
REMARK    2  A    between atoms: C_6  and  C_8
REMARK    3  A    between atoms: C_11  and  N_12
REMARK    4  A    between atoms: N_12  and  C_24
REMARK    5  A    between atoms: C_13  and  C_15
REMARK    6  A    between atoms: C_19  and  N_20
REMARK                            x       y       z     vdW  Elec       q    Type
REMARK                         _______ _______ _______ _____ _____    ______ ____
ROOT
ATOM      1  N   UNL     1       1.609   9.043  19.521  0.00  0.00    +0.000 N 
ATOM      2  C   UNL     1       1.976   8.683  18.199  0.00  0.00    +0.000 C 
ATOM      3  O   UNL     1       1.918   9.439  17.230  0.00  0.00    +0.000 OA
ENDROOT
BRANCH   2   4
ATOM      4  C   UNL     1       2.595   7.354  17.896  0.00  0.00    +0.000 A 
ATOM      5  C   UNL     1       1.912   6.141  17.915  0.00  0.00    +0.000 A 
ATOM      6  C   UNL     1       2.625   4.943  17.967  0.00  0.00    +0.000 A 
ATOM      7 CL   UNL     1       1.736   3.486  18.264  0.00  0.00    +0.000 Cl
ATOM      8  C   UNL     1       4.023   4.913  17.826  0.00  0.00    +0.000 A 
ATOM      9  C   UNL     1       4.672   6.136  17.593  0.00  0.00    +0.000 A 
ATOM     10 CL   UNL     1       6.376   6.187  17.300  0.00  0.00    +0.000 Cl
ATOM     11  C   UNL     1       3.972   7.340  17.624  0.00  0.00    +0.000 A 
BRANCH   8  12
ATOM     12  N   UNL     1       4.759   3.760  18.164  0.00  0.00    +0.000 N 
ATOM     13  H   UNL     1       4.522   3.357  19.068  0.00  0.00    +0.000 HD
ATOM     14  H   UNL     1       4.841   3.081  17.408  0.00  0.00    +0.000 HD
ENDBRANCH   8  12
ENDBRANCH   2   4
BRANCH   1  18
ATOM     15  C   UNL     1      -1.668  10.961  18.776  0.00  0.00    +0.000 C 
ATOM     16  C   UNL     1      -1.423   9.861  19.814  0.00  0.00    +0.000 C 
ATOM     17  C   UNL     1      -0.244  10.254  20.699  0.00  0.00    +0.000 C 
ATOM     18  C   UNL     1       1.053  10.385  19.872  0.00  0.00    +0.000 C 
ATOM     19  C   UNL     1       0.818  11.415  18.748  0.00  0.00    +0.000 C 
ATOM     20  C   UNL     1      -0.426  11.131  17.897  0.00  0.00    +0.000 C 
BRANCH  15  26
ATOM     21  C   UNL     1      -7.554  11.663  20.739  0.00  0.00    +0.000 C 
ATOM     22  N   UNL     1      -6.535  11.925  19.727  0.00  0.00    +0.000 NA
ATOM     23  C   UNL     1      -6.456  10.824  18.737  0.00  0.00    +0.000 C 
ATOM     24  C   UNL     1      -5.350  11.045  17.678  0.00  0.00    +0.000 C 
ATOM     25  N   UNL     1      -4.073  11.374  18.312  0.00  0.00    +0.000 N 
ATOM     26  C   UNL     1      -2.922  10.687  17.949  0.00  0.00    +0.000 C 
ATOM     27  O   UNL     1      -2.908   9.866  17.031  0.00  0.00    +0.000 OA
ATOM     28  C   UNL     1      -4.160  12.446  19.306  0.00  0.00    +0.000 C 
ATOM     29  C   UNL     1      -5.219  12.114  20.363  0.00  0.00    +0.000 C 
ENDBRANCH  15  26
ENDBRANCH   1  18
BRANCH   1  30
ATOM     30  C   UNL     1       1.845   8.161  20.660  0.00  0.00    +0.000 C 
ATOM     31  C   UNL     1       1.067   8.363  21.938  0.00  0.00    +0.000 C 
ATOM     32  C   UNL     1       0.914   7.091  21.177  0.00  0.00    +0.000 C 
ENDBRANCH   1  30
TORSDOF 5
ENDMDL
MODEL 2
REMARK VINA RESULT:      -6.7      4.172      8.414
REMARK  Name = 
REMARK  6 active torsions:
REMARK  status: ('A' for Active; 'I' for Inactive)
REMARK    1  A    between atoms: C_1  and  N_2
REMARK    2  A    between atoms: C_6  and  C_8
REMARK    3  A    between atoms: C_11  and  N_12
REMARK    4  A    between atoms: N_12  and  C_24
REMARK    5  A    between atoms: C_13  and  C_15
REMARK    6  A    between atoms: C_19  and  N_20
REMARK                            x       y       z     vdW  Elec       q    Type
REMARK                         _______ _______ _______ _____ _____    ______ ____
ROOT
ATOM      1  N   UNL     1       0.454  11.550  19.931  0.00  0.00    +0.000 N 
ATOM      2  C   UNL     1       1.573  12.030  19.204  0.00  0.00    +0.000 C 
ATOM      3  O   UNL     1       2.078  11.452  18.242  0.00  0.00    +0.000 OA
ENDROOT
BRANCH   2   4
ATOM      4  C   UNL     1       2.167  13.375  19.485  0.00  0.00    +0.000 A 
ATOM      5  C   UNL     1       2.149  14.448  18.598  0.00  0.00    +0.000 A 
ATOM      6  C   UNL     1       3.014  15.526  18.794  0.00  0.00    +0.000 A 
ATOM      7 CL   UNL     1       3.147  16.696  17.524  0.00  0.00    +0.000 Cl
ATOM      8  C   UNL     1       3.787  15.645  19.961  0.00  0.00    +0.000 A 
ATOM      9  C   UNL     1       3.627  14.653  20.942  0.00  0.00    +0.000 A 
ATOM     10 CL   UNL     1       4.453  14.771  22.458  0.00  0.00    +0.000 Cl
ATOM     11  C   UNL     1       2.828  13.535  20.713  0.00  0.00    +0.000 A 
BRANCH   8  12
ATOM     12  N   UNL     1       4.856  16.560  20.030  0.00  0.00    +0.000 N 
ATOM     13  H   UNL     1       5.645  16.334  19.428  0.00  0.00    +0.000 HD
ATOM     14  H   UNL     1       4.570  17.538  20.003  0.00  0.00    +0.000 HD
ENDBRANCH   8  12
ENDBRANCH   2   4
BRANCH   1  18
ATOM     15  C   UNL     1       1.600   8.114  18.569  0.00  0.00    +0.000 C 
ATOM     16  C   UNL     1       1.745   8.673  19.988  0.00  0.00    +0.000 C 
ATOM     17  C   UNL     1       0.376   9.109  20.501  0.00  0.00    +0.000 C 
ATOM     18  C   UNL     1      -0.209  10.244  19.633  0.00  0.00    +0.000 C 
ATOM     19  C   UNL     1      -0.279   9.757  18.171  0.00  0.00    +0.000 C 
ATOM     20  C   UNL     1       1.047   9.198  17.639  0.00  0.00    +0.000 C 
BRANCH  15  26
ATOM     21  C   UNL     1       3.966   2.537  20.079  0.00  0.00    +0.000 C 
ATOM     22  N   UNL     1       3.595   3.497  19.045  0.00  0.00    +0.000 NA
ATOM     23  C   UNL     1       4.690   4.460  18.778  0.00  0.00    +0.000 C 
ATOM     24  C   UNL     1       4.311   5.525  17.721  0.00  0.00    +0.000 C 
ATOM     25  N   UNL     1       3.028   6.151  18.043  0.00  0.00    +0.000 N 
ATOM     26  C   UNL     1       2.916   7.535  18.054  0.00  0.00    +0.000 C 
ATOM     27  O   UNL     1       3.837   8.273  17.703  0.00  0.00    +0.000 OA
ATOM     28  C   UNL     1       1.955   5.197  18.329  0.00  0.00    +0.000 C 
ATOM     29  C   UNL     1       2.378   4.230  19.440  0.00  0.00    +0.000 C 
ENDBRANCH  15  26
ENDBRANCH   1  18
BRANCH   1  30
ATOM     30  C   UNL     1      -0.202  12.348  20.962  0.00  0.00    +0.000 C 
ATOM     31  C   UNL     1      -1.660  12.114  21.276  0.00  0.00    +0.000 C 
ATOM     32  C   UNL     1      -0.634  11.873  22.329  0.00  0.00    +0.000 C 
ENDBRANCH   1  30
TORSDOF 5
ENDMDL
MODEL 3
REMARK VINA RESULT:      -6.7      2.516      3.510
REMARK  Name = 
REMARK  6 active torsions:
REMARK  status: ('A' for Active; 'I' for Inactive)
REMARK    1  A    between atoms: C_1  and  N_2
REMARK    2  A    between atoms: C_6  and  C_8
REMARK    3  A    between atoms: C_11  and  N_12
REMARK    4  A    between atoms: N_12  and  C_24
REMARK    5  A    between atoms: C_13  and  C_15
REMARK    6  A    between atoms: C_19  and  N_20
REMARK                            x       y       z     vdW  Elec       q    Type
REMARK                         _______ _______ _______ _____ _____    ______ ____
ROOT
ATOM      1  N   UNL     1       1.536   9.002  19.097  0.00  0.00    +0.000 N 
ATOM      2  C   UNL     1       2.176   8.181  18.133  0.00  0.00    +0.000 C 
ATOM      3  O   UNL     1       2.376   8.508  16.964  0.00  0.00    +0.000 OA
ENDROOT
BRANCH   2   4
ATOM      4  C   UNL     1       2.780   6.865  18.508  0.00  0.00    +0.000 A 
ATOM      5  C   UNL     1       4.072   6.699  19.001  0.00  0.00    +0.000 A 
ATOM      6  C   UNL     1       4.663   5.436  18.991  0.00  0.00    +0.000 A 
ATOM      7 CL   UNL     1       6.353   5.332  19.355  0.00  0.00    +0.000 Cl
ATOM      8  C   UNL     1       3.930   4.285  18.657  0.00  0.00    +0.000 A 
ATOM      9  C   UNL     1       2.566   4.452  18.369  0.00  0.00    +0.000 A 
ATOM     10 CL   UNL     1       1.558   3.082  18.053  0.00  0.00    +0.000 Cl
ATOM     11  C   UNL     1       1.996   5.721  18.298  0.00  0.00    +0.000 A 
BRANCH   8  12
ATOM     12  N   UNL     1       4.584   3.071  18.367  0.00  0.00    +0.000 N 
ATOM     13  H   UNL     1       4.905   2.982  17.406  0.00  0.00    +0.000 HD
ATOM     14  H   UNL     1       5.268   2.787  19.068  0.00  0.00    +0.000 HD
ENDBRANCH   8  12
ENDBRANCH   2   4
BRANCH   1  18
ATOM     15  C   UNL     1      -0.679  11.594  20.928  0.00  0.00    +0.000 C 
ATOM     16  C   UNL     1       0.819  11.325  21.106  0.00  0.00    +0.000 C 
ATOM     17  C   UNL     1       1.515  11.423  19.751  0.00  0.00    +0.000 C 
ATOM     18  C   UNL     1       0.983  10.352  18.774  0.00  0.00    +0.000 C 
ATOM     19  C   UNL     1      -0.545  10.524  18.642  0.00  0.00    +0.000 C 
ATOM     20  C   UNL     1      -1.284  10.549  19.986  0.00  0.00    +0.000 C 
BRANCH  15  26
ATOM     21  C   UNL     1      -4.354  16.236  22.910  0.00  0.00    +0.000 C 
ATOM     22  N   UNL     1      -4.157  14.807  22.689  0.00  0.00    +0.000 NA
ATOM     23  C   UNL     1      -3.479  14.166  23.841  0.00  0.00    +0.000 C 
ATOM     24  C   UNL     1      -3.208  12.659  23.619  0.00  0.00    +0.000 C 
ATOM     25  N   UNL     1      -2.550  12.428  22.332  0.00  0.00    +0.000 N 
ATOM     26  C   UNL     1      -1.405  11.645  22.270  0.00  0.00    +0.000 C 
ATOM     27  O   UNL     1      -0.966  11.043  23.251  0.00  0.00    +0.000 OA
ATOM     28  C   UNL     1      -3.210  13.081  21.200  0.00  0.00    +0.000 C 
ATOM     29  C   UNL     1      -3.368  14.583  21.463  0.00  0.00    +0.000 C 
ENDBRANCH  15  26
ENDBRANCH   1  18
BRANCH   1  30
ATOM     30  C   UNL     1       1.464   8.632  20.507  0.00  0.00    +0.000 C 
ATOM     31  C   UNL     1       0.193   8.033  21.060  0.00  0.00    +0.000 C 
ATOM     32  C   UNL     1       1.448   7.231  21.070  0.00  0.00    +0.000 C 
ENDBRANCH   1  30
TORSDOF 5
ENDMDL
MODEL 4
REMARK VINA RESULT:      -6.7      4.443      9.393
REMARK  Name = 
REMARK  6 active torsions:
REMARK  status: ('A' for Active; 'I' for Inactive)
REMARK    1  A    between atoms: C_1  and  N_2
REMARK    2  A    between atoms: C_6  and  C_8
REMARK    3  A    between atoms: C_11  and  N_12
REMARK    4  A    between atoms: N_12  and  C_24
REMARK    5  A    between atoms: C_13  and  C_15
REMARK    6  A    between atoms: C_19  and  N_20
REMARK                            x       y       z     vdW  Elec       q    Type
REMARK                         _______ _______ _______ _____ _____    ______ ____
ROOT
ATOM      1  N   UNL     1      -1.836  12.988  19.700  0.00  0.00    +0.000 N 
ATOM      2  C   UNL     1      -3.220  12.686  19.770  0.00  0.00    +0.000 C 
ATOM      3  O   UNL     1      -3.800  11.901  19.019  0.00  0.00    +0.000 OA
ENDROOT
BRANCH   2   4
ATOM      4  C   UNL     1      -4.080  13.221  20.871  0.00  0.00    +0.000 A 
ATOM      5  C   UNL     1      -4.920  14.326  20.753  0.00  0.00    +0.000 A 
ATOM      6  C   UNL     1      -5.405  14.956  21.899  0.00  0.00    +0.000 A 
ATOM      7 CL   UNL     1      -6.213  16.476  21.705  0.00  0.00    +0.000 Cl
ATOM      8  C   UNL     1      -5.212  14.406  23.177  0.00  0.00    +0.000 A 
ATOM      9  C   UNL     1      -4.543  13.174  23.253  0.00  0.00    +0.000 A 
ATOM     10 CL   UNL     1      -4.353  12.365  24.770  0.00  0.00    +0.000 Cl
ATOM     11  C   UNL     1      -3.986  12.586  22.119  0.00  0.00    +0.000 A 
BRANCH   8  12
ATOM     12  N   UNL     1      -5.441  15.173  24.337  0.00  0.00    +0.000 N 
ATOM     13  H   UNL     1      -6.423  15.324  24.557  0.00  0.00    +0.000 HD
ATOM     14  H   UNL     1      -4.866  14.905  25.134  0.00  0.00    +0.000 HD
ENDBRANCH   8  12
ENDBRANCH   2   4
BRANCH   1  18
ATOM     15  C   UNL     1       0.543   9.945  19.467  0.00  0.00    +0.000 C 
ATOM     16  C   UNL     1      -0.982   9.975  19.326  0.00  0.00    +0.000 C 
ATOM     17  C   UNL     1      -1.371  10.990  18.256  0.00  0.00    +0.000 C 
ATOM     18  C   UNL     1      -0.932  12.416  18.656  0.00  0.00    +0.000 C 
ATOM     19  C   UNL     1       0.590  12.408  18.906  0.00  0.00    +0.000 C 
ATOM     20  C   UNL     1       1.051  11.326  19.890  0.00  0.00    +0.000 C 
BRANCH  15  26
ATOM     21  C   UNL     1       2.398   4.211  17.834  0.00  0.00    +0.000 C 
ATOM     22  N   UNL     1       2.648   5.438  18.583  0.00  0.00    +0.000 NA
ATOM     23  C   UNL     1       1.999   5.403  19.915  0.00  0.00    +0.000 C 
ATOM     24  C   UNL     1       2.201   6.711  20.718  0.00  0.00    +0.000 C 
ATOM     25  N   UNL     1       1.852   7.881  19.911  0.00  0.00    +0.000 N 
ATOM     26  C   UNL     1       0.998   8.848  20.427  0.00  0.00    +0.000 C 
ATOM     27  O   UNL     1       0.592   8.815  21.589  0.00  0.00    +0.000 OA
ATOM     28  C   UNL     1       2.477   7.901  18.588  0.00  0.00    +0.000 C 
ATOM     29  C   UNL     1       2.163   6.607  17.827  0.00  0.00    +0.000 C 
ENDBRANCH  15  26
ENDBRANCH   1  18
BRANCH   1  30
ATOM     30  C   UNL     1      -1.167  13.802  20.710  0.00  0.00    +0.000 C 
ATOM     31  C   UNL     1      -0.261  14.932  20.282  0.00  0.00    +0.000 C 
ATOM     32  C   UNL     1      -1.489  15.232  21.071  0.00  0.00    +0.000 C 
ENDBRANCH   1  30
TORSDOF 5
ENDMDL
MODEL 5
REMARK VINA RESULT:      -6.7      1.180      1.237
REMARK  Name = 
REMARK  6 active torsions:
REMARK  status: ('A' for Active; 'I' for Inactive)
REMARK    1  A    between atoms: C_1  and  N_2
REMARK    2  A    between atoms: C_6  and  C_8
REMARK    3  A    between atoms: C_11  and  N_12
REMARK    4  A    between atoms: N_12  and  C_24
REMARK    5  A    between atoms: C_13  and  C_15
REMARK    6  A    between atoms: C_19  and  N_20
REMARK                            x       y       z     vdW  Elec       q    Type
REMARK                         _______ _______ _______ _____ _____    ______ ____
ROOT
ATOM      1  N   UNL     1       1.079   9.882  20.055  0.00  0.00    +0.000 N 
ATOM      2  C   UNL     1       1.617   9.411  18.830  0.00  0.00    +0.000 C 
ATOM      3  O   UNL     1       1.752  10.099  17.819  0.00  0.00    +0.000 OA
ENDROOT
BRANCH   2   4
ATOM      4  C   UNL     1       2.190   8.034  18.710  0.00  0.00    +0.000 A 
ATOM      5  C   UNL     1       1.904   6.979  19.573  0.00  0.00    +0.000 A 
ATOM      6  C   UNL     1       2.732   5.857  19.598  0.00  0.00    +0.000 A 
ATOM      7 CL   UNL     1       2.495   4.706  20.871  0.00  0.00    +0.000 Cl
ATOM      8  C   UNL     1       3.755   5.678  18.652  0.00  0.00    +0.000 A 
ATOM      9  C   UNL     1       3.887   6.657  17.654  0.00  0.00    +0.000 A 
ATOM     10 CL   UNL     1       5.046   6.470  16.383  0.00  0.00    +0.000 Cl
ATOM     11  C   UNL     1       3.116   7.817  17.678  0.00  0.00    +0.000 A 
BRANCH   8  12
ATOM     12  N   UNL     1       4.760   4.710  18.848  0.00  0.00    +0.000 N 
ATOM     13  H   UNL     1       4.745   3.943  18.179  0.00  0.00    +0.000 HD
ATOM     14  H   UNL     1       5.686   5.100  19.023  0.00  0.00    +0.000 HD
ENDBRANCH   8  12
ENDBRANCH   2   4
BRANCH   1  18
ATOM     15  C   UNL     1      -2.021  11.857  18.844  0.00  0.00    +0.000 C 
ATOM     16  C   UNL     1      -1.923  10.849  19.993  0.00  0.00    +0.000 C 
ATOM     17  C   UNL     1      -0.808  11.274  20.945  0.00  0.00    +0.000 C 
ATOM     18  C   UNL     1       0.562  11.273  20.232  0.00  0.00    +0.000 C 
ATOM     19  C   UNL     1       0.477  12.203  19.005  0.00  0.00    +0.000 C 
ATOM     20  C   UNL     1      -0.699  11.892  18.071  0.00  0.00    +0.000 C 
BRANCH  15  26
ATOM     21  C   UNL     1      -7.916  10.989  20.711  0.00  0.00    +0.000 C 
ATOM     22  N   UNL     1      -6.973  11.663  19.823  0.00  0.00    +0.000 NA
ATOM     23  C   UNL     1      -6.700  10.858  18.608  0.00  0.00    +0.000 C 
ATOM     24  C   UNL     1      -5.664  11.520  17.668  0.00  0.00    +0.000 C 
ATOM     25  N   UNL     1      -4.465  11.919  18.406  0.00  0.00    +0.000 N 
ATOM     26  C   UNL     1      -3.210  11.559  17.933  0.00  0.00    +0.000 C 
ATOM     27  O   UNL     1      -3.051  10.994  16.850  0.00  0.00    +0.000 OA
ATOM     28  C   UNL     1      -4.740  12.694  19.617  0.00  0.00    +0.000 C 
ATOM     29  C   UNL     1      -5.709  11.935  20.531  0.00  0.00    +0.000 C 
ENDBRANCH  15  26
ENDBRANCH   1  18
BRANCH   1  30
ATOM     30  C   UNL     1       1.086   9.072  21.269  0.00  0.00    +0.000 C 
ATOM     31  C   UNL     1       0.515   9.635  22.548  0.00  0.00    +0.000 C 
ATOM     32  C   UNL     1      -0.112   8.433  21.931  0.00  0.00    +0.000 C 
ENDBRANCH   1  30
TORSDOF 5
ENDMDL
MODEL 6
REMARK VINA RESULT:      -6.7      6.626      8.297
REMARK  Name = 
REMARK  6 active torsions:
REMARK  status: ('A' for Active; 'I' for Inactive)
REMARK    1  A    between atoms: C_1  and  N_2
REMARK    2  A    between atoms: C_6  and  C_8
REMARK    3  A    between atoms: C_11  and  N_12
REMARK    4  A    between atoms: N_12  and  C_24
REMARK    5  A    between atoms: C_13  and  C_15
REMARK    6  A    between atoms: C_19  and  N_20
REMARK                            x       y       z     vdW  Elec       q    Type
REMARK                         _______ _______ _______ _____ _____    ______ ____
ROOT
ATOM      1  N   UNL     1       6.354  15.691  19.599  0.00  0.00    +0.000 N 
ATOM      2  C   UNL     1       6.778  15.032  18.418  0.00  0.00    +0.000 C 
ATOM      3  O   UNL     1       6.082  14.885  17.414  0.00  0.00    +0.000 OA
ENDROOT
BRANCH   2   4
ATOM      4  C   UNL     1       8.188  14.557  18.254  0.00  0.00    +0.000 A 
ATOM      5  C   UNL     1       9.270  15.380  17.953  0.00  0.00    +0.000 A 
ATOM      6  C   UNL     1      10.458  14.822  17.480  0.00  0.00    +0.000 A 
ATOM      7 CL   UNL     1      11.668  15.898  16.865  0.00  0.00    +0.000 Cl
ATOM      8  C   UNL     1      10.659  13.431  17.460  0.00  0.00    +0.000 A 
ATOM      9  C   UNL     1       9.629  12.625  17.971  0.00  0.00    +0.000 A 
ATOM     10 CL   UNL     1       9.828  10.911  18.088  0.00  0.00    +0.000 Cl
ATOM     11  C   UNL     1       8.412  13.176  18.366  0.00  0.00    +0.000 A 
BRANCH   8  12
ATOM     12  N   UNL     1      11.720  12.865  16.726  0.00  0.00    +0.000 N 
ATOM     13  H   UNL     1      12.608  13.354  16.820  0.00  0.00    +0.000 HD
ATOM     14  H   UNL     1      11.786  11.851  16.804  0.00  0.00    +0.000 HD
ENDBRANCH   8  12
ENDBRANCH   2   4
BRANCH   1  18
ATOM     15  C   UNL     1       2.760  14.291  19.286  0.00  0.00    +0.000 C 
ATOM     16  C   UNL     1       3.747  14.131  20.447  0.00  0.00    +0.000 C 
ATOM     17  C   UNL     1       4.218  15.509  20.902  0.00  0.00    +0.000 C 
ATOM     18  C   UNL     1       4.974  16.240  19.771  0.00  0.00    +0.000 C 
ATOM     19  C   UNL     1       4.047  16.334  18.542  0.00  0.00    +0.000 C 
ATOM     20  C   UNL     1       3.450  14.989  18.111  0.00  0.00    +0.000 C 
BRANCH  15  26
ATOM     21  C   UNL     1      -1.007  10.778  22.815  0.00  0.00    +0.000 C 
ATOM     22  N   UNL     1      -0.744  11.430  21.536  0.00  0.00    +0.000 NA
ATOM     23  C   UNL     1       0.068  10.569  20.644  0.00  0.00    +0.000 C 
ATOM     24  C   UNL     1       0.410  11.250  19.297  0.00  0.00    +0.000 C 
ATOM     25  N   UNL     1       0.968  12.585  19.511  0.00  0.00    +0.000 N 
ATOM     26  C   UNL     1       2.149  12.952  18.879  0.00  0.00    +0.000 C 
ATOM     27  O   UNL     1       2.706  12.227  18.053  0.00  0.00    +0.000 OA
ATOM     28  C   UNL     1       0.176  13.425  20.411  0.00  0.00    +0.000 C 
ATOM     29  C   UNL     1      -0.050  12.713  21.750  0.00  0.00    +0.000 C 
ENDBRANCH  15  26
ENDBRANCH   1  18
BRANCH   1  30
ATOM     30  C   UNL     1       7.268  15.977  20.700  0.00  0.00    +0.000 C 
ATOM     31  C   UNL     1       6.727  16.139  22.100  0.00  0.00    +0.000 C 
ATOM     32  C   UNL     1       7.673  15.027  21.803  0.00  0.00    +0.000 C 
ENDBRANCH   1  30
TORSDOF 5
ENDMDL
MODEL 7
REMARK VINA RESULT:      -6.6      0.621      1.732
REMARK  Name = 
REMARK  6 active torsions:
REMARK  status: ('A' for Active; 'I' for Inactive)
REMARK    1  A    between atoms: C_1  and  N_2
REMARK    2  A    between atoms: C_6  and  C_8
REMARK    3  A    between atoms: C_11  and  N_12
REMARK    4  A    between atoms: N_12  and  C_24
REMARK    5  A    between atoms: C_13  and  C_15
REMARK    6  A    between atoms: C_19  and  N_20
REMARK                            x       y       z     vdW  Elec       q    Type
REMARK                         _______ _______ _______ _____ _____    ______ ____
ROOT
ATOM      1  N   UNL     1       1.455   9.362  19.707  0.00  0.00    +0.000 N 
ATOM      2  C   UNL     1       1.954   8.943  18.447  0.00  0.00    +0.000 C 
ATOM      3  O   UNL     1       2.004   9.656  17.446  0.00  0.00    +0.000 OA
ENDROOT
BRANCH   2   4
ATOM      4  C   UNL     1       2.587   7.599  18.268  0.00  0.00    +0.000 A 
ATOM      5  C   UNL     1       3.827   7.381  17.672  0.00  0.00    +0.000 A 
ATOM      6  C   UNL     1       4.175   6.102  17.237  0.00  0.00    +0.000 A 
ATOM      7 CL   UNL     1       5.598   5.939  16.264  0.00  0.00    +0.000 Cl
ATOM      8  C   UNL     1       3.379   4.984  17.536  0.00  0.00    +0.000 A 
ATOM      9  C   UNL     1       2.238   5.198  18.324  0.00  0.00    +0.000 A 
ATOM     10 CL   UNL     1       1.257   3.868  18.835  0.00  0.00    +0.000 Cl
ATOM     11  C   UNL     1       1.846   6.484  18.690  0.00  0.00    +0.000 A 
BRANCH   8  12
ATOM     12  N   UNL     1       3.570   3.761  16.862  0.00  0.00    +0.000 N 
ATOM     13  H   UNL     1       3.800   2.976  17.468  0.00  0.00    +0.000 HD
ATOM     14  H   UNL     1       2.860   3.558  16.159  0.00  0.00    +0.000 HD
ENDBRANCH   8  12
ENDBRANCH   2   4
BRANCH   1  18
ATOM     15  C   UNL     1      -1.826  11.178  18.755  0.00  0.00    +0.000 C 
ATOM     16  C   UNL     1      -1.589  10.166  19.880  0.00  0.00    +0.000 C 
ATOM     17  C   UNL     1      -0.431  10.642  20.752  0.00  0.00    +0.000 C 
ATOM     18  C   UNL     1       0.880  10.722  19.941  0.00  0.00    +0.000 C 
ATOM     19  C   UNL     1       0.655  11.657  18.735  0.00  0.00    +0.000 C 
ATOM     20  C   UNL     1      -0.570  11.292  17.887  0.00  0.00    +0.000 C 
BRANCH  15  26
ATOM     21  C   UNL     1      -7.731  11.350  20.778  0.00  0.00    +0.000 C 
ATOM     22  N   UNL     1      -6.746  11.720  19.766  0.00  0.00    +0.000 NA
ATOM     23  C   UNL     1      -6.588  10.656  18.747  0.00  0.00    +0.000 C 
ATOM     24  C   UNL     1      -5.513  10.993  17.685  0.00  0.00    +0.000 C 
ATOM     25  N   UNL     1      -4.261  11.407  18.320  0.00  0.00    +0.000 N 
ATOM     26  C   UNL     1      -3.062  10.825  17.930  0.00  0.00    +0.000 C 
ATOM     27  O   UNL     1      -2.990  10.033  16.990  0.00  0.00    +0.000 OA
ATOM     28  C   UNL     1      -4.424  12.442  19.342  0.00  0.00    +0.000 C 
ATOM     29  C   UNL     1      -5.443  11.998  20.397  0.00  0.00    +0.000 C 
ENDBRANCH  15  26
ENDBRANCH   1  18
BRANCH   1  30
ATOM     30  C   UNL     1       1.563   8.530  20.901  0.00  0.00    +0.000 C 
ATOM     31  C   UNL     1       1.276   9.125  22.258  0.00  0.00    +0.000 C 
ATOM     32  C   UNL     1       0.422   8.017  21.747  0.00  0.00    +0.000 C 
ENDBRANCH   1  30
TORSDOF 5
ENDMDL
MODEL 8
REMARK VINA RESULT:      -6.6      4.256      8.577
REMARK  Name = 
REMARK  6 active torsions:
REMARK  status: ('A' for Active; 'I' for Inactive)
REMARK    1  A    between atoms: C_1  and  N_2
REMARK    2  A    between atoms: C_6  and  C_8
REMARK    3  A    between atoms: C_11  and  N_12
REMARK    4  A    between atoms: N_12  and  C_24
REMARK    5  A    between atoms: C_13  and  C_15
REMARK    6  A    between atoms: C_19  and  N_20
REMARK                            x       y       z     vdW  Elec       q    Type
REMARK                         _______ _______ _______ _____ _____    ______ ____
ROOT
ATOM      1  N   UNL     1       0.433  11.549  20.116  0.00  0.00    +0.000 N 
ATOM      2  C   UNL     1       1.518  12.081  19.374  0.00  0.00    +0.000 C 
ATOM      3  O   UNL     1       1.987  11.564  18.360  0.00  0.00    +0.000 OA
ENDROOT
BRANCH   2   4
ATOM      4  C   UNL     1       2.114  13.412  19.709  0.00  0.00    +0.000 A 
ATOM      5  C   UNL     1       2.979  13.646  20.775  0.00  0.00    +0.000 A 
ATOM      6  C   UNL     1       3.201  14.951  21.217  0.00  0.00    +0.000 A 
ATOM      7 CL   UNL     1       4.059  15.164  22.706  0.00  0.00    +0.000 Cl
ATOM      8  C   UNL     1       2.711  16.060  20.507  0.00  0.00    +0.000 A 
ATOM      9  C   UNL     1       2.019  15.804  19.312  0.00  0.00    +0.000 A 
ATOM     10 CL   UNL     1       1.473  17.107  18.314  0.00  0.00    +0.000 Cl
ATOM     11  C   UNL     1       1.726  14.501  18.914  0.00  0.00    +0.000 A 
BRANCH   8  12
ATOM     12  N   UNL     1       2.683  17.340  21.095  0.00  0.00    +0.000 N 
ATOM     13  H   UNL     1       2.821  18.108  20.442  0.00  0.00    +0.000 HD
ATOM     14  H   UNL     1       1.919  17.478  21.756  0.00  0.00    +0.000 HD
ENDBRANCH   8  12
ENDBRANCH   2   4
BRANCH   1  18
ATOM     15  C   UNL     1       1.569   8.171  18.609  0.00  0.00    +0.000 C 
ATOM     16  C   UNL     1       1.722   8.671  20.049  0.00  0.00    +0.000 C 
ATOM     17  C   UNL     1       0.356   9.087  20.587  0.00  0.00    +0.000 C 
ATOM     18  C   UNL     1      -0.232  10.256  19.768  0.00  0.00    +0.000 C 
ATOM     19  C   UNL     1      -0.310   9.829  18.288  0.00  0.00    +0.000 C 
ATOM     20  C   UNL     1       1.012   9.292  17.727  0.00  0.00    +0.000 C 
BRANCH  15  26
ATOM     21  C   UNL     1       4.019   2.600  20.008  0.00  0.00    +0.000 C 
ATOM     22  N   UNL     1       3.620   3.570  18.992  0.00  0.00    +0.000 NA
ATOM     23  C   UNL     1       4.700   4.547  18.719  0.00  0.00    +0.000 C 
ATOM     24  C   UNL     1       4.292   5.621  17.683  0.00  0.00    +0.000 C 
ATOM     25  N   UNL     1       3.008   6.229  18.034  0.00  0.00    +0.000 N 
ATOM     26  C   UNL     1       2.882   7.612  18.065  0.00  0.00    +0.000 C 
ATOM     27  O   UNL     1       3.790   8.364  17.707  0.00  0.00    +0.000 OA
ATOM     28  C   UNL     1       1.950   5.261  18.326  0.00  0.00    +0.000 C 
ATOM     29  C   UNL     1       2.402   4.284  19.417  0.00  0.00    +0.000 C 
ENDBRANCH  15  26
ENDBRANCH   1  18
BRANCH   1  30
ATOM     30  C   UNL     1      -0.187  12.279  21.217  0.00  0.00    +0.000 C 
ATOM     31  C   UNL     1      -1.668  12.136  21.471  0.00  0.00    +0.000 C 
ATOM     32  C   UNL     1      -0.697  11.692  22.511  0.00  0.00    +0.000 C 
ENDBRANCH   1  30
TORSDOF 5
ENDMDL
MODEL 9
REMARK VINA RESULT:      -6.5      3.262      4.308
REMARK  Name = 
REMARK  6 active torsions:
REMARK  status: ('A' for Active; 'I' for Inactive)
REMARK    1  A    between atoms: C_1  and  N_2
REMARK    2  A    between atoms: C_6  and  C_8
REMARK    3  A    between atoms: C_11  and  N_12
REMARK    4  A    between atoms: N_12  and  C_24
REMARK    5  A    between atoms: C_13  and  C_15
REMARK    6  A    between atoms: C_19  and  N_20
REMARK                            x       y       z     vdW  Elec       q    Type
REMARK                         _______ _______ _______ _____ _____    ______ ____
ROOT
ATOM      1  N   UNL     1       1.510   9.015  18.974  0.00  0.00    +0.000 N 
ATOM      2  C   UNL     1       2.150   8.127  18.072  0.00  0.00    +0.000 C 
ATOM      3  O   UNL     1       2.352   8.370  16.883  0.00  0.00    +0.000 OA
ENDROOT
BRANCH   2   4
ATOM      4  C   UNL     1       2.751   6.840  18.540  0.00  0.00    +0.000 A 
ATOM      5  C   UNL     1       4.054   6.701  19.013  0.00  0.00    +0.000 A 
ATOM      6  C   UNL     1       4.633   5.434  19.093  0.00  0.00    +0.000 A 
ATOM      7 CL   UNL     1       6.331   5.341  19.422  0.00  0.00    +0.000 Cl
ATOM      8  C   UNL     1       3.881   4.268  18.874  0.00  0.00    +0.000 A 
ATOM      9  C   UNL     1       2.512   4.426  18.607  0.00  0.00    +0.000 A 
ATOM     10 CL   UNL     1       1.483   3.046  18.432  0.00  0.00    +0.000 Cl
ATOM     11  C   UNL     1       1.951   5.691  18.445  0.00  0.00    +0.000 A 
BRANCH   8  12
ATOM     12  N   UNL     1       4.516   3.026  18.670  0.00  0.00    +0.000 N 
ATOM     13  H   UNL     1       4.151   2.489  17.887  0.00  0.00    +0.000 HD
ATOM     14  H   UNL     1       5.533   3.065  18.718  0.00  0.00    +0.000 HD
ENDBRANCH   8  12
ENDBRANCH   2   4
BRANCH   1  18
ATOM     15  C   UNL     1      -0.238  11.971  20.757  0.00  0.00    +0.000 C 
ATOM     16  C   UNL     1       1.256  11.635  20.711  0.00  0.00    +0.000 C 
ATOM     17  C   UNL     1       1.699  11.499  19.257  0.00  0.00    +0.000 C 
ATOM     18  C   UNL     1       0.959  10.340  18.556  0.00  0.00    +0.000 C 
ATOM     19  C   UNL     1      -0.559  10.588  18.667  0.00  0.00    +0.000 C 
ATOM     20  C   UNL     1      -1.043  10.847  20.099  0.00  0.00    +0.000 C 
BRANCH  15  26
ATOM     21  C   UNL     1      -0.925  17.626  23.315  0.00  0.00    +0.000 C 
ATOM     22  N   UNL     1      -1.482  16.307  23.033  0.00  0.00    +0.000 NA
ATOM     23  C   UNL     1      -1.099  15.321  24.071  0.00  0.00    +0.000 C 
ATOM     24  C   UNL     1      -1.631  13.898  23.777  0.00  0.00    +0.000 C 
ATOM     25  N   UNL     1      -1.304  13.488  22.411  0.00  0.00    +0.000 N 
ATOM     26  C   UNL     1      -0.708  12.254  22.182  0.00  0.00    +0.000 C 
ATOM     27  O   UNL     1      -0.528  11.433  23.083  0.00  0.00    +0.000 OA
ATOM     28  C   UNL     1      -1.663  14.473  21.390  0.00  0.00    +0.000 C 
ATOM     29  C   UNL     1      -1.033  15.833  21.711  0.00  0.00    +0.000 C 
ENDBRANCH  15  26
ENDBRANCH   1  18
BRANCH   1  30
ATOM     30  C   UNL     1       1.434   8.745  20.407  0.00  0.00    +0.000 C 
ATOM     31  C   UNL     1       0.146   8.233  21.005  0.00  0.00    +0.000 C 
ATOM     32  C   UNL     1       1.372   7.387  21.065  0.00  0.00    +0.000 C 
ENDBRANCH   1  30
TORSDOF 5
ENDMDL
