MODEL 1
REMARK VINA RESULT:      -8.2      0.000      0.000
REMARK  Name = 
REMARK  6 active torsions:
REMARK  status: ('A' for Active; 'I' for Inactive)
REMARK    1  A    between atoms: C_1  and  C_2
REMARK    2  A    between atoms: C_5  and  C_6
REMARK    3  A    between atoms: N_11  and  C_12
REMARK    4  A    between atoms: C_12  and  C_13
REMARK    5  A    between atoms: N_15  and  C_16
REMARK    6  A    between atoms: C_16  and  C_17
REMARK                            x       y       z     vdW  Elec       q    Type
REMARK                         _______ _______ _______ _____ _____    ______ ____
ROOT
ATOM      1  C   UNL     1       2.601   6.067  18.620  0.00  0.00    +0.000 A 
ATOM      2  C   UNL     1       1.652   5.134  17.972  0.00  0.00    +0.000 A 
ATOM      3  C   UNL     1       2.112   3.923  17.653  0.00  0.00    +0.000 A 
ATOM      4  C   UNL     1       3.495   3.529  17.977  0.00  0.00    +0.000 A 
ATOM      5  O   UNL     1       3.893   2.419  17.630  0.00  0.00    +0.000 OA
ATOM      6  N   UNL     1       4.249   4.470  18.660  0.00  0.00    +0.000 N 
ATOM      7  N   UNL     1       3.813   5.746  18.961  0.00  0.00    +0.000 NA
ENDROOT
BRANCH   1  12
ATOM      8  C   UNL     1       0.537  11.412  19.547  0.00  0.00    +0.000 C 
ATOM      9  C   UNL     1       1.099  10.042  19.306  0.00  0.00    +0.000 A 
ATOM     10  C   UNL     1       1.536   9.651  18.034  0.00  0.00    +0.000 A 
ATOM     11  C   UNL     1       2.037   8.363  17.823  0.00  0.00    +0.000 A 
ATOM     12  C   UNL     1       2.112   7.452  18.884  0.00  0.00    +0.000 A 
ATOM     13  C   UNL     1       1.672   7.841  20.154  0.00  0.00    +0.000 A 
ATOM     14  C   UNL     1       1.174   9.129  20.363  0.00  0.00    +0.000 A 
ENDBRANCH   1  12
BRANCH   6  15
ATOM     15  C   UNL     1       5.595   4.115  19.097  0.00  0.00    +0.000 C 
BRANCH  15  16
ATOM     16  C   UNL     1       6.660   4.612  18.114  0.00  0.00    +0.000 C 
ATOM     17  O   UNL     1       7.849   4.750  18.392  0.00  0.00    +0.000 OA
ATOM     18  N   UNL     1       6.174   4.883  16.844  0.00  0.00    +0.000 N 
ATOM     19  H   UNL     1       5.179   4.996  16.695  0.00  0.00    +0.000 HD
BRANCH  18  20
ATOM     20  C   UNL     1       7.075   5.427  15.856  0.00  0.00    +0.000 C 
BRANCH  20  21
ATOM     21  C   UNL     1       6.819   4.835  14.520  0.00  0.00    +0.000 A 
ATOM     22  C   UNL     1       5.977   3.833  14.078  0.00  0.00    +0.000 A 
ATOM     23  C   UNL     1       6.272   3.636  12.709  0.00  0.00    +0.000 A 
ATOM     24  C   UNL     1       7.258   4.540  12.395  0.00  0.00    +0.000 A 
ATOM     25  O   UNL     1       7.591   5.282  13.485  0.00  0.00    +0.000 OA
ENDBRANCH  20  21
ENDBRANCH  18  20
ENDBRANCH  15  16
ENDBRANCH   6  15
TORSDOF 5
ENDMDL
MODEL 2
REMARK VINA RESULT:      -8.1      2.052      3.036
REMARK  Name = 
REMARK  6 active torsions:
REMARK  status: ('A' for Active; 'I' for Inactive)
REMARK    1  A    between atoms: C_1  and  C_2
REMARK    2  A    between atoms: C_5  and  C_6
REMARK    3  A    between atoms: N_11  and  C_12
REMARK    4  A    between atoms: C_12  and  C_13
REMARK    5  A    between atoms: N_15  and  C_16
REMARK    6  A    between atoms: C_16  and  C_17
REMARK                            x       y       z     vdW  Elec       q    Type
REMARK                         _______ _______ _______ _____ _____    ______ ____
ROOT
ATOM      1  C   UNL     1       2.460   6.061  19.259  0.00  0.00    +0.000 A 
ATOM      2  C   UNL     1       2.285   5.404  20.573  0.00  0.00    +0.000 A 
ATOM      3  C   UNL     1       2.521   4.093  20.633  0.00  0.00    +0.000 A 
ATOM      4  C   UNL     1       2.980   3.351  19.444  0.00  0.00    +0.000 A 
ATOM      5  O   UNL     1       3.148   2.136  19.530  0.00  0.00    +0.000 OA
ATOM      6  N   UNL     1       3.184   4.106  18.301  0.00  0.00    +0.000 N 
ATOM      7  N   UNL     1       2.903   5.455  18.199  0.00  0.00    +0.000 NA
ENDROOT
BRANCH   1  12
ATOM      8  C   UNL     1       0.901  11.635  18.809  0.00  0.00    +0.000 C 
ATOM      9  C   UNL     1       1.335  10.203  18.927  0.00  0.00    +0.000 A 
ATOM     10  C   UNL     1       1.923   9.532  17.848  0.00  0.00    +0.000 A 
ATOM     11  C   UNL     1       2.301   8.192  17.969  0.00  0.00    +0.000 A 
ATOM     12  C   UNL     1       2.097   7.507  19.173  0.00  0.00    +0.000 A 
ATOM     13  C   UNL     1       1.504   8.175  20.251  0.00  0.00    +0.000 A 
ATOM     14  C   UNL     1       1.131   9.516  20.128  0.00  0.00    +0.000 A 
ENDBRANCH   1  12
BRANCH   6  15
ATOM     15  C   UNL     1       3.728   3.457  17.112  0.00  0.00    +0.000 C 
BRANCH  15  16
ATOM     16  C   UNL     1       5.157   3.922  16.816  0.00  0.00    +0.000 C 
ATOM     17  O   UNL     1       5.621   4.057  15.685  0.00  0.00    +0.000 OA
ATOM     18  N   UNL     1       5.905   4.209  17.948  0.00  0.00    +0.000 N 
ATOM     19  H   UNL     1       5.603   3.872  18.853  0.00  0.00    +0.000 HD
BRANCH  18  20
ATOM     20  C   UNL     1       7.289   4.586  17.790  0.00  0.00    +0.000 C 
BRANCH  20  21
ATOM     21  C   UNL     1       7.448   6.060  17.845  0.00  0.00    +0.000 A 
ATOM     22  C   UNL     1       6.995   7.088  17.042  0.00  0.00    +0.000 A 
ATOM     23  C   UNL     1       7.577   8.275  17.543  0.00  0.00    +0.000 A 
ATOM     24  C   UNL     1       8.332   7.904  18.630  0.00  0.00    +0.000 A 
ATOM     25  O   UNL     1       8.252   6.561  18.830  0.00  0.00    +0.000 OA
ENDBRANCH  20  21
ENDBRANCH  18  20
ENDBRANCH  15  16
ENDBRANCH   6  15
TORSDOF 5
ENDMDL
MODEL 3
REMARK VINA RESULT:      -8.0      0.204      1.007
REMARK  Name = 
REMARK  6 active torsions:
REMARK  status: ('A' for Active; 'I' for Inactive)
REMARK    1  A    between atoms: C_1  and  C_2
REMARK    2  A    between atoms: C_5  and  C_6
REMARK    3  A    between atoms: N_11  and  C_12
REMARK    4  A    between atoms: C_12  and  C_13
REMARK    5  A    between atoms: N_15  and  C_16
REMARK    6  A    between atoms: C_16  and  C_17
REMARK                            x       y       z     vdW  Elec       q    Type
REMARK                         _______ _______ _______ _____ _____    ______ ____
ROOT
ATOM      1  C   UNL     1       2.607   6.144  18.552  0.00  0.00    +0.000 A 
ATOM      2  C   UNL     1       1.692   5.155  17.938  0.00  0.00    +0.000 A 
ATOM      3  C   UNL     1       2.194   3.950  17.667  0.00  0.00    +0.000 A 
ATOM      4  C   UNL     1       3.589   3.615  18.009  0.00  0.00    +0.000 A 
ATOM      5  O   UNL     1       4.026   2.507  17.706  0.00  0.00    +0.000 OA
ATOM      6  N   UNL     1       4.307   4.607  18.658  0.00  0.00    +0.000 N 
ATOM      7  N   UNL     1       3.827   5.878  18.908  0.00  0.00    +0.000 NA
ENDROOT
BRANCH   1  12
ATOM      8  C   UNL     1       0.681  11.543  19.466  0.00  0.00    +0.000 C 
ATOM      9  C   UNL     1       1.149  10.137  19.232  0.00  0.00    +0.000 A 
ATOM     10  C   UNL     1       1.193   9.203  20.274  0.00  0.00    +0.000 A 
ATOM     11  C   UNL     1       1.652   7.903  20.041  0.00  0.00    +0.000 A 
ATOM     12  C   UNL     1       2.070   7.521  18.761  0.00  0.00    +0.000 A 
ATOM     13  C   UNL     1       2.031   8.455  17.719  0.00  0.00    +0.000 A 
ATOM     14  C   UNL     1       1.568   9.752  17.954  0.00  0.00    +0.000 A 
ENDBRANCH   1  12
BRANCH   6  15
ATOM     15  C   UNL     1       5.663   4.315  19.112  0.00  0.00    +0.000 C 
BRANCH  15  16
ATOM     16  C   UNL     1       6.704   4.639  18.034  0.00  0.00    +0.000 C 
ATOM     17  O   UNL     1       7.894   4.343  18.110  0.00  0.00    +0.000 OA
ATOM     18  N   UNL     1       6.185   5.291  16.926  0.00  0.00    +0.000 N 
ATOM     19  H   UNL     1       5.278   5.735  16.977  0.00  0.00    +0.000 HD
BRANCH  18  20
ATOM     20  C   UNL     1       7.089   5.710  15.881  0.00  0.00    +0.000 C 
BRANCH  20  21
ATOM     21  C   UNL     1       6.817   4.980  14.619  0.00  0.00    +0.000 A 
ATOM     22  C   UNL     1       6.016   3.898  14.309  0.00  0.00    +0.000 A 
ATOM     23  C   UNL     1       6.269   3.586  12.953  0.00  0.00    +0.000 A 
ATOM     24  C   UNL     1       7.190   4.506  12.513  0.00  0.00    +0.000 A 
ATOM     25  O   UNL     1       7.522   5.365  13.514  0.00  0.00    +0.000 OA
ENDBRANCH  20  21
ENDBRANCH  18  20
ENDBRANCH  15  16
ENDBRANCH   6  15
TORSDOF 5
ENDMDL
MODEL 4
REMARK VINA RESULT:      -7.9      1.392      1.553
REMARK  Name = 
REMARK  6 active torsions:
REMARK  status: ('A' for Active; 'I' for Inactive)
REMARK    1  A    between atoms: C_1  and  C_2
REMARK    2  A    between atoms: C_5  and  C_6
REMARK    3  A    between atoms: N_11  and  C_12
REMARK    4  A    between atoms: C_12  and  C_13
REMARK    5  A    between atoms: N_15  and  C_16
REMARK    6  A    between atoms: C_16  and  C_17
REMARK                            x       y       z     vdW  Elec       q    Type
REMARK                         _______ _______ _______ _____ _____    ______ ____
ROOT
ATOM      1  C   UNL     1       2.233   6.062  19.630  0.00  0.00    +0.000 A 
ATOM      2  C   UNL     1       1.800   5.483  20.922  0.00  0.00    +0.000 A 
ATOM      3  C   UNL     1       1.973   4.170  21.087  0.00  0.00    +0.000 A 
ATOM      4  C   UNL     1       2.610   3.352  20.038  0.00  0.00    +0.000 A 
ATOM      5  O   UNL     1       2.714   2.140  20.212  0.00  0.00    +0.000 OA
ATOM      6  N   UNL     1       3.044   4.038  18.915  0.00  0.00    +0.000 N 
ATOM      7  N   UNL     1       2.836   5.386  18.698  0.00  0.00    +0.000 NA
ENDROOT
BRANCH   1  12
ATOM      8  C   UNL     1       0.968  11.643  18.659  0.00  0.00    +0.000 C 
ATOM      9  C   UNL     1       1.326  10.208  18.911  0.00  0.00    +0.000 A 
ATOM     10  C   UNL     1       1.905   9.418  17.911  0.00  0.00    +0.000 A 
ATOM     11  C   UNL     1       2.211   8.076  18.158  0.00  0.00    +0.000 A 
ATOM     12  C   UNL     1       1.946   7.510  19.411  0.00  0.00    +0.000 A 
ATOM     13  C   UNL     1       1.362   8.298  20.410  0.00  0.00    +0.000 A 
ATOM     14  C   UNL     1       1.060   9.639  20.161  0.00  0.00    +0.000 A 
ENDBRANCH   1  12
BRANCH   6  15
ATOM     15  C   UNL     1       3.767   3.310  17.878  0.00  0.00    +0.000 C 
BRANCH  15  16
ATOM     16  C   UNL     1       5.139   3.933  17.599  0.00  0.00    +0.000 C 
ATOM     17  O   UNL     1       6.003   4.116  18.454  0.00  0.00    +0.000 OA
ATOM     18  N   UNL     1       5.348   4.267  16.269  0.00  0.00    +0.000 N 
ATOM     19  H   UNL     1       4.563   4.336  15.635  0.00  0.00    +0.000 HD
BRANCH  18  20
ATOM     20  C   UNL     1       6.578   4.930  15.904  0.00  0.00    +0.000 C 
BRANCH  20  21
ATOM     21  C   UNL     1       6.842   4.796  14.451  0.00  0.00    +0.000 A 
ATOM     22  C   UNL     1       6.344   3.954  13.476  0.00  0.00    +0.000 A 
ATOM     23  C   UNL     1       7.074   4.231  12.296  0.00  0.00    +0.000 A 
ATOM     24  C   UNL     1       7.955   5.235  12.616  0.00  0.00    +0.000 A 
ATOM     25  O   UNL     1       7.816   5.594  13.920  0.00  0.00    +0.000 OA
ENDBRANCH  20  21
ENDBRANCH  18  20
ENDBRANCH  15  16
ENDBRANCH   6  15
TORSDOF 5
ENDMDL
MODEL 5
REMARK VINA RESULT:      -7.8      2.043      3.121
REMARK  Name = 
REMARK  6 active torsions:
REMARK  status: ('A' for Active; 'I' for Inactive)
REMARK    1  A    between atoms: C_1  and  C_2
REMARK    2  A    between atoms: C_5  and  C_6
REMARK    3  A    between atoms: N_11  and  C_12
REMARK    4  A    between atoms: C_12  and  C_13
REMARK    5  A    between atoms: N_15  and  C_16
REMARK    6  A    between atoms: C_16  and  C_17
REMARK                            x       y       z     vdW  Elec       q    Type
REMARK                         _______ _______ _______ _____ _____    ______ ____
ROOT
ATOM      1  C   UNL     1       2.432   6.266  19.184  0.00  0.00    +0.000 A 
ATOM      2  C   UNL     1       2.439   5.688  20.546  0.00  0.00    +0.000 A 
ATOM      3  C   UNL     1       2.711   4.386  20.653  0.00  0.00    +0.000 A 
ATOM      4  C   UNL     1       3.034   3.580  19.461  0.00  0.00    +0.000 A 
ATOM      5  O   UNL     1       3.239   2.376  19.597  0.00  0.00    +0.000 OA
ATOM      6  N   UNL     1       3.075   4.267  18.258  0.00  0.00    +0.000 N 
ATOM      7  N   UNL     1       2.752   5.602  18.113  0.00  0.00    +0.000 NA
ENDROOT
BRANCH   1  12
ATOM      8  C   UNL     1       1.006  11.881  18.826  0.00  0.00    +0.000 C 
ATOM      9  C   UNL     1       1.344  10.422  18.915  0.00  0.00    +0.000 A 
ATOM     10  C   UNL     1       1.077   9.685  20.075  0.00  0.00    +0.000 A 
ATOM     11  C   UNL     1       1.419   8.332  20.149  0.00  0.00    +0.000 A 
ATOM     12  C   UNL     1       2.029   7.697  19.060  0.00  0.00    +0.000 A 
ATOM     13  C   UNL     1       2.301   8.434  17.901  0.00  0.00    +0.000 A 
ATOM     14  C   UNL     1       1.955   9.786  17.829  0.00  0.00    +0.000 A 
ENDBRANCH   1  12
BRANCH   6  15
ATOM     15  C   UNL     1       3.480   3.554  17.051  0.00  0.00    +0.000 C 
BRANCH  15  16
ATOM     16  C   UNL     1       4.833   4.048  16.528  0.00  0.00    +0.000 C 
ATOM     17  O   UNL     1       5.027   4.456  15.385  0.00  0.00    +0.000 OA
ATOM     18  N   UNL     1       5.849   4.018  17.472  0.00  0.00    +0.000 N 
ATOM     19  H   UNL     1       5.742   3.468  18.314  0.00  0.00    +0.000 HD
BRANCH  18  20
ATOM     20  C   UNL     1       7.184   4.392  17.068  0.00  0.00    +0.000 C 
BRANCH  20  21
ATOM     21  C   UNL     1       7.521   5.755  17.546  0.00  0.00    +0.000 A 
ATOM     22  C   UNL     1       7.970   6.245  18.757  0.00  0.00    +0.000 A 
ATOM     23  C   UNL     1       7.995   7.654  18.635  0.00  0.00    +0.000 A 
ATOM     24  C   UNL     1       7.582   7.936  17.355  0.00  0.00    +0.000 A 
ATOM     25  O   UNL     1       7.302   6.789  16.680  0.00  0.00    +0.000 OA
ENDBRANCH  20  21
ENDBRANCH  18  20
ENDBRANCH  15  16
ENDBRANCH   6  15
TORSDOF 5
ENDMDL
MODEL 6
REMARK VINA RESULT:      -7.8      1.223      1.583
REMARK  Name = 
REMARK  6 active torsions:
REMARK  status: ('A' for Active; 'I' for Inactive)
REMARK    1  A    between atoms: C_1  and  C_2
REMARK    2  A    between atoms: C_5  and  C_6
REMARK    3  A    between atoms: N_11  and  C_12
REMARK    4  A    between atoms: C_12  and  C_13
REMARK    5  A    between atoms: N_15  and  C_16
REMARK    6  A    between atoms: C_16  and  C_17
REMARK                            x       y       z     vdW  Elec       q    Type
REMARK                         _______ _______ _______ _____ _____    ______ ____
ROOT
ATOM      1  C   UNL     1       3.043   5.837  19.551  0.00  0.00    +0.000 A 
ATOM      2  C   UNL     1       2.314   4.749  20.239  0.00  0.00    +0.000 A 
ATOM      3  C   UNL     1       2.922   3.564  20.317  0.00  0.00    +0.000 A 
ATOM      4  C   UNL     1       4.281   3.373  19.775  0.00  0.00    +0.000 A 
ATOM      5  O   UNL     1       4.791   2.256  19.830  0.00  0.00    +0.000 OA
ATOM      6  N   UNL     1       4.880   4.499  19.233  0.00  0.00    +0.000 N 
ATOM      7  N   UNL     1       4.256   5.724  19.098  0.00  0.00    +0.000 NA
ENDROOT
BRANCH   1  12
ATOM      8  C   UNL     1       0.365  10.955  18.983  0.00  0.00    +0.000 C 
ATOM      9  C   UNL     1       1.029   9.618  19.131  0.00  0.00    +0.000 A 
ATOM     10  C   UNL     1       1.043   8.947  20.359  0.00  0.00    +0.000 A 
ATOM     11  C   UNL     1       1.686   7.711  20.483  0.00  0.00    +0.000 A 
ATOM     12  C   UNL     1       2.318   7.130  19.378  0.00  0.00    +0.000 A 
ATOM     13  C   UNL     1       2.309   7.803  18.150  0.00  0.00    +0.000 A 
ATOM     14  C   UNL     1       1.663   9.036  18.028  0.00  0.00    +0.000 A 
ENDBRANCH   1  12
BRANCH   6  15
ATOM     15  C   UNL     1       6.259   4.409  18.764  0.00  0.00    +0.000 C 
BRANCH  15  16
ATOM     16  C   UNL     1       6.471   5.205  17.472  0.00  0.00    +0.000 C 
ATOM     17  O   UNL     1       7.463   5.892  17.236  0.00  0.00    +0.000 OA
ATOM     18  N   UNL     1       5.442   5.073  16.552  0.00  0.00    +0.000 N 
ATOM     19  H   UNL     1       4.543   4.712  16.845  0.00  0.00    +0.000 HD
BRANCH  18  20
ATOM     20  C   UNL     1       5.501   5.838  15.329  0.00  0.00    +0.000 C 
BRANCH  20  21
ATOM     21  C   UNL     1       5.921   4.986  14.189  0.00  0.00    +0.000 A 
ATOM     22  C   UNL     1       5.336   3.909  13.551  0.00  0.00    +0.000 A 
ATOM     23  C   UNL     1       6.279   3.441  12.607  0.00  0.00    +0.000 A 
ATOM     24  C   UNL     1       7.370   4.271  12.711  0.00  0.00    +0.000 A 
ATOM     25  O   UNL     1       7.159   5.220  13.662  0.00  0.00    +0.000 OA
ENDBRANCH  20  21
ENDBRANCH  18  20
ENDBRANCH  15  16
ENDBRANCH   6  15
TORSDOF 5
ENDMDL
MODEL 7
REMARK VINA RESULT:      -7.8      1.374      1.834
REMARK  Name = 
REMARK  6 active torsions:
REMARK  status: ('A' for Active; 'I' for Inactive)
REMARK    1  A    between atoms: C_1  and  C_2
REMARK    2  A    between atoms: C_5  and  C_6
REMARK    3  A    between atoms: N_11  and  C_12
REMARK    4  A    between atoms: C_12  and  C_13
REMARK    5  A    between atoms: N_15  and  C_16
REMARK    6  A    between atoms: C_16  and  C_17
REMARK                            x       y       z     vdW  Elec       q    Type
REMARK                         _______ _______ _______ _____ _____    ______ ____
ROOT
ATOM      1  C   UNL     1       2.253   6.187  19.575  0.00  0.00    +0.000 A 
ATOM      2  C   UNL     1       1.916   5.651  20.912  0.00  0.00    +0.000 A 
ATOM      3  C   UNL     1       2.144   4.353  21.122  0.00  0.00    +0.000 A 
ATOM      4  C   UNL     1       2.747   3.511  20.072  0.00  0.00    +0.000 A 
ATOM      5  O   UNL     1       2.903   2.311  20.290  0.00  0.00    +0.000 OA
ATOM      6  N   UNL     1       3.092   4.161  18.898  0.00  0.00    +0.000 N 
ATOM      7  N   UNL     1       2.825   5.491  18.638  0.00  0.00    +0.000 NA
ENDROOT
BRANCH   1  12
ATOM      8  C   UNL     1       1.041  11.791  18.673  0.00  0.00    +0.000 C 
ATOM      9  C   UNL     1       1.323  10.336  18.904  0.00  0.00    +0.000 A 
ATOM     10  C   UNL     1       1.035   9.727  20.131  0.00  0.00    +0.000 A 
ATOM     11  C   UNL     1       1.325   8.375  20.336  0.00  0.00    +0.000 A 
ATOM     12  C   UNL     1       1.904   7.614  19.312  0.00  0.00    +0.000 A 
ATOM     13  C   UNL     1       2.198   8.224  18.087  0.00  0.00    +0.000 A 
ATOM     14  C   UNL     1       1.903   9.574  17.885  0.00  0.00    +0.000 A 
ENDBRANCH   1  12
BRANCH   6  15
ATOM     15  C   UNL     1       3.780   3.412  17.851  0.00  0.00    +0.000 C 
BRANCH  15  16
ATOM     16  C   UNL     1       5.196   3.944  17.610  0.00  0.00    +0.000 C 
ATOM     17  O   UNL     1       5.980   4.256  18.504  0.00  0.00    +0.000 OA
ATOM     18  N   UNL     1       5.547   4.032  16.271  0.00  0.00    +0.000 N 
ATOM     19  H   UNL     1       4.831   4.006  15.557  0.00  0.00    +0.000 HD
BRANCH  18  20
ATOM     20  C   UNL     1       6.832   4.590  15.925  0.00  0.00    +0.000 C 
BRANCH  20  21
ATOM     21  C   UNL     1       7.003   4.659  14.453  0.00  0.00    +0.000 A 
ATOM     22  C   UNL     1       6.474   3.928  13.408  0.00  0.00    +0.000 A 
ATOM     23  C   UNL     1       7.110   4.390  12.232  0.00  0.00    +0.000 A 
ATOM     24  C   UNL     1       7.970   5.385  12.628  0.00  0.00    +0.000 A 
ATOM     25  O   UNL     1       7.906   5.565  13.974  0.00  0.00    +0.000 OA
ENDBRANCH  20  21
ENDBRANCH  18  20
ENDBRANCH  15  16
ENDBRANCH   6  15
TORSDOF 5
ENDMDL
MODEL 8
REMARK VINA RESULT:      -7.8      1.922      3.127
REMARK  Name = 
REMARK  6 active torsions:
REMARK  status: ('A' for Active; 'I' for Inactive)
REMARK    1  A    between atoms: C_1  and  C_2
REMARK    2  A    between atoms: C_5  and  C_6
REMARK    3  A    between atoms: N_11  and  C_12
REMARK    4  A    between atoms: C_12  and  C_13
REMARK    5  A    between atoms: N_15  and  C_16
REMARK    6  A    between atoms: C_16  and  C_17
REMARK                            x       y       z     vdW  Elec       q    Type
REMARK                         _______ _______ _______ _____ _____    ______ ____
ROOT
ATOM      1  C   UNL     1       2.757   5.587  18.531  0.00  0.00    +0.000 A 
ATOM      2  C   UNL     1       2.202   4.527  19.403  0.00  0.00    +0.000 A 
ATOM      3  C   UNL     1       2.542   3.268  19.121  0.00  0.00    +0.000 A 
ATOM      4  C   UNL     1       3.466   2.964  18.013  0.00  0.00    +0.000 A 
ATOM      5  O   UNL     1       3.722   1.788  17.759  0.00  0.00    +0.000 OA
ATOM      6  N   UNL     1       3.978   4.057  17.333  0.00  0.00    +0.000 N 
ATOM      7  N   UNL     1       3.607   5.366  17.573  0.00  0.00    +0.000 NA
ENDROOT
BRANCH   1  12
ATOM      8  C   UNL     1       0.798  10.976  19.429  0.00  0.00    +0.000 C 
ATOM      9  C   UNL     1       1.334   9.595  19.195  0.00  0.00    +0.000 A 
ATOM     10  C   UNL     1       1.774   9.192  17.929  0.00  0.00    +0.000 A 
ATOM     11  C   UNL     1       2.250   7.893  17.725  0.00  0.00    +0.000 A 
ATOM     12  C   UNL     1       2.295   6.983  18.788  0.00  0.00    +0.000 A 
ATOM     13  C   UNL     1       1.851   7.383  20.053  0.00  0.00    +0.000 A 
ATOM     14  C   UNL     1       1.379   8.682  20.255  0.00  0.00    +0.000 A 
ENDBRANCH   1  12
BRANCH   6  15
ATOM     15  C   UNL     1       4.971   3.837  16.286  0.00  0.00    +0.000 C 
BRANCH  15  16
ATOM     16  C   UNL     1       6.339   4.407  16.675  0.00  0.00    +0.000 C 
ATOM     17  O   UNL     1       7.301   4.479  15.913  0.00  0.00    +0.000 OA
ATOM     18  N   UNL     1       6.409   4.869  17.981  0.00  0.00    +0.000 N 
ATOM     19  H   UNL     1       5.707   4.591  18.654  0.00  0.00    +0.000 HD
BRANCH  18  20
ATOM     20  C   UNL     1       7.672   5.360  18.478  0.00  0.00    +0.000 C 
BRANCH  20  21
ATOM     21  C   UNL     1       7.798   6.821  18.260  0.00  0.00    +0.000 A 
ATOM     22  C   UNL     1       7.257   7.685  17.328  0.00  0.00    +0.000 A 
ATOM     23  C   UNL     1       7.846   8.949  17.562  0.00  0.00    +0.000 A 
ATOM     24  C   UNL     1       8.692   8.785  18.632  0.00  0.00    +0.000 A 
ATOM     25  O   UNL     1       8.663   7.499  19.071  0.00  0.00    +0.000 OA
ENDBRANCH  20  21
ENDBRANCH  18  20
ENDBRANCH  15  16
ENDBRANCH   6  15
TORSDOF 5
ENDMDL
MODEL 9
REMARK VINA RESULT:      -7.7      1.225      1.578
REMARK  Name = 
REMARK  6 active torsions:
REMARK  status: ('A' for Active; 'I' for Inactive)
REMARK    1  A    between atoms: C_1  and  C_2
REMARK    2  A    between atoms: C_5  and  C_6
REMARK    3  A    between atoms: N_11  and  C_12
REMARK    4  A    between atoms: C_12  and  C_13
REMARK    5  A    between atoms: N_15  and  C_16
REMARK    6  A    between atoms: C_16  and  C_17
REMARK                            x       y       z     vdW  Elec       q    Type
REMARK                         _______ _______ _______ _____ _____    ______ ____
ROOT
ATOM      1  C   UNL     1       2.807   6.014  18.560  0.00  0.00    +0.000 A 
ATOM      2  C   UNL     1       1.864   4.873  18.558  0.00  0.00    +0.000 A 
ATOM      3  C   UNL     1       2.340   3.692  18.160  0.00  0.00    +0.000 A 
ATOM      4  C   UNL     1       3.758   3.535  17.784  0.00  0.00    +0.000 A 
ATOM      5  O   UNL     1       4.148   2.440  17.384  0.00  0.00    +0.000 OA
ATOM      6  N   UNL     1       4.548   4.665  17.914  0.00  0.00    +0.000 N 
ATOM      7  N   UNL     1       4.071   5.910  18.278  0.00  0.00    +0.000 NA
ENDROOT
BRANCH   1  12
ATOM      8  C   UNL     1       0.463  11.173  19.815  0.00  0.00    +0.000 C 
ATOM      9  C   UNL     1       1.097   9.854  19.489  0.00  0.00    +0.000 A 
ATOM     10  C   UNL     1       1.543   9.563  18.195  0.00  0.00    +0.000 A 
ATOM     11  C   UNL     1       2.112   8.319  17.904  0.00  0.00    +0.000 A 
ATOM     12  C   UNL     1       2.245   7.352  18.908  0.00  0.00    +0.000 A 
ATOM     13  C   UNL     1       1.795   7.640  20.202  0.00  0.00    +0.000 A 
ATOM     14  C   UNL     1       1.230   8.885  20.490  0.00  0.00    +0.000 A 
ENDBRANCH   1  12
BRANCH   6  15
ATOM     15  C   UNL     1       5.979   4.562  17.650  0.00  0.00    +0.000 C 
BRANCH  15  16
ATOM     16  C   UNL     1       6.347   5.143  16.281  0.00  0.00    +0.000 C 
ATOM     17  O   UNL     1       6.428   6.345  16.038  0.00  0.00    +0.000 OA
ATOM     18  N   UNL     1       6.611   4.186  15.313  0.00  0.00    +0.000 N 
ATOM     19  H   UNL     1       6.313   3.229  15.452  0.00  0.00    +0.000 HD
BRANCH  18  20
ATOM     20  C   UNL     1       6.897   4.620  13.966  0.00  0.00    +0.000 C 
BRANCH  20  21
ATOM     21  C   UNL     1       6.204   3.762  12.974  0.00  0.00    +0.000 A 
ATOM     22  C   UNL     1       6.652   2.836  12.053  0.00  0.00    +0.000 A 
ATOM     23  C   UNL     1       5.521   2.433  11.305  0.00  0.00    +0.000 A 
ATOM     24  C   UNL     1       4.452   3.121  11.827  0.00  0.00    +0.000 A 
ATOM     25  O   UNL     1       4.853   3.923  12.849  0.00  0.00    +0.000 OA
ENDBRANCH  20  21
ENDBRANCH  18  20
ENDBRANCH  15  16
ENDBRANCH   6  15
TORSDOF 5
ENDMDL
