MODEL 1
REMARK VINA RESULT:      -9.0      0.000      0.000
REMARK  Name = 
REMARK  12 active torsions:
REMARK  status: ('A' for Active; 'I' for Inactive)
REMARK    1  A    between atoms: O_1  and  C_2
REMARK    2  A    between atoms: C_2  and  C_3
REMARK    3  A    between atoms: C_2  and  C_31
REMARK    4  A    between atoms: C_3  and  N_4
REMARK    5  A    between atoms: N_4  and  C_5
REMARK    6  A    between atoms: N_4  and  C_18
REMARK    7  A    between atoms: C_5  and  C_6
REMARK    8  A    between atoms: C_10  and  O_11
REMARK    9  A    between atoms: O_11  and  C_12
REMARK   10  A    between atoms: C_12  and  C_13
REMARK   11  A    between atoms: C_22  and  O_23
REMARK   12  A    between atoms: O_23  and  C_24
REMARK                            x       y       z     vdW  Elec       q    Type
REMARK                         _______ _______ _______ _____ _____    ______ ____
ROOT
ATOM      1  N   UNL     1       2.834   6.632  18.507  0.00  0.00    +0.000 N 
ENDROOT
BRANCH   1   2
ATOM      2  C   UNL     1       2.110   7.610  19.208  0.00  0.00    +0.000 A 
ATOM      3  C   UNL     1       1.848   7.499  20.575  0.00  0.00    +0.000 A 
ATOM      4  C   UNL     1       1.099   8.480  21.244  0.00  0.00    +0.000 A 
ATOM      5  C   UNL     1       0.566   9.567  20.543  0.00  0.00    +0.000 A 
ATOM      6  C   UNL     1       0.791   9.687  19.178  0.00  0.00    +0.000 A 
ATOM      7  C   UNL     1       1.600   8.739  18.549  0.00  0.00    +0.000 A 
BRANCH   6   8
ATOM      8  O   UNL     1       0.228  10.760  18.514  0.00  0.00    +0.000 OA
BRANCH   8   9
ATOM      9  C   UNL     1      -1.109  10.724  18.150  0.00  0.00    +0.000 A 
ATOM     10  C   UNL     1      -1.625   9.833  17.211  0.00  0.00    +0.000 A 
ATOM     11  C   UNL     1      -2.970   9.907  16.836  0.00  0.00    +0.000 A 
ATOM     12  C   UNL     1      -3.847  10.755  17.484  0.00  0.00    +0.000 A 
ATOM     13  C   UNL     1      -3.352  11.608  18.459  0.00  0.00    +0.000 A 
ATOM     14  C   UNL     1      -1.986  11.603  18.779  0.00  0.00    +0.000 A 
ENDBRANCH   8   9
ENDBRANCH   6   8
ENDBRANCH   1   2
BRANCH   1  15
ATOM     15  C   UNL     1       2.907   5.283  19.132  0.00  0.00    +0.000 C 
BRANCH  15  16
ATOM     16  C   UNL     1       1.931   4.247  18.551  0.00  0.00    +0.000 C 
BRANCH  16  17
ATOM     17  C   UNL     1       2.765   3.160  17.825  0.00  0.00    +0.000 C 
ATOM     18  F   UNL     1       3.932   2.884  18.447  0.00  0.00    +0.000 F 
ATOM     19  F   UNL     1       2.070   2.000  17.744  0.00  0.00    +0.000 F 
ATOM     20  F   UNL     1       3.074   3.512  16.551  0.00  0.00    +0.000 F 
ENDBRANCH  16  17
BRANCH  16  21
ATOM     21  O   UNL     1       1.109   3.694  19.603  0.00  0.00    +0.000 OA
ATOM     22  H   UNL     1       0.324   4.271  19.678  0.00  0.00    +0.000 HD
ENDBRANCH  16  21
ENDBRANCH  15  16
ENDBRANCH   1  15
BRANCH   1  23
ATOM     23  C   UNL     1       4.015   7.117  17.748  0.00  0.00    +0.000 C 
BRANCH  23  24
ATOM     24  C   UNL     1       5.065   6.117  17.231  0.00  0.00    +0.000 A 
ATOM     25  C   UNL     1       6.031   5.650  18.153  0.00  0.00    +0.000 A 
ATOM     26  C   UNL     1       7.166   4.942  17.741  0.00  0.00    +0.000 A 
ATOM     27  C   UNL     1       7.352   4.645  16.400  0.00  0.00    +0.000 A 
ATOM     28  C   UNL     1       6.382   5.011  15.480  0.00  0.00    +0.000 A 
ATOM     29  C   UNL     1       5.248   5.761  15.875  0.00  0.00    +0.000 A 
BRANCH  28  30
ATOM     30  O   UNL     1       6.674   4.589  14.194  0.00  0.00    +0.000 OA
BRANCH  30  31
ATOM     31  C   UNL     1       5.675   3.715  13.683  0.00  0.00    +0.000 C 
BRANCH  31  32
ATOM     32  C   UNL     1       5.742   3.367  12.194  0.00  0.00    +0.000 C 
ATOM     33  F   UNL     1       5.867   2.051  11.947  0.00  0.00    +0.000 F 
ATOM     34  F   UNL     1       4.623   3.796  11.556  0.00  0.00    +0.000 F 
ATOM     35  F   UNL     1       6.787   4.003  11.607  0.00  0.00    +0.000 F 
ENDBRANCH  31  32
ENDBRANCH  30  31
ENDBRANCH  28  30
ENDBRANCH  23  24
ENDBRANCH   1  23
TORSDOF 12
ENDMDL
MODEL 2
REMARK VINA RESULT:      -9.0      1.026      1.373
REMARK  Name = 
REMARK  12 active torsions:
REMARK  status: ('A' for Active; 'I' for Inactive)
REMARK    1  A    between atoms: O_1  and  C_2
REMARK    2  A    between atoms: C_2  and  C_3
REMARK    3  A    between atoms: C_2  and  C_31
REMARK    4  A    between atoms: C_3  and  N_4
REMARK    5  A    between atoms: N_4  and  C_5
REMARK    6  A    between atoms: N_4  and  C_18
REMARK    7  A    between atoms: C_5  and  C_6
REMARK    8  A    between atoms: C_10  and  O_11
REMARK    9  A    between atoms: O_11  and  C_12
REMARK   10  A    between atoms: C_12  and  C_13
REMARK   11  A    between atoms: C_22  and  O_23
REMARK   12  A    between atoms: O_23  and  C_24
REMARK                            x       y       z     vdW  Elec       q    Type
REMARK                         _______ _______ _______ _____ _____    ______ ____
ROOT
ATOM      1  N   UNL     1       2.748   6.535  18.505  0.00  0.00    +0.000 N 
ENDROOT
BRANCH   1   2
ATOM      2  C   UNL     1       2.036   7.522  19.206  0.00  0.00    +0.000 A 
ATOM      3  C   UNL     1       1.759   7.406  20.569  0.00  0.00    +0.000 A 
ATOM      4  C   UNL     1       1.022   8.396  21.238  0.00  0.00    +0.000 A 
ATOM      5  C   UNL     1       0.519   9.499  20.541  0.00  0.00    +0.000 A 
ATOM      6  C   UNL     1       0.760   9.625  19.179  0.00  0.00    +0.000 A 
ATOM      7  C   UNL     1       1.556   8.666  18.551  0.00  0.00    +0.000 A 
BRANCH   6   8
ATOM      8  O   UNL     1       0.225  10.714  18.518  0.00  0.00    +0.000 OA
BRANCH   8   9
ATOM      9  C   UNL     1      -1.117  10.722  18.171  0.00  0.00    +0.000 A 
ATOM     10  C   UNL     1      -1.677   9.837  17.252  0.00  0.00    +0.000 A 
ATOM     11  C   UNL     1      -3.023   9.955  16.892  0.00  0.00    +0.000 A 
ATOM     12  C   UNL     1      -3.860  10.844  17.537  0.00  0.00    +0.000 A 
ATOM     13  C   UNL     1      -3.322  11.693  18.492  0.00  0.00    +0.000 A 
ATOM     14  C   UNL     1      -1.953  11.643  18.796  0.00  0.00    +0.000 A 
ENDBRANCH   8   9
ENDBRANCH   6   8
ENDBRANCH   1   2
BRANCH   1  15
ATOM     15  C   UNL     1       2.909   5.221  19.185  0.00  0.00    +0.000 C 
BRANCH  15  16
ATOM     16  C   UNL     1       2.137   4.058  18.537  0.00  0.00    +0.000 C 
BRANCH  16  17
ATOM     17  C   UNL     1       1.280   3.383  19.638  0.00  0.00    +0.000 C 
ATOM     18  F   UNL     1       0.713   4.269  20.487  0.00  0.00    +0.000 F 
ATOM     19  F   UNL     1       0.276   2.661  19.085  0.00  0.00    +0.000 F 
ATOM     20  F   UNL     1       2.001   2.520  20.397  0.00  0.00    +0.000 F 
ENDBRANCH  16  17
BRANCH  16  21
ATOM     21  O   UNL     1       1.334   4.546  17.440  0.00  0.00    +0.000 OA
ATOM     22  H   UNL     1       1.929   4.621  16.668  0.00  0.00    +0.000 HD
ENDBRANCH  16  21
ENDBRANCH  15  16
ENDBRANCH   1  15
BRANCH   1  23
ATOM     23  C   UNL     1       3.860   7.021  17.648  0.00  0.00    +0.000 C 
BRANCH  23  24
ATOM     24  C   UNL     1       4.971   6.053  17.201  0.00  0.00    +0.000 A 
ATOM     25  C   UNL     1       5.895   5.620  18.180  0.00  0.00    +0.000 A 
ATOM     26  C   UNL     1       7.074   4.947  17.841  0.00  0.00    +0.000 A 
ATOM     27  C   UNL     1       7.348   4.650  16.514  0.00  0.00    +0.000 A 
ATOM     28  C   UNL     1       6.423   4.981  15.537  0.00  0.00    +0.000 A 
ATOM     29  C   UNL     1       5.244   5.696  15.859  0.00  0.00    +0.000 A 
BRANCH  28  30
ATOM     30  O   UNL     1       6.803   4.562  14.274  0.00  0.00    +0.000 OA
BRANCH  30  31
ATOM     31  C   UNL     1       5.950   3.539  13.774  0.00  0.00    +0.000 C 
BRANCH  31  32
ATOM     32  C   UNL     1       5.834   3.401  12.254  0.00  0.00    +0.000 C 
ATOM     33  F   UNL     1       4.655   3.815  11.758  0.00  0.00    +0.000 F 
ATOM     34  F   UNL     1       6.810   4.118  11.638  0.00  0.00    +0.000 F 
ATOM     35  F   UNL     1       6.014   2.109  11.881  0.00  0.00    +0.000 F 
ENDBRANCH  31  32
ENDBRANCH  30  31
ENDBRANCH  28  30
ENDBRANCH  23  24
ENDBRANCH   1  23
TORSDOF 12
ENDMDL
MODEL 3
REMARK VINA RESULT:      -8.8      1.277      1.565
REMARK  Name = 
REMARK  12 active torsions:
REMARK  status: ('A' for Active; 'I' for Inactive)
REMARK    1  A    between atoms: O_1  and  C_2
REMARK    2  A    between atoms: C_2  and  C_3
REMARK    3  A    between atoms: C_2  and  C_31
REMARK    4  A    between atoms: C_3  and  N_4
REMARK    5  A    between atoms: N_4  and  C_5
REMARK    6  A    between atoms: N_4  and  C_18
REMARK    7  A    between atoms: C_5  and  C_6
REMARK    8  A    between atoms: C_10  and  O_11
REMARK    9  A    between atoms: O_11  and  C_12
REMARK   10  A    between atoms: C_12  and  C_13
REMARK   11  A    between atoms: C_22  and  O_23
REMARK   12  A    between atoms: O_23  and  C_24
REMARK                            x       y       z     vdW  Elec       q    Type
REMARK                         _______ _______ _______ _____ _____    ______ ____
ROOT
ATOM      1  N   UNL     1       2.817   5.895  18.398  0.00  0.00    +0.000 N 
ENDROOT
BRANCH   1   2
ATOM      2  C   UNL     1       2.245   6.983  19.077  0.00  0.00    +0.000 A 
ATOM      3  C   UNL     1       1.985   6.945  20.448  0.00  0.00    +0.000 A 
ATOM      4  C   UNL     1       1.388   8.039  21.096  0.00  0.00    +0.000 A 
ATOM      5  C   UNL     1       1.008   9.172  20.370  0.00  0.00    +0.000 A 
ATOM      6  C   UNL     1       1.234   9.224  19.000  0.00  0.00    +0.000 A 
ATOM      7  C   UNL     1       1.895   8.155  18.392  0.00  0.00    +0.000 A 
BRANCH   6   8
ATOM      8  O   UNL     1       0.821  10.349  18.312  0.00  0.00    +0.000 OA
BRANCH   8   9
ATOM      9  C   UNL     1      -0.529  10.648  18.221  0.00  0.00    +0.000 A 
ATOM     10  C   UNL     1      -1.433   9.894  17.474  0.00  0.00    +0.000 A 
ATOM     11  C   UNL     1      -2.766  10.302  17.366  0.00  0.00    +0.000 A 
ATOM     12  C   UNL     1      -3.251  11.364  18.103  0.00  0.00    +0.000 A 
ATOM     13  C   UNL     1      -2.369  12.087  18.891  0.00  0.00    +0.000 A 
ATOM     14  C   UNL     1      -1.011  11.740  18.937  0.00  0.00    +0.000 A 
ENDBRANCH   8   9
ENDBRANCH   6   8
ENDBRANCH   1   2
BRANCH   1  15
ATOM     15  C   UNL     1       1.880   4.842  17.920  0.00  0.00    +0.000 C 
BRANCH  15  16
ATOM     16  C   UNL     1       2.227   3.413  18.372  0.00  0.00    +0.000 C 
BRANCH  16  17
ATOM     17  C   UNL     1       1.137   2.952  19.374  0.00  0.00    +0.000 C 
ATOM     18  F   UNL     1       1.621   2.160  20.356  0.00  0.00    +0.000 F 
ATOM     19  F   UNL     1       0.555   4.020  19.970  0.00  0.00    +0.000 F 
ATOM     20  F   UNL     1       0.140   2.259  18.768  0.00  0.00    +0.000 F 
ENDBRANCH  16  17
BRANCH  16  21
ATOM     21  O   UNL     1       2.321   2.539  17.225  0.00  0.00    +0.000 OA
ATOM     22  H   UNL     1       1.960   3.034  16.465  0.00  0.00    +0.000 HD
ENDBRANCH  16  21
ENDBRANCH  15  16
ENDBRANCH   1  15
BRANCH   1  23
ATOM     23  C   UNL     1       4.164   5.475  18.861  0.00  0.00    +0.000 C 
BRANCH  23  24
ATOM     24  C   UNL     1       5.236   5.051  17.839  0.00  0.00    +0.000 A 
ATOM     25  C   UNL     1       6.532   4.769  18.330  0.00  0.00    +0.000 A 
ATOM     26  C   UNL     1       7.630   4.618  17.477  0.00  0.00    +0.000 A 
ATOM     27  C   UNL     1       7.462   4.704  16.103  0.00  0.00    +0.000 A 
ATOM     28  C   UNL     1       6.191   4.892  15.583  0.00  0.00    +0.000 A 
ATOM     29  C   UNL     1       5.076   5.086  16.434  0.00  0.00    +0.000 A 
BRANCH  28  30
ATOM     30  O   UNL     1       6.171   4.890  14.199  0.00  0.00    +0.000 OA
BRANCH  30  31
ATOM     31  C   UNL     1       5.432   3.791  13.681  0.00  0.00    +0.000 C 
BRANCH  31  32
ATOM     32  C   UNL     1       5.656   3.425  12.211  0.00  0.00    +0.000 C 
ATOM     33  F   UNL     1       4.625   3.743  11.408  0.00  0.00    +0.000 F 
ATOM     34  F   UNL     1       6.758   4.056  11.729  0.00  0.00    +0.000 F 
ATOM     35  F   UNL     1       5.889   2.095  12.085  0.00  0.00    +0.000 F 
ENDBRANCH  31  32
ENDBRANCH  30  31
ENDBRANCH  28  30
ENDBRANCH  23  24
ENDBRANCH   1  23
TORSDOF 12
ENDMDL
MODEL 4
REMARK VINA RESULT:      -8.7      0.974      1.347
REMARK  Name = 
REMARK  12 active torsions:
REMARK  status: ('A' for Active; 'I' for Inactive)
REMARK    1  A    between atoms: O_1  and  C_2
REMARK    2  A    between atoms: C_2  and  C_3
REMARK    3  A    between atoms: C_2  and  C_31
REMARK    4  A    between atoms: C_3  and  N_4
REMARK    5  A    between atoms: N_4  and  C_5
REMARK    6  A    between atoms: N_4  and  C_18
REMARK    7  A    between atoms: C_5  and  C_6
REMARK    8  A    between atoms: C_10  and  O_11
REMARK    9  A    between atoms: O_11  and  C_12
REMARK   10  A    between atoms: C_12  and  C_13
REMARK   11  A    between atoms: C_22  and  O_23
REMARK   12  A    between atoms: O_23  and  C_24
REMARK                            x       y       z     vdW  Elec       q    Type
REMARK                         _______ _______ _______ _____ _____    ______ ____
ROOT
ATOM      1  N   UNL     1       2.680   6.786  18.260  0.00  0.00    +0.000 N 
ENDROOT
BRANCH   1   2
ATOM      2  C   UNL     1       2.001   7.736  19.038  0.00  0.00    +0.000 A 
ATOM      3  C   UNL     1       1.814   7.570  20.412  0.00  0.00    +0.000 A 
ATOM      4  C   UNL     1       1.108   8.525  21.161  0.00  0.00    +0.000 A 
ATOM      5  C   UNL     1       0.544   9.642  20.536  0.00  0.00    +0.000 A 
ATOM      6  C   UNL     1       0.694   9.817  19.166  0.00  0.00    +0.000 A 
ATOM      7  C   UNL     1       1.462   8.893  18.455  0.00  0.00    +0.000 A 
BRANCH   6   8
ATOM      8  O   UNL     1       0.101  10.918  18.578  0.00  0.00    +0.000 OA
BRANCH   8   9
ATOM      9  C   UNL     1      -1.244  10.885  18.247  0.00  0.00    +0.000 A 
ATOM     10  C   UNL     1      -2.192  11.745  18.797  0.00  0.00    +0.000 A 
ATOM     11  C   UNL     1      -3.544  11.601  18.473  0.00  0.00    +0.000 A 
ATOM     12  C   UNL     1      -3.956  10.711  17.501  0.00  0.00    +0.000 A 
ATOM     13  C   UNL     1      -3.011   9.886  16.909  0.00  0.00    +0.000 A 
ATOM     14  C   UNL     1      -1.664   9.962  17.292  0.00  0.00    +0.000 A 
ENDBRANCH   8   9
ENDBRANCH   6   8
ENDBRANCH   1   2
BRANCH   1  15
ATOM     15  C   UNL     1       2.551   5.364  18.683  0.00  0.00    +0.000 C 
BRANCH  15  16
ATOM     16  C   UNL     1       2.408   4.356  17.530  0.00  0.00    +0.000 C 
BRANCH  16  17
ATOM     17  C   UNL     1       3.270   3.113  17.873  0.00  0.00    +0.000 C 
ATOM     18  F   UNL     1       3.720   3.116  19.147  0.00  0.00    +0.000 F 
ATOM     19  F   UNL     1       2.554   1.975  17.703  0.00  0.00    +0.000 F 
ATOM     20  F   UNL     1       4.361   3.005  17.073  0.00  0.00    +0.000 F 
ENDBRANCH  16  17
BRANCH  16  21
ATOM     21  O   UNL     1       1.017   4.020  17.333  0.00  0.00    +0.000 OA
ATOM     22  H   UNL     1       0.886   3.920  16.371  0.00  0.00    +0.000 HD
ENDBRANCH  16  21
ENDBRANCH  15  16
ENDBRANCH   1  15
BRANCH   1  23
ATOM     23  C   UNL     1       3.971   7.228  17.674  0.00  0.00    +0.000 C 
BRANCH  23  24
ATOM     24  C   UNL     1       5.161   6.253  17.601  0.00  0.00    +0.000 A 
ATOM     25  C   UNL     1       5.735   5.829  18.822  0.00  0.00    +0.000 A 
ATOM     26  C   UNL     1       6.957   5.151  18.870  0.00  0.00    +0.000 A 
ATOM     27  C   UNL     1       7.627   4.838  17.696  0.00  0.00    +0.000 A 
ATOM     28  C   UNL     1       7.050   5.160  16.477  0.00  0.00    +0.000 A 
ATOM     29  C   UNL     1       5.833   5.881  16.413  0.00  0.00    +0.000 A 
BRANCH  28  30
ATOM     30  O   UNL     1       7.800   4.727  15.398  0.00  0.00    +0.000 OA
BRANCH  30  31
ATOM     31  C   UNL     1       7.118   4.924  14.164  0.00  0.00    +0.000 C 
BRANCH  31  32
ATOM     32  C   UNL     1       6.169   3.815  13.703  0.00  0.00    +0.000 C 
ATOM     33  F   UNL     1       6.009   2.827  14.600  0.00  0.00    +0.000 F 
ATOM     34  F   UNL     1       4.939   4.326  13.435  0.00  0.00    +0.000 F 
ATOM     35  F   UNL     1       6.615   3.262  12.547  0.00  0.00    +0.000 F 
ENDBRANCH  31  32
ENDBRANCH  30  31
ENDBRANCH  28  30
ENDBRANCH  23  24
ENDBRANCH   1  23
TORSDOF 12
ENDMDL
MODEL 5
REMARK VINA RESULT:      -8.6      1.423      1.936
REMARK  Name = 
REMARK  12 active torsions:
REMARK  status: ('A' for Active; 'I' for Inactive)
REMARK    1  A    between atoms: O_1  and  C_2
REMARK    2  A    between atoms: C_2  and  C_3
REMARK    3  A    between atoms: C_2  and  C_31
REMARK    4  A    between atoms: C_3  and  N_4
REMARK    5  A    between atoms: N_4  and  C_5
REMARK    6  A    between atoms: N_4  and  C_18
REMARK    7  A    between atoms: C_5  and  C_6
REMARK    8  A    between atoms: C_10  and  O_11
REMARK    9  A    between atoms: O_11  and  C_12
REMARK   10  A    between atoms: C_12  and  C_13
REMARK   11  A    between atoms: C_22  and  O_23
REMARK   12  A    between atoms: O_23  and  C_24
REMARK                            x       y       z     vdW  Elec       q    Type
REMARK                         _______ _______ _______ _____ _____    ______ ____
ROOT
ATOM      1  N   UNL     1       2.850   5.562  18.310  0.00  0.00    +0.000 N 
ENDROOT
BRANCH   1   2
ATOM      2  C   UNL     1       2.318   6.673  18.983  0.00  0.00    +0.000 A 
ATOM      3  C   UNL     1       2.021   6.640  20.347  0.00  0.00    +0.000 A 
ATOM      4  C   UNL     1       1.466   7.759  20.988  0.00  0.00    +0.000 A 
ATOM      5  C   UNL     1       1.164   8.916  20.262  0.00  0.00    +0.000 A 
ATOM      6  C   UNL     1       1.427   8.965  18.899  0.00  0.00    +0.000 A 
ATOM      7  C   UNL     1       2.046   7.867  18.299  0.00  0.00    +0.000 A 
BRANCH   6   8
ATOM      8  O   UNL     1       1.091  10.114  18.210  0.00  0.00    +0.000 OA
BRANCH   8   9
ATOM      9  C   UNL     1      -0.212  10.586  18.244  0.00  0.00    +0.000 A 
ATOM     10  C   UNL     1      -0.586  11.760  18.895  0.00  0.00    +0.000 A 
ATOM     11  C   UNL     1      -1.932  12.132  18.954  0.00  0.00    +0.000 A 
ATOM     12  C   UNL     1      -2.898  11.435  18.255  0.00  0.00    +0.000 A 
ATOM     13  C   UNL     1      -2.526  10.294  17.561  0.00  0.00    +0.000 A 
ATOM     14  C   UNL     1      -1.192   9.863  17.568  0.00  0.00    +0.000 A 
ENDBRANCH   8   9
ENDBRANCH   6   8
ENDBRANCH   1   2
BRANCH   1  15
ATOM     15  C   UNL     1       1.878   4.527  17.863  0.00  0.00    +0.000 C 
BRANCH  15  16
ATOM     16  C   UNL     1       2.142   3.112  18.408  0.00  0.00    +0.000 C 
BRANCH  16  17
ATOM     17  C   UNL     1       1.015   2.771  19.416  0.00  0.00    +0.000 C 
ATOM     18  F   UNL     1       0.002   2.069  18.861  0.00  0.00    +0.000 F 
ATOM     19  F   UNL     1       1.500   2.031  20.442  0.00  0.00    +0.000 F 
ATOM     20  F   UNL     1       0.464   3.881  19.969  0.00  0.00    +0.000 F 
ENDBRANCH  16  17
BRANCH  16  21
ATOM     21  O   UNL     1       2.207   2.165  17.319  0.00  0.00    +0.000 OA
ATOM     22  H   UNL     1       2.982   1.595  17.489  0.00  0.00    +0.000 HD
ENDBRANCH  16  21
ENDBRANCH  15  16
ENDBRANCH   1  15
BRANCH   1  23
ATOM     23  C   UNL     1       4.194   5.114  18.755  0.00  0.00    +0.000 C 
BRANCH  23  24
ATOM     24  C   UNL     1       5.393   5.190  17.792  0.00  0.00    +0.000 A 
ATOM     25  C   UNL     1       6.341   6.217  18.009  0.00  0.00    +0.000 A 
ATOM     26  C   UNL     1       7.323   6.531  17.063  0.00  0.00    +0.000 A 
ATOM     27  C   UNL     1       7.414   5.803  15.887  0.00  0.00    +0.000 A 
ATOM     28  C   UNL     1       6.557   4.733  15.680  0.00  0.00    +0.000 A 
ATOM     29  C   UNL     1       5.534   4.427  16.609  0.00  0.00    +0.000 A 
BRANCH  28  30
ATOM     30  O   UNL     1       6.812   4.062  14.496  0.00  0.00    +0.000 OA
BRANCH  30  31
ATOM     31  C   UNL     1       5.612   3.722  13.811  0.00  0.00    +0.000 C 
BRANCH  31  32
ATOM     32  C   UNL     1       5.717   3.443  12.309  0.00  0.00    +0.000 C 
ATOM     33  F   UNL     1       6.757   4.052  11.714  0.00  0.00    +0.000 F 
ATOM     34  F   UNL     1       5.842   2.110  12.082  0.00  0.00    +0.000 F 
ATOM     35  F   UNL     1       4.584   3.837  11.675  0.00  0.00    +0.000 F 
ENDBRANCH  31  32
ENDBRANCH  30  31
ENDBRANCH  28  30
ENDBRANCH  23  24
ENDBRANCH   1  23
TORSDOF 12
ENDMDL
MODEL 6
REMARK VINA RESULT:      -8.6      3.340      8.564
REMARK  Name = 
REMARK  12 active torsions:
REMARK  status: ('A' for Active; 'I' for Inactive)
REMARK    1  A    between atoms: O_1  and  C_2
REMARK    2  A    between atoms: C_2  and  C_3
REMARK    3  A    between atoms: C_2  and  C_31
REMARK    4  A    between atoms: C_3  and  N_4
REMARK    5  A    between atoms: N_4  and  C_5
REMARK    6  A    between atoms: N_4  and  C_18
REMARK    7  A    between atoms: C_5  and  C_6
REMARK    8  A    between atoms: C_10  and  O_11
REMARK    9  A    between atoms: O_11  and  C_12
REMARK   10  A    between atoms: C_12  and  C_13
REMARK   11  A    between atoms: C_22  and  O_23
REMARK   12  A    between atoms: O_23  and  C_24
REMARK                            x       y       z     vdW  Elec       q    Type
REMARK                         _______ _______ _______ _____ _____    ______ ____
ROOT
ATOM      1  N   UNL     1       3.291   5.909  18.242  0.00  0.00    +0.000 N 
ENDROOT
BRANCH   1   2
ATOM      2  C   UNL     1       4.671   5.684  18.119  0.00  0.00    +0.000 A 
ATOM      3  C   UNL     1       5.471   5.369  19.219  0.00  0.00    +0.000 A 
ATOM      4  C   UNL     1       6.853   5.174  19.069  0.00  0.00    +0.000 A 
ATOM      5  C   UNL     1       7.461   5.331  17.819  0.00  0.00    +0.000 A 
ATOM      6  C   UNL     1       6.690   5.669  16.713  0.00  0.00    +0.000 A 
ATOM      7  C   UNL     1       5.309   5.785  16.873  0.00  0.00    +0.000 A 
BRANCH   6   8
ATOM      8  O   UNL     1       7.329   5.841  15.500  0.00  0.00    +0.000 OA
BRANCH   8   9
ATOM      9  C   UNL     1       6.964   5.068  14.409  0.00  0.00    +0.000 A 
ATOM     10  C   UNL     1       5.883   4.189  14.420  0.00  0.00    +0.000 A 
ATOM     11  C   UNL     1       5.622   3.382  13.308  0.00  0.00    +0.000 A 
ATOM     12  C   UNL     1       6.328   3.537  12.131  0.00  0.00    +0.000 A 
ATOM     13  C   UNL     1       7.373   4.448  12.095  0.00  0.00    +0.000 A 
ATOM     14  C   UNL     1       7.699   5.199  13.234  0.00  0.00    +0.000 A 
ENDBRANCH   8   9
ENDBRANCH   6   8
ENDBRANCH   1   2
BRANCH   1  15
ATOM     15  C   UNL     1       2.405   4.724  18.074  0.00  0.00    +0.000 C 
BRANCH  15  16
ATOM     16  C   UNL     1       2.619   3.605  19.108  0.00  0.00    +0.000 C 
BRANCH  16  17
ATOM     17  C   UNL     1       1.791   3.958  20.370  0.00  0.00    +0.000 C 
ATOM     18  F   UNL     1       1.347   2.868  21.035  0.00  0.00    +0.000 F 
ATOM     19  F   UNL     1       2.534   4.683  21.241  0.00  0.00    +0.000 F 
ATOM     20  F   UNL     1       0.699   4.709  20.078  0.00  0.00    +0.000 F 
ENDBRANCH  16  17
BRANCH  16  21
ATOM     21  O   UNL     1       2.241   2.330  18.544  0.00  0.00    +0.000 OA
ATOM     22  H   UNL     1       1.615   2.519  17.817  0.00  0.00    +0.000 HD
ENDBRANCH  16  21
ENDBRANCH  15  16
ENDBRANCH   1  15
BRANCH   1  23
ATOM     23  C   UNL     1       2.800   7.224  17.756  0.00  0.00    +0.000 C 
BRANCH  23  24
ATOM     24  C   UNL     1       2.111   8.200  18.727  0.00  0.00    +0.000 A 
ATOM     25  C   UNL     1       1.944   7.779  20.067  0.00  0.00    +0.000 A 
ATOM     26  C   UNL     1       1.123   8.471  20.964  0.00  0.00    +0.000 A 
ATOM     27  C   UNL     1       0.473   9.628  20.562  0.00  0.00    +0.000 A 
ATOM     28  C   UNL     1       0.683  10.118  19.283  0.00  0.00    +0.000 A 
ATOM     29  C   UNL     1       1.480   9.409  18.351  0.00  0.00    +0.000 A 
BRANCH  28  30
ATOM     30  O   UNL     1       0.023  11.312  19.050  0.00  0.00    +0.000 OA
BRANCH  30  31
ATOM     31  C   UNL     1      -1.362  11.223  19.365  0.00  0.00    +0.000 C 
BRANCH  31  32
ATOM     32  C   UNL     1      -2.327  10.944  18.210  0.00  0.00    +0.000 C 
ATOM     33  F   UNL     1      -3.592  11.329  18.453  0.00  0.00    +0.000 F 
ATOM     34  F   UNL     1      -1.916  11.583  17.084  0.00  0.00    +0.000 F 
ATOM     35  F   UNL     1      -2.343   9.620  17.917  0.00  0.00    +0.000 F 
ENDBRANCH  31  32
ENDBRANCH  30  31
ENDBRANCH  28  30
ENDBRANCH  23  24
ENDBRANCH   1  23
TORSDOF 12
ENDMDL
MODEL 7
REMARK VINA RESULT:      -8.6      0.861      1.357
REMARK  Name = 
REMARK  12 active torsions:
REMARK  status: ('A' for Active; 'I' for Inactive)
REMARK    1  A    between atoms: O_1  and  C_2
REMARK    2  A    between atoms: C_2  and  C_3
REMARK    3  A    between atoms: C_2  and  C_31
REMARK    4  A    between atoms: C_3  and  N_4
REMARK    5  A    between atoms: N_4  and  C_5
REMARK    6  A    between atoms: N_4  and  C_18
REMARK    7  A    between atoms: C_5  and  C_6
REMARK    8  A    between atoms: C_10  and  O_11
REMARK    9  A    between atoms: O_11  and  C_12
REMARK   10  A    between atoms: C_12  and  C_13
REMARK   11  A    between atoms: C_22  and  O_23
REMARK   12  A    between atoms: O_23  and  C_24
REMARK                            x       y       z     vdW  Elec       q    Type
REMARK                         _______ _______ _______ _____ _____    ______ ____
ROOT
ATOM      1  N   UNL     1       3.014   6.216  19.355  0.00  0.00    +0.000 N 
ENDROOT
BRANCH   1   2
ATOM      2  C   UNL     1       2.196   7.288  19.748  0.00  0.00    +0.000 A 
ATOM      3  C   UNL     1       1.696   7.400  21.047  0.00  0.00    +0.000 A 
ATOM      4  C   UNL     1       0.860   8.469  21.404  0.00  0.00    +0.000 A 
ATOM      5  C   UNL     1       0.480   9.422  20.453  0.00  0.00    +0.000 A 
ATOM      6  C   UNL     1       0.944   9.319  19.147  0.00  0.00    +0.000 A 
ATOM      7  C   UNL     1       1.833   8.289  18.835  0.00  0.00    +0.000 A 
BRANCH   6   8
ATOM      8  O   UNL     1       0.527  10.263  18.229  0.00  0.00    +0.000 OA
BRANCH   8   9
ATOM      9  C   UNL     1      -0.821  10.566  18.112  0.00  0.00    +0.000 A 
ATOM     10  C   UNL     1      -1.423  11.644  18.758  0.00  0.00    +0.000 A 
ATOM     11  C   UNL     1      -2.803  11.843  18.656  0.00  0.00    +0.000 A 
ATOM     12  C   UNL     1      -3.575  11.074  17.806  0.00  0.00    +0.000 A 
ATOM     13  C   UNL     1      -2.973  10.032  17.118  0.00  0.00    +0.000 A 
ATOM     14  C   UNL     1      -1.605   9.769  17.283  0.00  0.00    +0.000 A 
ENDBRANCH   8   9
ENDBRANCH   6   8
ENDBRANCH   1   2
BRANCH   1  15
ATOM     15  C   UNL     1       2.802   4.923  20.061  0.00  0.00    +0.000 C 
BRANCH  15  16
ATOM     16  C   UNL     1       1.447   4.249  19.785  0.00  0.00    +0.000 C 
BRANCH  16  17
ATOM     17  C   UNL     1       1.506   3.624  18.368  0.00  0.00    +0.000 C 
ATOM     18  F   UNL     1       1.088   4.467  17.398  0.00  0.00    +0.000 F 
ATOM     19  F   UNL     1       2.773   3.256  18.061  0.00  0.00    +0.000 F 
ATOM     20  F   UNL     1       0.746   2.504  18.266  0.00  0.00    +0.000 F 
ENDBRANCH  16  17
BRANCH  16  21
ATOM     21  O   UNL     1       1.163   3.267  20.806  0.00  0.00    +0.000 OA
ATOM     22  H   UNL     1       1.962   3.206  21.365  0.00  0.00    +0.000 HD
ENDBRANCH  16  21
ENDBRANCH  15  16
ENDBRANCH   1  15
BRANCH   1  23
ATOM     23  C   UNL     1       4.396   6.570  18.942  0.00  0.00    +0.000 C 
BRANCH  23  24
ATOM     24  C   UNL     1       5.136   5.711  17.900  0.00  0.00    +0.000 A 
ATOM     25  C   UNL     1       6.360   5.120  18.291  0.00  0.00    +0.000 A 
ATOM     26  C   UNL     1       7.228   4.532  17.364  0.00  0.00    +0.000 A 
ATOM     27  C   UNL     1       6.883   4.482  16.022  0.00  0.00    +0.000 A 
ATOM     28  C   UNL     1       5.652   4.972  15.617  0.00  0.00    +0.000 A 
ATOM     29  C   UNL     1       4.779   5.605  16.536  0.00  0.00    +0.000 A 
BRANCH  28  30
ATOM     30  O   UNL     1       5.421   4.792  14.264  0.00  0.00    +0.000 OA
BRANCH  30  31
ATOM     31  C   UNL     1       6.107   3.655  13.755  0.00  0.00    +0.000 C 
BRANCH  31  32
ATOM     32  C   UNL     1       5.942   3.343  12.265  0.00  0.00    +0.000 C 
ATOM     33  F   UNL     1       6.147   2.052  11.953  0.00  0.00    +0.000 F 
ATOM     34  F   UNL     1       4.690   3.669  11.850  0.00  0.00    +0.000 F 
ATOM     35  F   UNL     1       6.799   4.093  11.527  0.00  0.00    +0.000 F 
ENDBRANCH  31  32
ENDBRANCH  30  31
ENDBRANCH  28  30
ENDBRANCH  23  24
ENDBRANCH   1  23
TORSDOF 12
ENDMDL
MODEL 8
REMARK VINA RESULT:      -8.6      0.750      1.208
REMARK  Name = 
REMARK  12 active torsions:
REMARK  status: ('A' for Active; 'I' for Inactive)
REMARK    1  A    between atoms: O_1  and  C_2
REMARK    2  A    between atoms: C_2  and  C_3
REMARK    3  A    between atoms: C_2  and  C_31
REMARK    4  A    between atoms: C_3  and  N_4
REMARK    5  A    between atoms: N_4  and  C_5
REMARK    6  A    between atoms: N_4  and  C_18
REMARK    7  A    between atoms: C_5  and  C_6
REMARK    8  A    between atoms: C_10  and  O_11
REMARK    9  A    between atoms: O_11  and  C_12
REMARK   10  A    between atoms: C_12  and  C_13
REMARK   11  A    between atoms: C_22  and  O_23
REMARK   12  A    between atoms: O_23  and  C_24
REMARK                            x       y       z     vdW  Elec       q    Type
REMARK                         _______ _______ _______ _____ _____    ______ ____
ROOT
ATOM      1  N   UNL     1       2.704   6.546  18.952  0.00  0.00    +0.000 N 
ENDROOT
BRANCH   1   2
ATOM      2  C   UNL     1       2.019   7.620  19.543  0.00  0.00    +0.000 A 
ATOM      3  C   UNL     1       1.741   7.658  20.911  0.00  0.00    +0.000 A 
ATOM      4  C   UNL     1       1.032   8.734  21.470  0.00  0.00    +0.000 A 
ATOM      5  C   UNL     1       0.557   9.769  20.658  0.00  0.00    +0.000 A 
ATOM      6  C   UNL     1       0.799   9.742  19.290  0.00  0.00    +0.000 A 
ATOM      7  C   UNL     1       1.569   8.700  18.769  0.00  0.00    +0.000 A 
BRANCH   6   8
ATOM      8  O   UNL     1       0.291  10.767  18.516  0.00  0.00    +0.000 OA
BRANCH   8   9
ATOM      9  C   UNL     1      -1.046  10.763  18.151  0.00  0.00    +0.000 A 
ATOM     10  C   UNL     1      -1.599   9.828  17.279  0.00  0.00    +0.000 A 
ATOM     11  C   UNL     1      -2.940   9.933  16.895  0.00  0.00    +0.000 A 
ATOM     12  C   UNL     1      -3.779  10.864  17.475  0.00  0.00    +0.000 A 
ATOM     13  C   UNL     1      -3.248  11.765  18.385  0.00  0.00    +0.000 A 
ATOM     14  C   UNL     1      -1.884  11.724  18.710  0.00  0.00    +0.000 A 
ENDBRANCH   8   9
ENDBRANCH   6   8
ENDBRANCH   1   2
BRANCH   1  15
ATOM     15  C   UNL     1       3.001   5.382  19.832  0.00  0.00    +0.000 C 
BRANCH  15  16
ATOM     16  C   UNL     1       1.927   4.281  19.833  0.00  0.00    +0.000 C 
BRANCH  16  17
ATOM     17  C   UNL     1       2.334   3.217  18.781  0.00  0.00    +0.000 C 
ATOM     18  F   UNL     1       2.014   3.572  17.517  0.00  0.00    +0.000 F 
ATOM     19  F   UNL     1       3.671   3.003  18.811  0.00  0.00    +0.000 F 
ATOM     20  F   UNL     1       1.747   2.015  19.010  0.00  0.00    +0.000 F 
ENDBRANCH  16  17
BRANCH  16  21
ATOM     21  O   UNL     1       1.794   3.718  21.157  0.00  0.00    +0.000 OA
ATOM     22  H   UNL     1       1.221   4.326  21.663  0.00  0.00    +0.000 HD
ENDBRANCH  16  21
ENDBRANCH  15  16
ENDBRANCH   1  15
BRANCH   1  23
ATOM     23  C   UNL     1       3.694   6.903  17.905  0.00  0.00    +0.000 C 
BRANCH  23  24
ATOM     24  C   UNL     1       4.829   5.926  17.549  0.00  0.00    +0.000 A 
ATOM     25  C   UNL     1       6.051   6.060  18.249  0.00  0.00    +0.000 A 
ATOM     26  C   UNL     1       7.215   5.399  17.842  0.00  0.00    +0.000 A 
ATOM     27  C   UNL     1       7.186   4.551  16.745  0.00  0.00    +0.000 A 
ATOM     28  C   UNL     1       5.986   4.327  16.089  0.00  0.00    +0.000 A 
ATOM     29  C   UNL     1       4.808   5.018  16.464  0.00  0.00    +0.000 A 
BRANCH  28  30
ATOM     30  O   UNL     1       6.100   3.408  15.060  0.00  0.00    +0.000 OA
BRANCH  30  31
ATOM     31  C   UNL     1       6.589   4.006  13.865  0.00  0.00    +0.000 C 
BRANCH  31  32
ATOM     32  C   UNL     1       5.934   3.583  12.549  0.00  0.00    +0.000 C 
ATOM     33  F   UNL     1       6.421   4.218  11.469  0.00  0.00    +0.000 F 
ATOM     34  F   UNL     1       6.097   2.249  12.346  0.00  0.00    +0.000 F 
ATOM     35  F   UNL     1       4.596   3.803  12.594  0.00  0.00    +0.000 F 
ENDBRANCH  31  32
ENDBRANCH  30  31
ENDBRANCH  28  30
ENDBRANCH  23  24
ENDBRANCH   1  23
TORSDOF 12
ENDMDL
MODEL 9
REMARK VINA RESULT:      -8.5      1.825      2.694
REMARK  Name = 
REMARK  12 active torsions:
REMARK  status: ('A' for Active; 'I' for Inactive)
REMARK    1  A    between atoms: O_1  and  C_2
REMARK    2  A    between atoms: C_2  and  C_3
REMARK    3  A    between atoms: C_2  and  C_31
REMARK    4  A    between atoms: C_3  and  N_4
REMARK    5  A    between atoms: N_4  and  C_5
REMARK    6  A    between atoms: N_4  and  C_18
REMARK    7  A    between atoms: C_5  and  C_6
REMARK    8  A    between atoms: C_10  and  O_11
REMARK    9  A    between atoms: O_11  and  C_12
REMARK   10  A    between atoms: C_12  and  C_13
REMARK   11  A    between atoms: C_22  and  O_23
REMARK   12  A    between atoms: O_23  and  C_24
REMARK                            x       y       z     vdW  Elec       q    Type
REMARK                         _______ _______ _______ _____ _____    ______ ____
ROOT
ATOM      1  N   UNL     1       2.797   6.709  18.204  0.00  0.00    +0.000 N 
ENDROOT
BRANCH   1   2
ATOM      2  C   UNL     1       2.153   7.690  18.975  0.00  0.00    +0.000 A 
ATOM      3  C   UNL     1       1.841   7.486  20.321  0.00  0.00    +0.000 A 
ATOM      4  C   UNL     1       1.174   8.476  21.061  0.00  0.00    +0.000 A 
ATOM      5  C   UNL     1       0.775   9.670  20.451  0.00  0.00    +0.000 A 
ATOM      6  C   UNL     1       1.052   9.886  19.107  0.00  0.00    +0.000 A 
ATOM      7  C   UNL     1       1.780   8.920  18.412  0.00  0.00    +0.000 A 
BRANCH   6   8
ATOM      8  O   UNL     1       0.619  11.066  18.533  0.00  0.00    +0.000 OA
BRANCH   8   9
ATOM      9  C   UNL     1       1.273  12.255  18.816  0.00  0.00    +0.000 A 
ATOM     10  C   UNL     1       0.835  13.159  19.781  0.00  0.00    +0.000 A 
ATOM     11  C   UNL     1       1.502  14.376  19.958  0.00  0.00    +0.000 A 
ATOM     12  C   UNL     1       2.682  14.647  19.293  0.00  0.00    +0.000 A 
ATOM     13  C   UNL     1       3.153  13.728  18.368  0.00  0.00    +0.000 A 
ATOM     14  C   UNL     1       2.443  12.544  18.120  0.00  0.00    +0.000 A 
ENDBRANCH   8   9
ENDBRANCH   6   8
ENDBRANCH   1   2
BRANCH   1  15
ATOM     15  C   UNL     1       2.691   5.306  18.689  0.00  0.00    +0.000 C 
BRANCH  15  16
ATOM     16  C   UNL     1       2.452   4.257  17.589  0.00  0.00    +0.000 C 
BRANCH  16  17
ATOM     17  C   UNL     1       3.260   2.986  17.959  0.00  0.00    +0.000 C 
ATOM     18  F   UNL     1       4.264   2.726  17.092  0.00  0.00    +0.000 F 
ATOM     19  F   UNL     1       3.815   3.114  19.188  0.00  0.00    +0.000 F 
ATOM     20  F   UNL     1       2.482   1.875  18.002  0.00  0.00    +0.000 F 
ENDBRANCH  16  17
BRANCH  16  21
ATOM     21  O   UNL     1       1.039   3.988  17.459  0.00  0.00    +0.000 OA
ATOM     22  H   UNL     1       0.792   4.224  16.543  0.00  0.00    +0.000 HD
ENDBRANCH  16  21
ENDBRANCH  15  16
ENDBRANCH   1  15
BRANCH   1  23
ATOM     23  C   UNL     1       4.058   7.128  17.540  0.00  0.00    +0.000 C 
BRANCH  23  24
ATOM     24  C   UNL     1       5.136   6.082  17.200  0.00  0.00    +0.000 A 
ATOM     25  C   UNL     1       6.070   5.755  18.211  0.00  0.00    +0.000 A 
ATOM     26  C   UNL     1       7.226   5.014  17.940  0.00  0.00    +0.000 A 
ATOM     27  C   UNL     1       7.466   4.544  16.658  0.00  0.00    +0.000 A 
ATOM     28  C   UNL     1       6.529   4.771  15.662  0.00  0.00    +0.000 A 
ATOM     29  C   UNL     1       5.374   5.551  15.911  0.00  0.00    +0.000 A 
BRANCH  28  30
ATOM     30  O   UNL     1       6.874   4.185  14.457  0.00  0.00    +0.000 OA
BRANCH  30  31
ATOM     31  C   UNL     1       5.728   3.775  13.719  0.00  0.00    +0.000 C 
BRANCH  31  32
ATOM     32  C   UNL     1       5.926   3.462  12.233  0.00  0.00    +0.000 C 
ATOM     33  F   UNL     1       6.970   4.100  11.676  0.00  0.00    +0.000 F 
ATOM     34  F   UNL     1       6.118   2.129  12.052  0.00  0.00    +0.000 F 
ATOM     35  F   UNL     1       4.813   3.789  11.529  0.00  0.00    +0.000 F 
ENDBRANCH  31  32
ENDBRANCH  30  31
ENDBRANCH  28  30
ENDBRANCH  23  24
ENDBRANCH   1  23
TORSDOF 12
ENDMDL
