MODEL 1
REMARK VINA RESULT:      -8.5      0.000      0.000
REMARK  Name = 
REMARK  6 active torsions:
REMARK  status: ('A' for Active; 'I' for Inactive)
REMARK    1  A    between atoms: C_2  and  C_3
REMARK    2  A    between atoms: C_3  and  C_4
REMARK    3  A    between atoms: N_9  and  C_10
REMARK    4  A    between atoms: C_13  and  C_14
REMARK    5  A    between atoms: C_15  and  C_16
REMARK    6  A    between atoms: C_26  and  N_27
REMARK                            x       y       z     vdW  Elec       q    Type
REMARK                         _______ _______ _______ _____ _____    ______ ____
ROOT
ATOM      1  C   UNL     1       3.582   6.216  19.086  0.00  0.00    +0.000 A 
ATOM      2  C   UNL     1       4.683   6.988  18.654  0.00  0.00    +0.000 A 
ATOM      3  C   UNL     1       5.630   6.411  17.786  0.00  0.00    +0.000 A 
ATOM      4  C   UNL     1       6.844   6.812  17.144  0.00  0.00    +0.000 A 
ATOM      5  N   UNL     1       7.344   5.814  16.396  0.00  0.00    +0.000 NA
ATOM      6  N   UNL     1       6.487   4.802  16.577  0.00  0.00    +0.000 N 
ATOM      7  C   UNL     1       5.436   5.092  17.403  0.00  0.00    +0.000 A 
ATOM      8  C   UNL     1       4.356   4.303  17.834  0.00  0.00    +0.000 A 
ATOM      9  C   UNL     1       3.399   4.861  18.702  0.00  0.00    +0.000 A 
ATOM     10  H   UNL     1       6.683   3.924  16.114  0.00  0.00    +0.000 HD
ENDROOT
BRANCH   9  11
ATOM     11  N   UNL     1       2.274   4.136  19.145  0.00  0.00    +0.000 N 
ATOM     12  C   UNL     1       2.381   3.082  20.164  0.00  0.00    +0.000 C 
ATOM     13  C   UNL     1       2.037   1.794  19.429  0.00  0.00    +0.000 C 
ATOM     14  C   UNL     1       0.981   2.235  18.435  0.00  0.00    +0.000 C 
ATOM     15  C   UNL     1       1.365   3.667  18.071  0.00  0.00    +0.000 C 
ENDBRANCH   9  11
BRANCH   1  18
ATOM     16  O   UNL     1       1.176   8.273  20.758  0.00  0.00    +0.000 OA
ATOM     17  C   UNL     1       1.874   7.887  19.822  0.00  0.00    +0.000 C 
ATOM     18  N   UNL     1       2.678   6.784  20.005  0.00  0.00    +0.000 N 
ATOM     19  H   UNL     1       2.370   6.173  20.754  0.00  0.00    +0.000 HD
BRANCH  17  20
ATOM     20  C   UNL     1       1.859   8.547  18.445  0.00  0.00    +0.000 C 
BRANCH  20  21
ATOM     21  C   UNL     1       0.913   9.715  18.369  0.00  0.00    +0.000 A 
ATOM     22  C   UNL     1      -0.417   9.736  17.995  0.00  0.00    +0.000 A 
ATOM     23  C   UNL     1      -1.019  11.012  18.194  0.00  0.00    +0.000 A 
ATOM     24  C   UNL     1      -0.123  11.935  18.684  0.00  0.00    +0.000 A 
ATOM     25  S   UNL     1       1.438  11.270  18.874  0.00  0.00    +0.000 S 
ENDBRANCH  20  21
ENDBRANCH  17  20
ENDBRANCH   1  18
BRANCH   4  26
ATOM     26  C   UNL     1       7.476   8.099  17.269  0.00  0.00    +0.000 C 
ATOM     27  C   UNL     1       8.178   8.492  18.348  0.00  0.00    +0.000 C 
BRANCH  27  28
ATOM     28  C   UNL     1       8.787   9.816  18.548  0.00  0.00    +0.000 A 
ATOM     29  C   UNL     1       8.513  10.829  17.616  0.00  0.00    +0.000 A 
ATOM     30  C   UNL     1       9.067  12.105  17.757  0.00  0.00    +0.000 A 
ATOM     31  C   UNL     1       9.896  12.387  18.840  0.00  0.00    +0.000 A 
ATOM     32  C   UNL     1      10.160  11.398  19.786  0.00  0.00    +0.000 A 
ATOM     33  C   UNL     1       9.600  10.122  19.646  0.00  0.00    +0.000 A 
ENDBRANCH  27  28
ENDBRANCH   4  26
TORSDOF 6
ENDMDL
MODEL 2
REMARK VINA RESULT:      -8.4      0.548      1.015
REMARK  Name = 
REMARK  6 active torsions:
REMARK  status: ('A' for Active; 'I' for Inactive)
REMARK    1  A    between atoms: C_2  and  C_3
REMARK    2  A    between atoms: C_3  and  C_4
REMARK    3  A    between atoms: N_9  and  C_10
REMARK    4  A    between atoms: C_13  and  C_14
REMARK    5  A    between atoms: C_15  and  C_16
REMARK    6  A    between atoms: C_26  and  N_27
REMARK                            x       y       z     vdW  Elec       q    Type
REMARK                         _______ _______ _______ _____ _____    ______ ____
ROOT
ATOM      1  C   UNL     1       3.539   6.157  19.005  0.00  0.00    +0.000 A 
ATOM      2  C   UNL     1       4.805   6.752  18.808  0.00  0.00    +0.000 A 
ATOM      3  C   UNL     1       5.714   6.154  17.914  0.00  0.00    +0.000 A 
ATOM      4  C   UNL     1       7.043   6.405  17.447  0.00  0.00    +0.000 A 
ATOM      5  N   UNL     1       7.424   5.473  16.559  0.00  0.00    +0.000 NA
ATOM      6  N   UNL     1       6.379   4.641  16.481  0.00  0.00    +0.000 N 
ATOM      7  C   UNL     1       5.319   4.990  17.272  0.00  0.00    +0.000 A 
ATOM      8  C   UNL     1       4.071   4.375  17.467  0.00  0.00    +0.000 A 
ATOM      9  C   UNL     1       3.147   4.956  18.356  0.00  0.00    +0.000 A 
ATOM     10  H   UNL     1       6.456   3.835  15.873  0.00  0.00    +0.000 HD
ENDROOT
BRANCH   9  11
ATOM     11  N   UNL     1       1.867   4.408  18.571  0.00  0.00    +0.000 N 
ATOM     12  C   UNL     1       1.317   4.225  19.922  0.00  0.00    +0.000 C 
ATOM     13  C   UNL     1       1.214   2.716  20.097  0.00  0.00    +0.000 C 
ATOM     14  C   UNL     1       0.854   2.230  18.707  0.00  0.00    +0.000 C 
ATOM     15  C   UNL     1       1.552   3.205  17.762  0.00  0.00    +0.000 C 
ENDBRANCH   9  11
BRANCH   1  18
ATOM     16  O   UNL     1       1.219   8.241  20.762  0.00  0.00    +0.000 OA
ATOM     17  C   UNL     1       1.893   7.859  19.807  0.00  0.00    +0.000 C 
ATOM     18  N   UNL     1       2.665   6.727  19.951  0.00  0.00    +0.000 N 
ATOM     19  H   UNL     1       2.346   6.106  20.688  0.00  0.00    +0.000 HD
BRANCH  17  20
ATOM     20  C   UNL     1       1.881   8.555  18.448  0.00  0.00    +0.000 C 
BRANCH  20  21
ATOM     21  C   UNL     1       0.911   9.705  18.390  0.00  0.00    +0.000 A 
ATOM     22  C   UNL     1      -0.419   9.704  18.018  0.00  0.00    +0.000 A 
ATOM     23  C   UNL     1      -1.046  10.965  18.236  0.00  0.00    +0.000 A 
ATOM     24  C   UNL     1      -0.169  11.898  18.741  0.00  0.00    +0.000 A 
ATOM     25  S   UNL     1       1.406  11.262  18.920  0.00  0.00    +0.000 S 
ENDBRANCH  20  21
ENDBRANCH  17  20
ENDBRANCH   1  18
BRANCH   4  26
ATOM     26  C   UNL     1       7.887   7.495  17.861  0.00  0.00    +0.000 C 
ATOM     27  C   UNL     1       7.545   8.793  17.763  0.00  0.00    +0.000 C 
BRANCH  27  28
ATOM     28  C   UNL     1       8.396   9.941  18.114  0.00  0.00    +0.000 A 
ATOM     29  C   UNL     1       9.344   9.786  19.136  0.00  0.00    +0.000 A 
ATOM     30  C   UNL     1      10.178  10.844  19.511  0.00  0.00    +0.000 A 
ATOM     31  C   UNL     1      10.079  12.071  18.859  0.00  0.00    +0.000 A 
ATOM     32  C   UNL     1       9.158  12.233  17.826  0.00  0.00    +0.000 A 
ATOM     33  C   UNL     1       8.328  11.171  17.448  0.00  0.00    +0.000 A 
ENDBRANCH  27  28
ENDBRANCH   4  26
TORSDOF 6
ENDMDL
MODEL 3
REMARK VINA RESULT:      -8.4      1.375      1.970
REMARK  Name = 
REMARK  6 active torsions:
REMARK  status: ('A' for Active; 'I' for Inactive)
REMARK    1  A    between atoms: C_2  and  C_3
REMARK    2  A    between atoms: C_3  and  C_4
REMARK    3  A    between atoms: N_9  and  C_10
REMARK    4  A    between atoms: C_13  and  C_14
REMARK    5  A    between atoms: C_15  and  C_16
REMARK    6  A    between atoms: C_26  and  N_27
REMARK                            x       y       z     vdW  Elec       q    Type
REMARK                         _______ _______ _______ _____ _____    ______ ____
ROOT
ATOM      1  C   UNL     1       4.135   5.111  18.549  0.00  0.00    +0.000 A 
ATOM      2  C   UNL     1       5.173   6.068  18.603  0.00  0.00    +0.000 A 
ATOM      3  C   UNL     1       6.135   6.098  17.576  0.00  0.00    +0.000 A 
ATOM      4  C   UNL     1       7.305   6.859  17.258  0.00  0.00    +0.000 A 
ATOM      5  N   UNL     1       7.851   6.439  16.105  0.00  0.00    +0.000 NA
ATOM      6  N   UNL     1       7.067   5.428  15.714  0.00  0.00    +0.000 N 
ATOM      7  C   UNL     1       6.019   5.168  16.554  0.00  0.00    +0.000 A 
ATOM      8  C   UNL     1       5.004   4.199  16.490  0.00  0.00    +0.000 A 
ATOM      9  C   UNL     1       4.032   4.151  17.507  0.00  0.00    +0.000 A 
ATOM     10  H   UNL     1       7.311   4.938  14.862  0.00  0.00    +0.000 HD
ENDROOT
BRANCH   9  11
ATOM     11  N   UNL     1       2.969   3.226  17.486  0.00  0.00    +0.000 N 
ATOM     12  C   UNL     1       1.564   3.656  17.528  0.00  0.00    +0.000 C 
ATOM     13  C   UNL     1       1.042   3.149  18.865  0.00  0.00    +0.000 C 
ATOM     14  C   UNL     1       1.778   1.837  19.048  0.00  0.00    +0.000 C 
ATOM     15  C   UNL     1       3.134   2.056  18.382  0.00  0.00    +0.000 C 
ENDBRANCH   9  11
BRANCH   1  18
ATOM     16  O   UNL     1       1.656   5.821  21.032  0.00  0.00    +0.000 OA
ATOM     17  C   UNL     1       2.359   6.036  20.046  0.00  0.00    +0.000 C 
ATOM     18  N   UNL     1       3.217   5.048  19.616  0.00  0.00    +0.000 N 
ATOM     19  H   UNL     1       2.948   4.115  19.910  0.00  0.00    +0.000 HD
BRANCH  17  20
ATOM     20  C   UNL     1       2.295   7.334  19.245  0.00  0.00    +0.000 C 
BRANCH  20  21
ATOM     21  C   UNL     1       1.559   8.430  19.968  0.00  0.00    +0.000 A 
ATOM     22  C   UNL     1       1.372   8.605  21.326  0.00  0.00    +0.000 A 
ATOM     23  C   UNL     1       0.745   9.847  21.633  0.00  0.00    +0.000 A 
ATOM     24  C   UNL     1       0.446  10.570  20.501  0.00  0.00    +0.000 A 
ATOM     25  S   UNL     1       0.892   9.738  19.077  0.00  0.00    +0.000 S 
ENDBRANCH  20  21
ENDBRANCH  17  20
ENDBRANCH   1  18
BRANCH   4  26
ATOM     26  C   UNL     1       7.853   7.928  18.050  0.00  0.00    +0.000 C 
ATOM     27  C   UNL     1       8.088   9.168  17.583  0.00  0.00    +0.000 C 
BRANCH  27  28
ATOM     28  C   UNL     1       8.703  10.273  18.334  0.00  0.00    +0.000 A 
ATOM     29  C   UNL     1       9.273   9.999  19.587  0.00  0.00    +0.000 A 
ATOM     30  C   UNL     1       9.869  11.012  20.343  0.00  0.00    +0.000 A 
ATOM     31  C   UNL     1       9.912  12.314  19.851  0.00  0.00    +0.000 A 
ATOM     32  C   UNL     1       9.372  12.598  18.598  0.00  0.00    +0.000 A 
ATOM     33  C   UNL     1       8.780  11.581  17.839  0.00  0.00    +0.000 A 
ENDBRANCH  27  28
ENDBRANCH   4  26
TORSDOF 6
ENDMDL
MODEL 4
REMARK VINA RESULT:      -8.3      1.011      1.554
REMARK  Name = 
REMARK  6 active torsions:
REMARK  status: ('A' for Active; 'I' for Inactive)
REMARK    1  A    between atoms: C_2  and  C_3
REMARK    2  A    between atoms: C_3  and  C_4
REMARK    3  A    between atoms: N_9  and  C_10
REMARK    4  A    between atoms: C_13  and  C_14
REMARK    5  A    between atoms: C_15  and  C_16
REMARK    6  A    between atoms: C_26  and  N_27
REMARK                            x       y       z     vdW  Elec       q    Type
REMARK                         _______ _______ _______ _____ _____    ______ ____
ROOT
ATOM      1  C   UNL     1       3.968   5.442  19.087  0.00  0.00    +0.000 A 
ATOM      2  C   UNL     1       4.930   6.369  18.629  0.00  0.00    +0.000 A 
ATOM      3  C   UNL     1       5.868   5.963  17.661  0.00  0.00    +0.000 A 
ATOM      4  C   UNL     1       6.971   6.549  16.961  0.00  0.00    +0.000 A 
ATOM      5  N   UNL     1       7.528   5.665  16.118  0.00  0.00    +0.000 NA
ATOM      6  N   UNL     1       6.817   4.545  16.292  0.00  0.00    +0.000 N 
ATOM      7  C   UNL     1       5.806   4.655  17.208  0.00  0.00    +0.000 A 
ATOM      8  C   UNL     1       4.867   3.714  17.663  0.00  0.00    +0.000 A 
ATOM      9  C   UNL     1       3.920   4.098  18.630  0.00  0.00    +0.000 A 
ATOM     10  H   UNL     1       7.082   3.725  15.762  0.00  0.00    +0.000 HD
ENDROOT
BRANCH   9  11
ATOM     11  N   UNL     1       2.930   3.213  19.104  0.00  0.00    +0.000 N 
ATOM     12  C   UNL     1       1.512   3.371  18.749  0.00  0.00    +0.000 C 
ATOM     13  C   UNL     1       0.821   3.722  20.059  0.00  0.00    +0.000 C 
ATOM     14  C   UNL     1       1.597   2.920  21.085  0.00  0.00    +0.000 C 
ATOM     15  C   UNL     1       3.024   2.877  20.545  0.00  0.00    +0.000 C 
ENDBRANCH   9  11
BRANCH   1  18
ATOM     16  O   UNL     1       1.514   7.123  21.080  0.00  0.00    +0.000 OA
ATOM     17  C   UNL     1       2.186   6.891  20.076  0.00  0.00    +0.000 C 
ATOM     18  N   UNL     1       3.076   5.840  20.103  0.00  0.00    +0.000 N 
ATOM     19  H   UNL     1       2.852   5.132  20.795  0.00  0.00    +0.000 HD
BRANCH  17  20
ATOM     20  C   UNL     1       2.050   7.688  18.781  0.00  0.00    +0.000 C 
BRANCH  20  21
ATOM     21  C   UNL     1       1.501   9.072  19.002  0.00  0.00    +0.000 A 
ATOM     22  C   UNL     1       0.645   9.522  19.989  0.00  0.00    +0.000 A 
ATOM     23  C   UNL     1       0.470  10.935  19.955  0.00  0.00    +0.000 A 
ATOM     24  C   UNL     1       1.174  11.519  18.925  0.00  0.00    +0.000 A 
ATOM     25  S   UNL     1       2.014  10.362  17.991  0.00  0.00    +0.000 S 
ENDBRANCH  20  21
ENDBRANCH  17  20
ENDBRANCH   1  18
BRANCH   4  26
ATOM     26  C   UNL     1       7.450   7.896  17.124  0.00  0.00    +0.000 C 
ATOM     27  C   UNL     1       8.172   8.317  18.179  0.00  0.00    +0.000 C 
BRANCH  27  28
ATOM     28  C   UNL     1       8.630   9.694  18.420  0.00  0.00    +0.000 A 
ATOM     29  C   UNL     1       9.429   9.949  19.545  0.00  0.00    +0.000 A 
ATOM     30  C   UNL     1       9.891  11.239  19.822  0.00  0.00    +0.000 A 
ATOM     31  C   UNL     1       9.566  12.292  18.970  0.00  0.00    +0.000 A 
ATOM     32  C   UNL     1       8.793  12.051  17.837  0.00  0.00    +0.000 A 
ATOM     33  C   UNL     1       8.335  10.757  17.557  0.00  0.00    +0.000 A 
ENDBRANCH  27  28
ENDBRANCH   4  26
TORSDOF 6
ENDMDL
MODEL 5
REMARK VINA RESULT:      -8.3      1.134      1.457
REMARK  Name = 
REMARK  6 active torsions:
REMARK  status: ('A' for Active; 'I' for Inactive)
REMARK    1  A    between atoms: C_2  and  C_3
REMARK    2  A    between atoms: C_3  and  C_4
REMARK    3  A    between atoms: N_9  and  C_10
REMARK    4  A    between atoms: C_13  and  C_14
REMARK    5  A    between atoms: C_15  and  C_16
REMARK    6  A    between atoms: C_26  and  N_27
REMARK                            x       y       z     vdW  Elec       q    Type
REMARK                         _______ _______ _______ _____ _____    ______ ____
ROOT
ATOM      1  C   UNL     1       4.120   5.438  19.043  0.00  0.00    +0.000 A 
ATOM      2  C   UNL     1       5.031   6.458  18.690  0.00  0.00    +0.000 A 
ATOM      3  C   UNL     1       5.998   6.203  17.700  0.00  0.00    +0.000 A 
ATOM      4  C   UNL     1       7.071   6.915  17.075  0.00  0.00    +0.000 A 
ATOM      5  N   UNL     1       7.684   6.151  16.156  0.00  0.00    +0.000 NA
ATOM      6  N   UNL     1       7.037   4.981  16.212  0.00  0.00    +0.000 N 
ATOM      7  C   UNL     1       6.015   4.943  17.120  0.00  0.00    +0.000 A 
ATOM      8  C   UNL     1       5.128   3.911  17.469  0.00  0.00    +0.000 A 
ATOM      9  C   UNL     1       4.153   4.144  18.457  0.00  0.00    +0.000 A 
ATOM     10  H   UNL     1       7.352   4.233  15.607  0.00  0.00    +0.000 HD
ENDROOT
BRANCH   9  11
ATOM     11  N   UNL     1       3.212   3.164  18.829  0.00  0.00    +0.000 N 
ATOM     12  C   UNL     1       1.852   3.140  18.272  0.00  0.00    +0.000 C 
ATOM     13  C   UNL     1       0.943   3.447  19.454  0.00  0.00    +0.000 C 
ATOM     14  C   UNL     1       1.648   2.775  20.616  0.00  0.00    +0.000 C 
ATOM     15  C   UNL     1       3.134   2.886  20.284  0.00  0.00    +0.000 C 
ENDBRANCH   9  11
BRANCH   1  18
ATOM     16  O   UNL     1       1.401   6.607  21.057  0.00  0.00    +0.000 OA
ATOM     17  C   UNL     1       2.068   6.467  20.033  0.00  0.00    +0.000 C 
ATOM     18  N   UNL     1       3.199   5.684  20.081  0.00  0.00    +0.000 N 
ATOM     19  H   UNL     1       3.197   5.006  20.837  0.00  0.00    +0.000 HD
BRANCH  17  20
ATOM     20  C   UNL     1       1.675   7.085  18.693  0.00  0.00    +0.000 C 
BRANCH  20  21
ATOM     21  C   UNL     1       1.730   8.589  18.706  0.00  0.00    +0.000 A 
ATOM     22  C   UNL     1       2.395   9.444  17.849  0.00  0.00    +0.000 A 
ATOM     23  C   UNL     1       2.085  10.813  18.095  0.00  0.00    +0.000 A 
ATOM     24  C   UNL     1       1.216  10.964  19.151  0.00  0.00    +0.000 A 
ATOM     25  S   UNL     1       0.803   9.464  19.857  0.00  0.00    +0.000 S 
ENDBRANCH  20  21
ENDBRANCH  17  20
ENDBRANCH   1  18
BRANCH   4  26
ATOM     26  C   UNL     1       7.471   8.265  17.374  0.00  0.00    +0.000 C 
ATOM     27  C   UNL     1       8.444   8.587  18.246  0.00  0.00    +0.000 C 
BRANCH  27  28
ATOM     28  C   UNL     1       8.845   9.949  18.631  0.00  0.00    +0.000 A 
ATOM     29  C   UNL     1       8.637  10.994  17.718  0.00  0.00    +0.000 A 
ATOM     30  C   UNL     1       9.000  12.307  18.031  0.00  0.00    +0.000 A 
ATOM     31  C   UNL     1       9.569  12.593  19.270  0.00  0.00    +0.000 A 
ATOM     32  C   UNL     1       9.761  11.571  20.197  0.00  0.00    +0.000 A 
ATOM     33  C   UNL     1       9.391  10.257  19.883  0.00  0.00    +0.000 A 
ENDBRANCH  27  28
ENDBRANCH   4  26
TORSDOF 6
ENDMDL
MODEL 6
REMARK VINA RESULT:      -8.1      3.797      7.951
REMARK  Name = 
REMARK  6 active torsions:
REMARK  status: ('A' for Active; 'I' for Inactive)
REMARK    1  A    between atoms: C_2  and  C_3
REMARK    2  A    between atoms: C_3  and  C_4
REMARK    3  A    between atoms: N_9  and  C_10
REMARK    4  A    between atoms: C_13  and  C_14
REMARK    5  A    between atoms: C_15  and  C_16
REMARK    6  A    between atoms: C_26  and  N_27
REMARK                            x       y       z     vdW  Elec       q    Type
REMARK                         _______ _______ _______ _____ _____    ______ ____
ROOT
ATOM      1  C   UNL     1       2.412   6.608  20.121  0.00  0.00    +0.000 A 
ATOM      2  C   UNL     1       1.493   7.636  20.426  0.00  0.00    +0.000 A 
ATOM      3  C   UNL     1       1.316   8.693  19.511  0.00  0.00    +0.000 A 
ATOM      4  C   UNL     1       0.534   9.889  19.431  0.00  0.00    +0.000 A 
ATOM      5  N   UNL     1       0.775  10.543  18.283  0.00  0.00    +0.000 NA
ATOM      6  N   UNL     1       1.698   9.799  17.664  0.00  0.00    +0.000 N 
ATOM      7  C   UNL     1       2.070   8.675  18.348  0.00  0.00    +0.000 A 
ATOM      8  C   UNL     1       3.001   7.670  18.035  0.00  0.00    +0.000 A 
ATOM      9  C   UNL     1       3.194   6.605  18.935  0.00  0.00    +0.000 A 
ATOM     10  H   UNL     1       2.050  10.123  16.772  0.00  0.00    +0.000 HD
ENDROOT
BRANCH   9  11
ATOM     11  N   UNL     1       4.086   5.547  18.666  0.00  0.00    +0.000 N 
ATOM     12  C   UNL     1       5.234   5.259  19.537  0.00  0.00    +0.000 C 
ATOM     13  C   UNL     1       6.456   5.566  18.683  0.00  0.00    +0.000 C 
ATOM     14  C   UNL     1       6.020   5.147  17.292  0.00  0.00    +0.000 C 
ATOM     15  C   UNL     1       4.521   5.435  17.253  0.00  0.00    +0.000 C 
ENDBRANCH   9  11
BRANCH   1  18
ATOM     16  O   UNL     1       2.255   3.639  22.114  0.00  0.00    +0.000 OA
ATOM     17  C   UNL     1       1.964   4.391  21.186  0.00  0.00    +0.000 C 
ATOM     18  N   UNL     1       2.628   5.592  21.073  0.00  0.00    +0.000 N 
ATOM     19  H   UNL     1       3.533   5.604  21.532  0.00  0.00    +0.000 HD
BRANCH  17  20
ATOM     20  C   UNL     1       0.929   4.036  20.121  0.00  0.00    +0.000 C 
BRANCH  20  21
ATOM     21  C   UNL     1       1.536   3.371  18.916  0.00  0.00    +0.000 A 
ATOM     22  C   UNL     1       1.423   3.712  17.582  0.00  0.00    +0.000 A 
ATOM     23  C   UNL     1       2.268   2.927  16.745  0.00  0.00    +0.000 A 
ATOM     24  C   UNL     1       2.979   1.991  17.461  0.00  0.00    +0.000 A 
ATOM     25  S   UNL     1       2.604   2.042  19.126  0.00  0.00    +0.000 S 
ENDBRANCH  20  21
ENDBRANCH  17  20
ENDBRANCH   1  18
BRANCH   4  26
ATOM     26  C   UNL     1      -0.387  10.359  20.432  0.00  0.00    +0.000 C 
ATOM     27  C   UNL     1      -1.125  11.478  20.310  0.00  0.00    +0.000 C 
BRANCH  27  28
ATOM     28  C   UNL     1      -2.032  12.032  21.328  0.00  0.00    +0.000 A 
ATOM     29  C   UNL     1      -3.120  12.811  20.906  0.00  0.00    +0.000 A 
ATOM     30  C   UNL     1      -4.012  13.362  21.831  0.00  0.00    +0.000 A 
ATOM     31  C   UNL     1      -3.830  13.134  23.192  0.00  0.00    +0.000 A 
ATOM     32  C   UNL     1      -2.768  12.343  23.626  0.00  0.00    +0.000 A 
ATOM     33  C   UNL     1      -1.879  11.787  22.698  0.00  0.00    +0.000 A 
ENDBRANCH  27  28
ENDBRANCH   4  26
TORSDOF 6
ENDMDL
MODEL 7
REMARK VINA RESULT:      -8.0      1.736      1.971
REMARK  Name = 
REMARK  6 active torsions:
REMARK  status: ('A' for Active; 'I' for Inactive)
REMARK    1  A    between atoms: C_2  and  C_3
REMARK    2  A    between atoms: C_3  and  C_4
REMARK    3  A    between atoms: N_9  and  C_10
REMARK    4  A    between atoms: C_13  and  C_14
REMARK    5  A    between atoms: C_15  and  C_16
REMARK    6  A    between atoms: C_26  and  N_27
REMARK                            x       y       z     vdW  Elec       q    Type
REMARK                         _______ _______ _______ _____ _____    ______ ____
ROOT
ATOM      1  C   UNL     1       3.592   6.872  17.775  0.00  0.00    +0.000 A 
ATOM      2  C   UNL     1       4.861   7.477  17.642  0.00  0.00    +0.000 A 
ATOM      3  C   UNL     1       6.010   6.751  18.010  0.00  0.00    +0.000 A 
ATOM      4  C   UNL     1       7.423   6.974  18.046  0.00  0.00    +0.000 A 
ATOM      5  N   UNL     1       8.069   5.889  18.503  0.00  0.00    +0.000 NA
ATOM      6  N   UNL     1       7.095   5.011  18.772  0.00  0.00    +0.000 N 
ATOM      7  C   UNL     1       5.834   5.466  18.501  0.00  0.00    +0.000 A 
ATOM      8  C   UNL     1       4.579   4.854  18.656  0.00  0.00    +0.000 A 
ATOM      9  C   UNL     1       3.417   5.561  18.294  0.00  0.00    +0.000 A 
ATOM     10  H   UNL     1       7.357   4.112  19.156  0.00  0.00    +0.000 HD
ENDROOT
BRANCH   9  11
ATOM     11  N   UNL     1       2.131   4.993  18.392  0.00  0.00    +0.000 N 
ATOM     12  C   UNL     1       1.435   4.865  19.680  0.00  0.00    +0.000 C 
ATOM     13  C   UNL     1       1.342   3.365  19.923  0.00  0.00    +0.000 C 
ATOM     14  C   UNL     1       1.153   2.800  18.530  0.00  0.00    +0.000 C 
ATOM     15  C   UNL     1       1.935   3.743  17.619  0.00  0.00    +0.000 C 
ENDBRANCH   9  11
BRANCH   1  18
ATOM     16  O   UNL     1       0.668   8.936  17.887  0.00  0.00    +0.000 OA
ATOM     17  C   UNL     1       1.667   8.370  18.328  0.00  0.00    +0.000 C 
ATOM     18  N   UNL     1       2.446   7.632  17.465  0.00  0.00    +0.000 N 
ATOM     19  H   UNL     1       2.347   7.902  16.491  0.00  0.00    +0.000 HD
BRANCH  17  20
ATOM     20  C   UNL     1       2.114   8.484  19.784  0.00  0.00    +0.000 C 
BRANCH  20  21
ATOM     21  C   UNL     1       1.037   9.027  20.684  0.00  0.00    +0.000 A 
ATOM     22  C   UNL     1       0.163   8.343  21.507  0.00  0.00    +0.000 A 
ATOM     23  C   UNL     1      -0.616   9.217  22.319  0.00  0.00    +0.000 A 
ATOM     24  C   UNL     1      -0.335  10.542  22.071  0.00  0.00    +0.000 A 
ATOM     25  S   UNL     1       0.839  10.726  20.844  0.00  0.00    +0.000 S 
ENDBRANCH  20  21
ENDBRANCH  17  20
ENDBRANCH   1  18
BRANCH   4  26
ATOM     26  C   UNL     1       8.093   8.188  17.661  0.00  0.00    +0.000 C 
ATOM     27  C   UNL     1       8.384   9.190  18.512  0.00  0.00    +0.000 C 
BRANCH  27  28
ATOM     28  C   UNL     1       9.009  10.474  18.155  0.00  0.00    +0.000 A 
ATOM     29  C   UNL     1       8.181  11.544  17.784  0.00  0.00    +0.000 A 
ATOM     30  C   UNL     1       8.722  12.785  17.435  0.00  0.00    +0.000 A 
ATOM     31  C   UNL     1      10.102  12.974  17.461  0.00  0.00    +0.000 A 
ATOM     32  C   UNL     1      10.936  11.928  17.850  0.00  0.00    +0.000 A 
ATOM     33  C   UNL     1      10.392  10.687  18.205  0.00  0.00    +0.000 A 
ENDBRANCH  27  28
ENDBRANCH   4  26
TORSDOF 6
ENDMDL
MODEL 8
REMARK VINA RESULT:      -7.8      4.675      8.357
REMARK  Name = 
REMARK  6 active torsions:
REMARK  status: ('A' for Active; 'I' for Inactive)
REMARK    1  A    between atoms: C_2  and  C_3
REMARK    2  A    between atoms: C_3  and  C_4
REMARK    3  A    between atoms: N_9  and  C_10
REMARK    4  A    between atoms: C_13  and  C_14
REMARK    5  A    between atoms: C_15  and  C_16
REMARK    6  A    between atoms: C_26  and  N_27
REMARK                            x       y       z     vdW  Elec       q    Type
REMARK                         _______ _______ _______ _____ _____    ______ ____
ROOT
ATOM      1  C   UNL     1      -0.970  11.027  18.938  0.00  0.00    +0.000 A 
ATOM      2  C   UNL     1      -0.151   9.888  19.098  0.00  0.00    +0.000 A 
ATOM      3  C   UNL     1       0.317   9.552  20.383  0.00  0.00    +0.000 A 
ATOM      4  C   UNL     1       1.141   8.537  20.966  0.00  0.00    +0.000 A 
ATOM      5  N   UNL     1       1.250   8.712  22.293  0.00  0.00    +0.000 NA
ATOM      6  N   UNL     1       0.537   9.816  22.543  0.00  0.00    +0.000 N 
ATOM      7  C   UNL     1      -0.047  10.373  21.439  0.00  0.00    +0.000 A 
ATOM      8  C   UNL     1      -0.848  11.519  21.298  0.00  0.00    +0.000 A 
ATOM      9  C   UNL     1      -1.326  11.873  20.023  0.00  0.00    +0.000 A 
ATOM     10  H   UNL     1       0.499  10.153  23.497  0.00  0.00    +0.000 HD
ENDROOT
BRANCH   9  11
ATOM     11  N   UNL     1      -2.161  12.990  19.817  0.00  0.00    +0.000 N 
ATOM     12  C   UNL     1      -1.706  14.361  20.089  0.00  0.00    +0.000 C 
ATOM     13  C   UNL     1      -2.559  14.829  21.259  0.00  0.00    +0.000 C 
ATOM     14  C   UNL     1      -3.897  14.165  20.999  0.00  0.00    +0.000 C 
ATOM     15  C   UNL     1      -3.547  12.841  20.323  0.00  0.00    +0.000 C 
ENDBRANCH   9  11
BRANCH   1  18
ATOM     16  O   UNL     1      -2.647  11.320  15.789  0.00  0.00    +0.000 OA
ATOM     17  C   UNL     1      -2.470  10.926  16.940  0.00  0.00    +0.000 C 
ATOM     18  N   UNL     1      -1.378  11.390  17.639  0.00  0.00    +0.000 N 
ATOM     19  H   UNL     1      -1.017  12.274  17.296  0.00  0.00    +0.000 HD
BRANCH  17  20
ATOM     20  C   UNL     1      -3.432   9.978  17.653  0.00  0.00    +0.000 C 
BRANCH  20  21
ATOM     21  C   UNL     1      -4.796  10.579  17.861  0.00  0.00    +0.000 A 
ATOM     22  C   UNL     1      -5.805  10.175  18.714  0.00  0.00    +0.000 A 
ATOM     23  C   UNL     1      -6.897  11.089  18.737  0.00  0.00    +0.000 A 
ATOM     24  C   UNL     1      -6.703  12.148  17.880  0.00  0.00    +0.000 A 
ATOM     25  S   UNL     1      -5.225  12.021  17.033  0.00  0.00    +0.000 S 
ENDBRANCH  20  21
ENDBRANCH  17  20
ENDBRANCH   1  18
BRANCH   4  26
ATOM     26  C   UNL     1       1.787   7.467  20.253  0.00  0.00    +0.000 C 
ATOM     27  C   UNL     1       2.399   7.616  19.063  0.00  0.00    +0.000 C 
BRANCH  27  28
ATOM     28  C   UNL     1       3.017   6.543  18.269  0.00  0.00    +0.000 A 
ATOM     29  C   UNL     1       2.421   5.273  18.277  0.00  0.00    +0.000 A 
ATOM     30  C   UNL     1       2.968   4.217  17.540  0.00  0.00    +0.000 A 
ATOM     31  C   UNL     1       4.115   4.423  16.778  0.00  0.00    +0.000 A 
ATOM     32  C   UNL     1       4.705   5.684  16.741  0.00  0.00    +0.000 A 
ATOM     33  C   UNL     1       4.153   6.742  17.475  0.00  0.00    +0.000 A 
ENDBRANCH  27  28
ENDBRANCH   4  26
TORSDOF 6
ENDMDL
MODEL 9
REMARK VINA RESULT:      -7.7      5.336      8.685
REMARK  Name = 
REMARK  6 active torsions:
REMARK  status: ('A' for Active; 'I' for Inactive)
REMARK    1  A    between atoms: C_2  and  C_3
REMARK    2  A    between atoms: C_3  and  C_4
REMARK    3  A    between atoms: N_9  and  C_10
REMARK    4  A    between atoms: C_13  and  C_14
REMARK    5  A    between atoms: C_15  and  C_16
REMARK    6  A    between atoms: C_26  and  N_27
REMARK                            x       y       z     vdW  Elec       q    Type
REMARK                         _______ _______ _______ _____ _____    ______ ____
ROOT
ATOM      1  C   UNL     1      -0.705  10.832  18.774  0.00  0.00    +0.000 A 
ATOM      2  C   UNL     1       0.028   9.642  18.981  0.00  0.00    +0.000 A 
ATOM      3  C   UNL     1       0.533   9.360  20.265  0.00  0.00    +0.000 A 
ATOM      4  C   UNL     1       1.302   8.324  20.884  0.00  0.00    +0.000 A 
ATOM      5  N   UNL     1       1.494   8.582  22.188  0.00  0.00    +0.000 NA
ATOM      6  N   UNL     1       0.886   9.758  22.387  0.00  0.00    +0.000 N 
ATOM      7  C   UNL     1       0.291  10.282  21.272  0.00  0.00    +0.000 A 
ATOM      8  C   UNL     1      -0.422  11.478  21.083  0.00  0.00    +0.000 A 
ATOM      9  C   UNL     1      -0.936  11.779  19.808  0.00  0.00    +0.000 A 
ATOM     10  H   UNL     1       0.924  10.163  23.314  0.00  0.00    +0.000 HD
ENDROOT
BRANCH   9  11
ATOM     11  N   UNL     1      -1.688  12.945  19.558  0.00  0.00    +0.000 N 
ATOM     12  C   UNL     1      -1.060  14.271  19.469  0.00  0.00    +0.000 C 
ATOM     13  C   UNL     1      -1.597  15.036  20.670  0.00  0.00    +0.000 C 
ATOM     14  C   UNL     1      -3.015  14.517  20.806  0.00  0.00    +0.000 C 
ATOM     15  C   UNL     1      -2.942  13.064  20.340  0.00  0.00    +0.000 C 
ENDBRANCH   9  11
BRANCH   1  18
ATOM     16  O   UNL     1      -2.566  11.130  15.731  0.00  0.00    +0.000 OA
ATOM     17  C   UNL     1      -2.367  10.827  16.906  0.00  0.00    +0.000 C 
ATOM     18  N   UNL     1      -1.149  11.134  17.472  0.00  0.00    +0.000 N 
ATOM     19  H   UNL     1      -0.659  11.890  17.004  0.00  0.00    +0.000 HD
BRANCH  17  20
ATOM     20  C   UNL     1      -3.424  10.165  17.787  0.00  0.00    +0.000 C 
BRANCH  20  21
ATOM     21  C   UNL     1      -4.704  10.955  17.854  0.00  0.00    +0.000 A 
ATOM     22  C   UNL     1      -5.041  12.125  17.202  0.00  0.00    +0.000 A 
ATOM     23  C   UNL     1      -6.403  12.490  17.407  0.00  0.00    +0.000 A 
ATOM     24  C   UNL     1      -7.057  11.603  18.232  0.00  0.00    +0.000 A 
ATOM     25  S   UNL     1      -6.023  10.359  18.779  0.00  0.00    +0.000 S 
ENDBRANCH  20  21
ENDBRANCH  17  20
ENDBRANCH   1  18
BRANCH   4  26
ATOM     26  C   UNL     1       1.823   7.156  20.224  0.00  0.00    +0.000 C 
ATOM     27  C   UNL     1       1.592   5.894  20.632  0.00  0.00    +0.000 C 
BRANCH  27  28
ATOM     28  C   UNL     1       2.152   4.674  20.030  0.00  0.00    +0.000 A 
ATOM     29  C   UNL     1       3.496   4.679  19.628  0.00  0.00    +0.000 A 
ATOM     30  C   UNL     1       4.078   3.548  19.049  0.00  0.00    +0.000 A 
ATOM     31  C   UNL     1       3.323   2.391  18.873  0.00  0.00    +0.000 A 
ATOM     32  C   UNL     1       1.994   2.362  19.288  0.00  0.00    +0.000 A 
ATOM     33  C   UNL     1       1.413   3.495  19.873  0.00  0.00    +0.000 A 
ENDBRANCH  27  28
ENDBRANCH   4  26
TORSDOF 6
ENDMDL
