MODEL 1
REMARK VINA RESULT:      -7.8      0.000      0.000
REMARK  Name = 
REMARK  5 active torsions:
REMARK  status: ('A' for Active; 'I' for Inactive)
REMARK    1  A    between atoms: C_1  and  C_2
REMARK    2  A    between atoms: C_2  and  N_3
REMARK    3  A    between atoms: C_6  and  C_7
REMARK    4  A    between atoms: N_13  and  S_14
REMARK    5  A    between atoms: S_14  and  C_17
REMARK                            x       y       z     vdW  Elec       q    Type
REMARK                         _______ _______ _______ _____ _____    ______ ____
ROOT
ATOM      1  N   UNL     1       3.121   4.458  20.172  0.00  0.00    +0.000 N 
ATOM      2  C   UNL     1       3.197   5.551  19.282  0.00  0.00    +0.000 A 
ATOM      3  C   UNL     1       4.125   5.524  18.265  0.00  0.00    +0.000 A 
ATOM      4  C   UNL     1       4.136   6.604  17.412  0.00  0.00    +0.000 A 
ATOM      5  C   UNL     1       5.043   6.653  16.222  0.00  0.00    +0.000 C 
ATOM      6  N   UNL     1       3.332   7.668  17.592  0.00  0.00    +0.000 NA
ATOM      7  C   UNL     1       2.512   7.664  18.648  0.00  0.00    +0.000 A 
ATOM      8  N   UNL     1       1.788   8.790  18.932  0.00  0.00    +0.000 N 
ATOM      9  C   UNL     1       0.934   8.831  20.115  0.00  0.00    +0.000 C 
ATOM     10  C   UNL     1       1.022  10.224  20.767  0.00  0.00    +0.000 C 
ATOM     11  N   UNL     1       0.780  11.337  19.790  0.00  0.00    +0.000 NA
ATOM     12  C   UNL     1       1.737  11.215  18.635  0.00  0.00    +0.000 C 
ATOM     13  C   UNL     1       1.623   9.848  17.938  0.00  0.00    +0.000 C 
ATOM     14  N   UNL     1       2.420   6.622  19.484  0.00  0.00    +0.000 NA
ATOM     15  H   UNL     1       3.299   3.598  19.662  0.00  0.00    +0.000 HD
ENDROOT
BRANCH  11  16
ATOM     16  S   UNL     1      -0.833  11.641  19.354  0.00  0.00    +0.000 S 
ATOM     17  O   UNL     1      -0.872  12.697  18.373  0.00  0.00    +0.000 OA
ATOM     18  O   UNL     1      -1.474  10.367  19.083  0.00  0.00    +0.000 OA
BRANCH  16  19
ATOM     19  C   UNL     1      -1.539  12.273  20.841  0.00  0.00    +0.000 A 
ATOM     20  C   UNL     1      -0.735  12.506  21.967  0.00  0.00    +0.000 A 
ATOM     21  C   UNL     1      -1.313  13.033  23.123  0.00  0.00    +0.000 A 
ATOM     22  C   UNL     1      -2.676  13.322  23.139  0.00  0.00    +0.000 A 
ATOM     23  F   UNL     1      -3.221  13.839  24.250  0.00  0.00    +0.000 F 
ATOM     24  C   UNL     1      -3.465  13.084  22.020  0.00  0.00    +0.000 A 
ATOM     25  F   UNL     1      -4.773  13.381  22.048  0.00  0.00    +0.000 F 
ATOM     26  C   UNL     1      -2.898  12.553  20.868  0.00  0.00    +0.000 A 
ATOM     27  F   UNL     1      -3.675  12.340  19.797  0.00  0.00    +0.000 F 
ENDBRANCH  16  19
ENDBRANCH  11  16
BRANCH   1  29
ATOM     28  C   UNL     1       1.076   3.156  20.434  0.00  0.00    +0.000 C 
ATOM     29  C   UNL     1       1.833   4.400  20.865  0.00  0.00    +0.000 C 
ENDBRANCH   1  29
TORSDOF 3
ENDMDL
MODEL 2
REMARK VINA RESULT:      -7.6      1.688      3.278
REMARK  Name = 
REMARK  5 active torsions:
REMARK  status: ('A' for Active; 'I' for Inactive)
REMARK    1  A    between atoms: C_1  and  C_2
REMARK    2  A    between atoms: C_2  and  N_3
REMARK    3  A    between atoms: C_6  and  C_7
REMARK    4  A    between atoms: N_13  and  S_14
REMARK    5  A    between atoms: S_14  and  C_17
REMARK                            x       y       z     vdW  Elec       q    Type
REMARK                         _______ _______ _______ _____ _____    ______ ____
ROOT
ATOM      1  N   UNL     1       4.548   5.046  17.650  0.00  0.00    +0.000 N 
ATOM      2  C   UNL     1       3.665   5.260  18.731  0.00  0.00    +0.000 A 
ATOM      3  C   UNL     1       3.343   4.203  19.552  0.00  0.00    +0.000 A 
ATOM      4  C   UNL     1       2.498   4.474  20.604  0.00  0.00    +0.000 A 
ATOM      5  C   UNL     1       2.140   3.426  21.612  0.00  0.00    +0.000 C 
ATOM      6  N   UNL     1       1.954   5.691  20.791  0.00  0.00    +0.000 NA
ATOM      7  C   UNL     1       2.245   6.651  19.907  0.00  0.00    +0.000 A 
ATOM      8  N   UNL     1       1.597   7.854  19.994  0.00  0.00    +0.000 N 
ATOM      9  C   UNL     1       1.852   8.895  19.004  0.00  0.00    +0.000 C 
ATOM     10  C   UNL     1       0.534   9.616  18.662  0.00  0.00    +0.000 C 
ATOM     11  N   UNL     1      -0.201  10.087  19.881  0.00  0.00    +0.000 NA
ATOM     12  C   UNL     1      -0.440   8.928  20.811  0.00  0.00    +0.000 C 
ATOM     13  C   UNL     1       0.873   8.231  21.207  0.00  0.00    +0.000 C 
ATOM     14  N   UNL     1       3.099   6.462  18.894  0.00  0.00    +0.000 NA
ATOM     15  H   UNL     1       5.259   4.376  17.927  0.00  0.00    +0.000 HD
ENDROOT
BRANCH  11  16
ATOM     16  S   UNL     1       0.377  11.498  20.631  0.00  0.00    +0.000 S 
ATOM     17  O   UNL     1       1.171  11.139  21.779  0.00  0.00    +0.000 OA
ATOM     18  O   UNL     1       0.929  12.360  19.601  0.00  0.00    +0.000 OA
BRANCH  16  19
ATOM     19  C   UNL     1      -1.094  12.270  21.223  0.00  0.00    +0.000 A 
ATOM     20  C   UNL     1      -1.736  13.257  20.460  0.00  0.00    +0.000 A 
ATOM     21  C   UNL     1      -2.914  13.833  20.939  0.00  0.00    +0.000 A 
ATOM     22  C   UNL     1      -3.435  13.416  22.162  0.00  0.00    +0.000 A 
ATOM     23  F   UNL     1      -4.574  13.965  22.608  0.00  0.00    +0.000 F 
ATOM     24  C   UNL     1      -2.790  12.439  22.912  0.00  0.00    +0.000 A 
ATOM     25  F   UNL     1      -3.313  12.039  24.080  0.00  0.00    +0.000 F 
ATOM     26  C   UNL     1      -1.613  11.868  22.445  0.00  0.00    +0.000 A 
ATOM     27  F   UNL     1      -1.013  10.920  23.180  0.00  0.00    +0.000 F 
ENDBRANCH  16  19
ENDBRANCH  11  16
BRANCH   1  29
ATOM     28  C   UNL     1       5.225   6.289  15.665  0.00  0.00    +0.000 C 
ATOM     29  C   UNL     1       5.155   6.293  17.181  0.00  0.00    +0.000 C 
ENDBRANCH   1  29
TORSDOF 3
ENDMDL
MODEL 3
REMARK VINA RESULT:      -7.6      1.426      2.965
REMARK  Name = 
REMARK  5 active torsions:
REMARK  status: ('A' for Active; 'I' for Inactive)
REMARK    1  A    between atoms: C_1  and  C_2
REMARK    2  A    between atoms: C_2  and  N_3
REMARK    3  A    between atoms: C_6  and  C_7
REMARK    4  A    between atoms: N_13  and  S_14
REMARK    5  A    between atoms: S_14  and  C_17
REMARK                            x       y       z     vdW  Elec       q    Type
REMARK                         _______ _______ _______ _____ _____    ______ ____
ROOT
ATOM      1  N   UNL     1       4.456   5.393  17.335  0.00  0.00    +0.000 N 
ATOM      2  C   UNL     1       3.625   5.621  18.453  0.00  0.00    +0.000 A 
ATOM      3  C   UNL     1       3.353   4.578  19.310  0.00  0.00    +0.000 A 
ATOM      4  C   UNL     1       2.558   4.863  20.397  0.00  0.00    +0.000 A 
ATOM      5  C   UNL     1       2.260   3.833  21.442  0.00  0.00    +0.000 C 
ATOM      6  N   UNL     1       2.013   6.079  20.586  0.00  0.00    +0.000 NA
ATOM      7  C   UNL     1       2.251   7.023  19.671  0.00  0.00    +0.000 A 
ATOM      8  N   UNL     1       1.597   8.222  19.766  0.00  0.00    +0.000 N 
ATOM      9  C   UNL     1       1.793   9.245  18.744  0.00  0.00    +0.000 C 
ATOM     10  C   UNL     1       0.453   9.947  18.452  0.00  0.00    +0.000 C 
ATOM     11  N   UNL     1      -0.226  10.437  19.697  0.00  0.00    +0.000 NA
ATOM     12  C   UNL     1      -0.408   9.295  20.660  0.00  0.00    +0.000 C 
ATOM     13  C   UNL     1       0.930   8.617  21.004  0.00  0.00    +0.000 C 
ATOM     14  N   UNL     1       3.056   6.821  18.620  0.00  0.00    +0.000 NA
ATOM     15  H   UNL     1       5.187   4.735  17.590  0.00  0.00    +0.000 HD
ENDROOT
BRANCH  11  16
ATOM     16  S   UNL     1       0.375  11.868  20.389  0.00  0.00    +0.000 S 
ATOM     17  O   UNL     1       1.379  11.540  21.370  0.00  0.00    +0.000 OA
ATOM     18  O   UNL     1       0.678  12.794  19.314  0.00  0.00    +0.000 OA
BRANCH  16  19
ATOM     19  C   UNL     1      -1.020  12.512  21.254  0.00  0.00    +0.000 A 
ATOM     20  C   UNL     1      -0.938  12.797  22.625  0.00  0.00    +0.000 A 
ATOM     21  C   UNL     1      -2.049  13.333  23.280  0.00  0.00    +0.000 A 
ATOM     22  C   UNL     1      -3.217  13.579  22.563  0.00  0.00    +0.000 A 
ATOM     23  F   UNL     1      -4.274  14.106  23.197  0.00  0.00    +0.000 F 
ATOM     24  C   UNL     1      -3.290  13.290  21.205  0.00  0.00    +0.000 A 
ATOM     25  F   UNL     1      -4.418  13.547  20.526  0.00  0.00    +0.000 F 
ATOM     26  C   UNL     1      -2.191  12.750  20.548  0.00  0.00    +0.000 A 
ATOM     27  F   UNL     1      -2.280  12.488  19.236  0.00  0.00    +0.000 F 
ENDBRANCH  16  19
ENDBRANCH  11  16
BRANCH   1  29
ATOM     28  C   UNL     1       6.489   6.734  17.215  0.00  0.00    +0.000 C 
ATOM     29  C   UNL     1       5.028   6.636  16.813  0.00  0.00    +0.000 C 
ENDBRANCH   1  29
TORSDOF 3
ENDMDL
MODEL 4
REMARK VINA RESULT:      -7.4      1.921      3.450
REMARK  Name = 
REMARK  5 active torsions:
REMARK  status: ('A' for Active; 'I' for Inactive)
REMARK    1  A    between atoms: C_1  and  C_2
REMARK    2  A    between atoms: C_2  and  N_3
REMARK    3  A    between atoms: C_6  and  C_7
REMARK    4  A    between atoms: N_13  and  S_14
REMARK    5  A    between atoms: S_14  and  C_17
REMARK                            x       y       z     vdW  Elec       q    Type
REMARK                         _______ _______ _______ _____ _____    ______ ____
ROOT
ATOM      1  N   UNL     1       4.218   4.893  17.289  0.00  0.00    +0.000 N 
ATOM      2  C   UNL     1       3.463   5.219  18.436  0.00  0.00    +0.000 A 
ATOM      3  C   UNL     1       3.161   4.230  19.344  0.00  0.00    +0.000 A 
ATOM      4  C   UNL     1       2.444   4.610  20.456  0.00  0.00    +0.000 A 
ATOM      5  C   UNL     1       2.126   3.641  21.552  0.00  0.00    +0.000 C 
ATOM      6  N   UNL     1       1.998   5.869  20.625  0.00  0.00    +0.000 NA
ATOM      7  C   UNL     1       2.258   6.761  19.663  0.00  0.00    +0.000 A 
ATOM      8  N   UNL     1       1.697   8.008  19.744  0.00  0.00    +0.000 N 
ATOM      9  C   UNL     1       1.915   8.977  18.676  0.00  0.00    +0.000 C 
ATOM     10  C   UNL     1       0.615   9.766  18.422  0.00  0.00    +0.000 C 
ATOM     11  N   UNL     1       0.037  10.348  19.679  0.00  0.00    +0.000 NA
ATOM     12  C   UNL     1      -0.178   9.256  20.692  0.00  0.00    +0.000 C 
ATOM     13  C   UNL     1       1.124   8.493  20.997  0.00  0.00    +0.000 C 
ATOM     14  N   UNL     1       2.991   6.464  18.584  0.00  0.00    +0.000 NA
ATOM     15  H   UNL     1       4.911   4.192  17.533  0.00  0.00    +0.000 HD
ENDROOT
BRANCH  11  16
ATOM     16  S   UNL     1       0.774  11.753  20.286  0.00  0.00    +0.000 S 
ATOM     17  O   UNL     1       1.444  11.445  21.525  0.00  0.00    +0.000 OA
ATOM     18  O   UNL     1       1.500  12.385  19.200  0.00  0.00    +0.000 OA
BRANCH  16  19
ATOM     19  C   UNL     1      -0.598  12.791  20.670  0.00  0.00    +0.000 A 
ATOM     20  C   UNL     1      -1.885  12.468  20.214  0.00  0.00    +0.000 A 
ATOM     21  C   UNL     1      -2.959  13.292  20.555  0.00  0.00    +0.000 A 
ATOM     22  C   UNL     1      -2.737  14.418  21.345  0.00  0.00    +0.000 A 
ATOM     23  F   UNL     1      -3.777  15.197  21.678  0.00  0.00    +0.000 F 
ATOM     24  C   UNL     1      -1.458  14.733  21.789  0.00  0.00    +0.000 A 
ATOM     25  F   UNL     1      -1.264  15.812  22.560  0.00  0.00    +0.000 F 
ATOM     26  C   UNL     1      -0.384  13.921  21.447  0.00  0.00    +0.000 A 
ATOM     27  F   UNL     1       0.840  14.237  21.894  0.00  0.00    +0.000 F 
ENDBRANCH  16  19
ENDBRANCH  11  16
BRANCH   1  29
ATOM     28  C   UNL     1       5.532   5.682  15.392  0.00  0.00    +0.000 C 
ATOM     29  C   UNL     1       4.851   6.071  16.692  0.00  0.00    +0.000 C 
ENDBRANCH   1  29
TORSDOF 3
ENDMDL
MODEL 5
REMARK VINA RESULT:      -7.3      1.223      1.566
REMARK  Name = 
REMARK  5 active torsions:
REMARK  status: ('A' for Active; 'I' for Inactive)
REMARK    1  A    between atoms: C_1  and  C_2
REMARK    2  A    between atoms: C_2  and  N_3
REMARK    3  A    between atoms: C_6  and  C_7
REMARK    4  A    between atoms: N_13  and  S_14
REMARK    5  A    between atoms: S_14  and  C_17
REMARK                            x       y       z     vdW  Elec       q    Type
REMARK                         _______ _______ _______ _____ _____    ______ ____
ROOT
ATOM      1  N   UNL     1       3.100   4.519  20.204  0.00  0.00    +0.000 N 
ATOM      2  C   UNL     1       3.157   5.617  19.319  0.00  0.00    +0.000 A 
ATOM      3  C   UNL     1       4.033   5.578  18.257  0.00  0.00    +0.000 A 
ATOM      4  C   UNL     1       4.029   6.665  17.413  0.00  0.00    +0.000 A 
ATOM      5  C   UNL     1       4.877   6.702  16.180  0.00  0.00    +0.000 C 
ATOM      6  N   UNL     1       3.261   7.746  17.641  0.00  0.00    +0.000 NA
ATOM      7  C   UNL     1       2.494   7.752  18.737  0.00  0.00    +0.000 A 
ATOM      8  N   UNL     1       1.812   8.893  19.065  0.00  0.00    +0.000 N 
ATOM      9  C   UNL     1       1.019   8.943  20.289  0.00  0.00    +0.000 C 
ATOM     10  C   UNL     1       1.173  10.328  20.947  0.00  0.00    +0.000 C 
ATOM     11  N   UNL     1       0.911  11.455  19.991  0.00  0.00    +0.000 NA
ATOM     12  C   UNL     1       1.806  11.321  18.789  0.00  0.00    +0.000 C 
ATOM     13  C   UNL     1       1.625   9.963  18.088  0.00  0.00    +0.000 C 
ATOM     14  N   UNL     1       2.418   6.705  19.568  0.00  0.00    +0.000 NA
ATOM     15  H   UNL     1       3.231   3.659  19.679  0.00  0.00    +0.000 HD
ENDROOT
BRANCH  11  16
ATOM     16  S   UNL     1      -0.714  11.802  19.638  0.00  0.00    +0.000 S 
ATOM     17  O   UNL     1      -0.776  12.780  18.581  0.00  0.00    +0.000 OA
ATOM     18  O   UNL     1      -1.425  10.543  19.512  0.00  0.00    +0.000 OA
BRANCH  16  19
ATOM     19  C   UNL     1      -1.289  12.578  21.113  0.00  0.00    +0.000 A 
ATOM     20  C   UNL     1      -2.374  12.043  21.823  0.00  0.00    +0.000 A 
ATOM     21  C   UNL     1      -2.792  12.661  23.003  0.00  0.00    +0.000 A 
ATOM     22  C   UNL     1      -2.123  13.796  23.458  0.00  0.00    +0.000 A 
ATOM     23  F   UNL     1      -2.523  14.375  24.599  0.00  0.00    +0.000 F 
ATOM     24  C   UNL     1      -1.052  14.321  22.746  0.00  0.00    +0.000 A 
ATOM     25  F   UNL     1      -0.410  15.406  23.205  0.00  0.00    +0.000 F 
ATOM     26  C   UNL     1      -0.635  13.715  21.567  0.00  0.00    +0.000 A 
ATOM     27  F   UNL     1       0.407  14.233  20.901  0.00  0.00    +0.000 F 
ENDBRANCH  16  19
ENDBRANCH  11  16
BRANCH   1  29
ATOM     28  C   UNL     1       0.983   3.338  20.467  0.00  0.00    +0.000 C 
ATOM     29  C   UNL     1       1.846   4.486  20.959  0.00  0.00    +0.000 C 
ENDBRANCH   1  29
TORSDOF 3
ENDMDL
MODEL 6
REMARK VINA RESULT:      -7.0      1.911      3.370
REMARK  Name = 
REMARK  5 active torsions:
REMARK  status: ('A' for Active; 'I' for Inactive)
REMARK    1  A    between atoms: C_1  and  C_2
REMARK    2  A    between atoms: C_2  and  N_3
REMARK    3  A    between atoms: C_6  and  C_7
REMARK    4  A    between atoms: N_13  and  S_14
REMARK    5  A    between atoms: S_14  and  C_17
REMARK                            x       y       z     vdW  Elec       q    Type
REMARK                         _______ _______ _______ _____ _____    ______ ____
ROOT
ATOM      1  N   UNL     1       4.229   5.642  17.169  0.00  0.00    +0.000 N 
ATOM      2  C   UNL     1       3.472   5.609  18.361  0.00  0.00    +0.000 A 
ATOM      3  C   UNL     1       3.293   4.407  19.009  0.00  0.00    +0.000 A 
ATOM      4  C   UNL     1       2.568   4.439  20.179  0.00  0.00    +0.000 A 
ATOM      5  C   UNL     1       2.376   3.212  21.014  0.00  0.00    +0.000 C 
ATOM      6  N   UNL     1       2.002   5.569  20.640  0.00  0.00    +0.000 NA
ATOM      7  C   UNL     1       2.147   6.685  19.917  0.00  0.00    +0.000 A 
ATOM      8  N   UNL     1       1.466   7.812  20.291  0.00  0.00    +0.000 N 
ATOM      9  C   UNL     1       1.559   9.024  19.482  0.00  0.00    +0.000 C 
ATOM     10  C   UNL     1       0.181   9.711  19.422  0.00  0.00    +0.000 C 
ATOM     11  N   UNL     1      -0.422   9.917  20.780  0.00  0.00    +0.000 NA
ATOM     12  C   UNL     1      -0.502   8.601  21.506  0.00  0.00    +0.000 C 
ATOM     13  C   UNL     1       0.876   7.927  21.623  0.00  0.00    +0.000 C 
ATOM     14  N   UNL     1       2.881   6.728  18.799  0.00  0.00    +0.000 NA
ATOM     15  H   UNL     1       4.995   4.979  17.242  0.00  0.00    +0.000 HD
ENDROOT
BRANCH  11  16
ATOM     16  S   UNL     1       0.183  11.208  21.703  0.00  0.00    +0.000 S 
ATOM     17  O   UNL     1       0.186  10.840  23.097  0.00  0.00    +0.000 OA
ATOM     18  O   UNL     1       1.400  11.682  21.070  0.00  0.00    +0.000 OA
BRANCH  16  19
ATOM     19  C   UNL     1      -1.038  12.462  21.489  0.00  0.00    +0.000 A 
ATOM     20  C   UNL     1      -0.807  13.539  20.619  0.00  0.00    +0.000 A 
ATOM     21  C   UNL     1      -1.802  14.504  20.447  0.00  0.00    +0.000 A 
ATOM     22  C   UNL     1      -3.006  14.380  21.136  0.00  0.00    +0.000 A 
ATOM     23  F   UNL     1      -3.960  15.305  20.954  0.00  0.00    +0.000 F 
ATOM     24  C   UNL     1      -3.224  13.312  21.998  0.00  0.00    +0.000 A 
ATOM     25  F   UNL     1      -4.394  13.201  22.643  0.00  0.00    +0.000 F 
ATOM     26  C   UNL     1      -2.236  12.352  22.181  0.00  0.00    +0.000 A 
ATOM     27  F   UNL     1      -2.471  11.325  23.010  0.00  0.00    +0.000 F 
ENDBRANCH  16  19
ENDBRANCH  11  16
BRANCH   1  29
ATOM     28  C   UNL     1       6.211   7.062  17.174  0.00  0.00    +0.000 C 
ATOM     29  C   UNL     1       4.725   6.986  16.870  0.00  0.00    +0.000 C 
ENDBRANCH   1  29
TORSDOF 3
ENDMDL
MODEL 7
REMARK VINA RESULT:      -7.0      1.165      1.371
REMARK  Name = 
REMARK  5 active torsions:
REMARK  status: ('A' for Active; 'I' for Inactive)
REMARK    1  A    between atoms: C_1  and  C_2
REMARK    2  A    between atoms: C_2  and  N_3
REMARK    3  A    between atoms: C_6  and  C_7
REMARK    4  A    between atoms: N_13  and  S_14
REMARK    5  A    between atoms: S_14  and  C_17
REMARK                            x       y       z     vdW  Elec       q    Type
REMARK                         _______ _______ _______ _____ _____    ______ ____
ROOT
ATOM      1  N   UNL     1       3.062   4.397  20.044  0.00  0.00    +0.000 N 
ATOM      2  C   UNL     1       3.158   5.510  19.180  0.00  0.00    +0.000 A 
ATOM      3  C   UNL     1       4.093   5.495  18.170  0.00  0.00    +0.000 A 
ATOM      4  C   UNL     1       4.125   6.595  17.343  0.00  0.00    +0.000 A 
ATOM      5  C   UNL     1       5.042   6.660  16.161  0.00  0.00    +0.000 C 
ATOM      6  N   UNL     1       3.333   7.665  17.542  0.00  0.00    +0.000 NA
ATOM      7  C   UNL     1       2.504   7.646  18.592  0.00  0.00    +0.000 A 
ATOM      8  N   UNL     1       1.792   8.775  18.897  0.00  0.00    +0.000 N 
ATOM      9  C   UNL     1       0.929   8.798  20.074  0.00  0.00    +0.000 C 
ATOM     10  C   UNL     1       1.030  10.174  20.760  0.00  0.00    +0.000 C 
ATOM     11  N   UNL     1       0.810  11.312  19.807  0.00  0.00    +0.000 NA
ATOM     12  C   UNL     1       1.775  11.206  18.657  0.00  0.00    +0.000 C 
ATOM     13  C   UNL     1       1.649   9.857  17.927  0.00  0.00    +0.000 C 
ATOM     14  N   UNL     1       2.393   6.586  19.402  0.00  0.00    +0.000 NA
ATOM     15  H   UNL     1       3.233   3.547  19.515  0.00  0.00    +0.000 HD
ENDROOT
BRANCH  11  16
ATOM     16  S   UNL     1      -0.796  11.647  19.366  0.00  0.00    +0.000 S 
ATOM     17  O   UNL     1      -0.817  12.250  18.057  0.00  0.00    +0.000 OA
ATOM     18  O   UNL     1      -1.593  10.466  19.640  0.00  0.00    +0.000 OA
BRANCH  16  19
ATOM     19  C   UNL     1      -1.281  12.884  20.526  0.00  0.00    +0.000 A 
ATOM     20  C   UNL     1      -1.327  14.234  20.149  0.00  0.00    +0.000 A 
ATOM     21  C   UNL     1      -1.741  15.190  21.079  0.00  0.00    +0.000 A 
ATOM     22  C   UNL     1      -2.106  14.788  22.362  0.00  0.00    +0.000 A 
ATOM     23  F   UNL     1      -2.515  15.712  23.244  0.00  0.00    +0.000 F 
ATOM     24  C   UNL     1      -2.054  13.448  22.727  0.00  0.00    +0.000 A 
ATOM     25  F   UNL     1      -2.423  13.077  23.962  0.00  0.00    +0.000 F 
ATOM     26  C   UNL     1      -1.636  12.492  21.810  0.00  0.00    +0.000 A 
ATOM     27  F   UNL     1      -1.603  11.204  22.180  0.00  0.00    +0.000 F 
ENDBRANCH  16  19
ENDBRANCH  11  16
BRANCH   1  29
ATOM     28  C   UNL     1       1.737   3.147  21.664  0.00  0.00    +0.000 C 
ATOM     29  C   UNL     1       1.767   4.339  20.725  0.00  0.00    +0.000 C 
ENDBRANCH   1  29
TORSDOF 3
ENDMDL
MODEL 8
REMARK VINA RESULT:      -7.0      2.350      2.603
REMARK  Name = 
REMARK  5 active torsions:
REMARK  status: ('A' for Active; 'I' for Inactive)
REMARK    1  A    between atoms: C_1  and  C_2
REMARK    2  A    between atoms: C_2  and  N_3
REMARK    3  A    between atoms: C_6  and  C_7
REMARK    4  A    between atoms: N_13  and  S_14
REMARK    5  A    between atoms: S_14  and  C_17
REMARK                            x       y       z     vdW  Elec       q    Type
REMARK                         _______ _______ _______ _____ _____    ______ ____
ROOT
ATOM      1  N   UNL     1       3.108   4.491  20.220  0.00  0.00    +0.000 N 
ATOM      2  C   UNL     1       3.169   5.583  19.327  0.00  0.00    +0.000 A 
ATOM      3  C   UNL     1       4.072   5.549  18.288  0.00  0.00    +0.000 A 
ATOM      4  C   UNL     1       4.070   6.629  17.434  0.00  0.00    +0.000 A 
ATOM      5  C   UNL     1       4.948   6.670  16.222  0.00  0.00    +0.000 C 
ATOM      6  N   UNL     1       3.278   7.698  17.633  0.00  0.00    +0.000 NA
ATOM      7  C   UNL     1       2.483   7.700  18.709  0.00  0.00    +0.000 A 
ATOM      8  N   UNL     1       1.774   8.831  19.010  0.00  0.00    +0.000 N 
ATOM      9  C   UNL     1       0.949   8.878  20.213  0.00  0.00    +0.000 C 
ATOM     10  C   UNL     1       1.062  10.272  20.861  0.00  0.00    +0.000 C 
ATOM     11  N   UNL     1       0.804  11.385  19.889  0.00  0.00    +0.000 NA
ATOM     12  C   UNL     1       1.732  11.256  18.711  0.00  0.00    +0.000 C 
ATOM     13  C   UNL     1       1.592   9.889  18.018  0.00  0.00    +0.000 C 
ATOM     14  N   UNL     1       2.405   6.659  19.547  0.00  0.00    +0.000 NA
ATOM     15  H   UNL     1       3.268   3.629  19.706  0.00  0.00    +0.000 HD
ENDROOT
BRANCH  11  16
ATOM     16  S   UNL     1      -0.817  11.700  19.492  0.00  0.00    +0.000 S 
ATOM     17  O   UNL     1      -1.027  11.434  18.091  0.00  0.00    +0.000 OA
ATOM     18  O   UNL     1      -1.656  11.063  20.491  0.00  0.00    +0.000 OA
BRANCH  16  19
ATOM     19  C   UNL     1      -0.957  13.442  19.728  0.00  0.00    +0.000 A 
ATOM     20  C   UNL     1      -1.747  13.958  20.766  0.00  0.00    +0.000 A 
ATOM     21  C   UNL     1      -1.820  15.340  20.949  0.00  0.00    +0.000 A 
ATOM     22  C   UNL     1      -1.104  16.183  20.101  0.00  0.00    +0.000 A 
ATOM     23  F   UNL     1      -1.169  17.509  20.292  0.00  0.00    +0.000 F 
ATOM     24  C   UNL     1      -0.327  15.663  19.073  0.00  0.00    +0.000 A 
ATOM     25  F   UNL     1       0.367  16.488  18.276  0.00  0.00    +0.000 F 
ATOM     26  C   UNL     1      -0.256  14.288  18.881  0.00  0.00    +0.000 A 
ATOM     27  F   UNL     1       0.508  13.807  17.890  0.00  0.00    +0.000 F 
ENDBRANCH  16  19
ENDBRANCH  11  16
BRANCH   1  29
ATOM     28  C   UNL     1       1.652   3.067  21.560  0.00  0.00    +0.000 C 
ATOM     29  C   UNL     1       1.837   4.442  20.944  0.00  0.00    +0.000 C 
ENDBRANCH   1  29
TORSDOF 3
ENDMDL
MODEL 9
REMARK VINA RESULT:      -6.8      2.020      2.209
REMARK  Name = 
REMARK  5 active torsions:
REMARK  status: ('A' for Active; 'I' for Inactive)
REMARK    1  A    between atoms: C_1  and  C_2
REMARK    2  A    between atoms: C_2  and  N_3
REMARK    3  A    between atoms: C_6  and  C_7
REMARK    4  A    between atoms: N_13  and  S_14
REMARK    5  A    between atoms: S_14  and  C_17
REMARK                            x       y       z     vdW  Elec       q    Type
REMARK                         _______ _______ _______ _____ _____    ______ ____
ROOT
ATOM      1  N   UNL     1       3.051   4.419  20.256  0.00  0.00    +0.000 N 
ATOM      2  C   UNL     1       3.143   5.497  19.349  0.00  0.00    +0.000 A 
ATOM      3  C   UNL     1       4.057   5.431  18.322  0.00  0.00    +0.000 A 
ATOM      4  C   UNL     1       4.085   6.499  17.452  0.00  0.00    +0.000 A 
ATOM      5  C   UNL     1       4.978   6.507  16.251  0.00  0.00    +0.000 C 
ATOM      6  N   UNL     1       3.311   7.586  17.627  0.00  0.00    +0.000 NA
ATOM      7  C   UNL     1       2.505   7.617  18.694  0.00  0.00    +0.000 A 
ATOM      8  N   UNL     1       1.814   8.767  18.971  0.00  0.00    +0.000 N 
ATOM      9  C   UNL     1       0.976   8.846  20.163  0.00  0.00    +0.000 C 
ATOM     10  C   UNL     1       1.109  10.246  20.794  0.00  0.00    +0.000 C 
ATOM     11  N   UNL     1       0.884  11.350  19.803  0.00  0.00    +0.000 NA
ATOM     12  C   UNL     1       1.822  11.187  18.638  0.00  0.00    +0.000 C 
ATOM     13  C   UNL     1       1.664   9.814  17.963  0.00  0.00    +0.000 C 
ATOM     14  N   UNL     1       2.397   6.591  19.545  0.00  0.00    +0.000 NA
ATOM     15  H   UNL     1       3.200   3.547  19.756  0.00  0.00    +0.000 HD
ENDROOT
BRANCH  11  16
ATOM     16  S   UNL     1      -0.727  11.690  19.383  0.00  0.00    +0.000 S 
ATOM     17  O   UNL     1      -0.930  11.393  17.987  0.00  0.00    +0.000 OA
ATOM     18  O   UNL     1      -1.589  11.098  20.389  0.00  0.00    +0.000 OA
BRANCH  16  19
ATOM     19  C   UNL     1      -0.830  13.440  19.573  0.00  0.00    +0.000 A 
ATOM     20  C   UNL     1      -0.158  14.293  18.685  0.00  0.00    +0.000 A 
ATOM     21  C   UNL     1      -0.278  15.676  18.840  0.00  0.00    +0.000 A 
ATOM     22  C   UNL     1      -1.067  16.185  19.870  0.00  0.00    +0.000 A 
ATOM     23  F   UNL     1      -1.187  17.513  20.004  0.00  0.00    +0.000 F 
ATOM     24  C   UNL     1      -1.726  15.332  20.747  0.00  0.00    +0.000 A 
ATOM     25  F   UNL     1      -2.493  15.839  21.724  0.00  0.00    +0.000 F 
ATOM     26  C   UNL     1      -1.604  13.955  20.603  0.00  0.00    +0.000 A 
ATOM     27  F   UNL     1      -2.258  13.151  21.454  0.00  0.00    +0.000 F 
ENDBRANCH  16  19
ENDBRANCH  11  16
BRANCH   1  29
ATOM     28  C   UNL     1       1.394   2.975  21.313  0.00  0.00    +0.000 C 
ATOM     29  C   UNL     1       1.770   4.404  20.966  0.00  0.00    +0.000 C 
ENDBRANCH   1  29
TORSDOF 3
ENDMDL
