MODEL 1
REMARK VINA RESULT:      -8.2      0.000      0.000
REMARK  Name = 
REMARK  8 active torsions:
REMARK  status: ('A' for Active; 'I' for Inactive)
REMARK    1  A    between atoms: C_2  and  C_3
REMARK    2  A    between atoms: C_6  and  C_7
REMARK    3  A    between atoms: C_10  and  C_11
REMARK    4  A    between atoms: C_11  and  C_12
REMARK    5  A    between atoms: C_12  and  C_13
REMARK    6  A    between atoms: C_12  and  N_15
REMARK    7  A    between atoms: C_16  and  C_18
REMARK    8  A    between atoms: C_22  and  N_23
REMARK                            x       y       z     vdW  Elec       q    Type
REMARK                         _______ _______ _______ _____ _____    ______ ____
ROOT
ATOM      1  C   UNL     1       6.969   4.453  17.452  0.00  0.00    +0.000 C 
ENDROOT
BRANCH   1   5
ATOM      2  C   UNL     1       8.282   8.516  18.336  0.00  0.00    +0.000 A 
ATOM      3  C   UNL     1       8.553   7.452  19.214  0.00  0.00    +0.000 A 
ATOM      4  C   UNL     1       8.135   6.143  18.933  0.00  0.00    +0.000 A 
ATOM      5  C   UNL     1       7.421   5.860  17.766  0.00  0.00    +0.000 A 
ATOM      6  C   UNL     1       7.119   6.910  16.896  0.00  0.00    +0.000 A 
ATOM      7  C   UNL     1       7.550   8.209  17.176  0.00  0.00    +0.000 A 
BRANCH   2  11
ATOM      8  C   UNL     1       9.564  12.563  19.148  0.00  0.00    +0.000 A 
ATOM      9  C   UNL     1       8.935  12.254  17.942  0.00  0.00    +0.000 A 
ATOM     10  C   UNL     1       8.541  10.939  17.669  0.00  0.00    +0.000 A 
ATOM     11  C   UNL     1       8.768   9.896  18.586  0.00  0.00    +0.000 A 
ATOM     12  C   UNL     1       9.436  10.231  19.780  0.00  0.00    +0.000 A 
ATOM     13  C   UNL     1       9.816  11.546  20.068  0.00  0.00    +0.000 A 
BRANCH   8  15
ATOM     14  N   UNL     1      10.239  15.007  19.692  0.00  0.00    +0.000 NA
ATOM     15  C   UNL     1       9.935  13.912  19.446  0.00  0.00    +0.000 C 
ENDBRANCH   8  15
ENDBRANCH   2  11
ENDBRANCH   1   5
BRANCH   1  16
ATOM     16  C   UNL     1       5.692   4.385  16.594  0.00  0.00    +0.000 C 
BRANCH  16  17
ATOM     17  N   UNL     1       4.759   3.395  17.149  0.00  0.00    +0.000 N 
ATOM     18  C   UNL     1       3.505   3.762  17.589  0.00  0.00    +0.000 C 
ATOM     19  O   UNL     1       3.120   4.926  17.538  0.00  0.00    +0.000 OA
ATOM     20  H   UNL     1       5.094   2.454  17.313  0.00  0.00    +0.000 HD
BRANCH  18  21
ATOM     21  C   UNL     1       2.685   2.611  18.177  0.00  0.00    +0.000 C 
ATOM     22  C   UNL     1       1.247   3.061  18.485  0.00  0.00    +0.000 C 
ATOM     23  C   UNL     1       1.108   3.126  20.008  0.00  0.00    +0.000 C 
ATOM     24  C   UNL     1       2.496   2.879  20.577  0.00  0.00    +0.000 C 
ATOM     25  C   UNL     1       3.186   2.032  19.514  0.00  0.00    +0.000 C 
BRANCH  25  26
ATOM     26  N   UNL     1       4.625   1.967  19.735  0.00  0.00    +0.000 NA
ATOM     27  H   UNL     1       4.793   1.410  20.584  0.00  0.00    +0.000 HD
ATOM     28  H   UNL     1       4.988   2.889  19.972  0.00  0.00    +0.000 HD
ENDBRANCH  25  26
ENDBRANCH  18  21
ENDBRANCH  16  17
BRANCH  16  29
ATOM     29  C   UNL     1       6.011   4.045  15.190  0.00  0.00    +0.000 C 
ATOM     30  N   UNL     1       6.283   3.760  14.098  0.00  0.00    +0.000 NA
ENDBRANCH  16  29
ENDBRANCH   1  16
TORSDOF 8
ENDMDL
MODEL 2
REMARK VINA RESULT:      -8.1      4.876      6.236
REMARK  Name = 
REMARK  8 active torsions:
REMARK  status: ('A' for Active; 'I' for Inactive)
REMARK    1  A    between atoms: C_2  and  C_3
REMARK    2  A    between atoms: C_6  and  C_7
REMARK    3  A    between atoms: C_10  and  C_11
REMARK    4  A    between atoms: C_11  and  C_12
REMARK    5  A    between atoms: C_12  and  C_13
REMARK    6  A    between atoms: C_12  and  N_15
REMARK    7  A    between atoms: C_16  and  C_18
REMARK    8  A    between atoms: C_22  and  N_23
REMARK                            x       y       z     vdW  Elec       q    Type
REMARK                         _______ _______ _______ _____ _____    ______ ____
ROOT
ATOM      1  C   UNL     1       4.989   5.848  17.117  0.00  0.00    +0.000 C 
ENDROOT
BRANCH   1   5
ATOM      2  C   UNL     1       2.038   8.027  19.474  0.00  0.00    +0.000 A 
ATOM      3  C   UNL     1       2.617   6.835  19.946  0.00  0.00    +0.000 A 
ATOM      4  C   UNL     1       3.568   6.132  19.193  0.00  0.00    +0.000 A 
ATOM      5  C   UNL     1       3.963   6.596  17.935  0.00  0.00    +0.000 A 
ATOM      6  C   UNL     1       3.377   7.763  17.438  0.00  0.00    +0.000 A 
ATOM      7  C   UNL     1       2.440   8.465  18.200  0.00  0.00    +0.000 A 
BRANCH   2  11
ATOM      8  C   UNL     1      -0.646  10.431  21.862  0.00  0.00    +0.000 A 
ATOM      9  C   UNL     1      -0.042   9.298  22.408  0.00  0.00    +0.000 A 
ATOM     10  C   UNL     1       0.808   8.506  21.628  0.00  0.00    +0.000 A 
ATOM     11  C   UNL     1       1.076   8.817  20.282  0.00  0.00    +0.000 A 
ATOM     12  C   UNL     1       0.426   9.947  19.747  0.00  0.00    +0.000 A 
ATOM     13  C   UNL     1      -0.410  10.754  20.525  0.00  0.00    +0.000 A 
BRANCH   8  15
ATOM     14  N   UNL     1      -2.167  11.937  23.325  0.00  0.00    +0.000 NA
ATOM     15  C   UNL     1      -1.486  11.263  22.667  0.00  0.00    +0.000 C 
ENDBRANCH   8  15
ENDBRANCH   2  11
ENDBRANCH   1   5
BRANCH   1  16
ATOM     16  C   UNL     1       4.417   4.638  16.355  0.00  0.00    +0.000 C 
BRANCH  16  17
ATOM     17  N   UNL     1       4.103   3.551  17.291  0.00  0.00    +0.000 N 
ATOM     18  C   UNL     1       2.798   3.212  17.580  0.00  0.00    +0.000 C 
ATOM     19  O   UNL     1       1.851   3.803  17.071  0.00  0.00    +0.000 OA
ATOM     20  H   UNL     1       4.859   3.129  17.815  0.00  0.00    +0.000 HD
BRANCH  18  21
ATOM     21  C   UNL     1       2.655   2.087  18.609  0.00  0.00    +0.000 C 
ATOM     22  C   UNL     1       1.242   2.074  19.218  0.00  0.00    +0.000 C 
ATOM     23  C   UNL     1       1.368   2.552  20.666  0.00  0.00    +0.000 C 
ATOM     24  C   UNL     1       2.811   2.998  20.848  0.00  0.00    +0.000 C 
ATOM     25  C   UNL     1       3.586   2.164  19.834  0.00  0.00    +0.000 C 
BRANCH  25  26
ATOM     26  N   UNL     1       4.934   2.681  19.638  0.00  0.00    +0.000 NA
ATOM     27  H   UNL     1       5.445   2.588  20.527  0.00  0.00    +0.000 HD
ATOM     28  H   UNL     1       4.907   3.686  19.476  0.00  0.00    +0.000 HD
ENDBRANCH  25  26
ENDBRANCH  18  21
ENDBRANCH  16  17
BRANCH  16  29
ATOM     29  C   UNL     1       5.368   4.158  15.328  0.00  0.00    +0.000 C 
ATOM     30  N   UNL     1       6.124   3.760  14.540  0.00  0.00    +0.000 NA
ENDBRANCH  16  29
ENDBRANCH   1  16
TORSDOF 8
ENDMDL
MODEL 3
REMARK VINA RESULT:      -8.0      0.452      1.022
REMARK  Name = 
REMARK  8 active torsions:
REMARK  status: ('A' for Active; 'I' for Inactive)
REMARK    1  A    between atoms: C_2  and  C_3
REMARK    2  A    between atoms: C_6  and  C_7
REMARK    3  A    between atoms: C_10  and  C_11
REMARK    4  A    between atoms: C_11  and  C_12
REMARK    5  A    between atoms: C_12  and  C_13
REMARK    6  A    between atoms: C_12  and  N_15
REMARK    7  A    between atoms: C_16  and  C_18
REMARK    8  A    between atoms: C_22  and  N_23
REMARK                            x       y       z     vdW  Elec       q    Type
REMARK                         _______ _______ _______ _____ _____    ______ ____
ROOT
ATOM      1  C   UNL     1       6.424   4.649  17.663  0.00  0.00    +0.000 C 
ENDROOT
BRANCH   1   5
ATOM      2  C   UNL     1       8.175   8.600  18.240  0.00  0.00    +0.000 A 
ATOM      3  C   UNL     1       7.222   8.361  17.234  0.00  0.00    +0.000 A 
ATOM      4  C   UNL     1       6.654   7.093  17.046  0.00  0.00    +0.000 A 
ATOM      5  C   UNL     1       7.032   6.018  17.855  0.00  0.00    +0.000 A 
ATOM      6  C   UNL     1       7.998   6.230  18.841  0.00  0.00    +0.000 A 
ATOM      7  C   UNL     1       8.550   7.500  19.031  0.00  0.00    +0.000 A 
BRANCH   2  11
ATOM      8  C   UNL     1       9.703  12.554  19.080  0.00  0.00    +0.000 A 
ATOM      9  C   UNL     1       8.931  12.327  17.941  0.00  0.00    +0.000 A 
ATOM     10  C   UNL     1       8.455  11.042  17.656  0.00  0.00    +0.000 A 
ATOM     11  C   UNL     1       8.742   9.948  18.494  0.00  0.00    +0.000 A 
ATOM     12  C   UNL     1       9.552  10.200  19.618  0.00  0.00    +0.000 A 
ATOM     13  C   UNL     1      10.015  11.485  19.920  0.00  0.00    +0.000 A 
BRANCH   8  15
ATOM     14  N   UNL     1      10.530  14.944  19.654  0.00  0.00    +0.000 NA
ATOM     15  C   UNL     1      10.159  13.874  19.394  0.00  0.00    +0.000 C 
ENDBRANCH   8  15
ENDBRANCH   2  11
ENDBRANCH   1   5
BRANCH   1  16
ATOM     16  C   UNL     1       5.374   4.585  16.538  0.00  0.00    +0.000 C 
BRANCH  16  17
ATOM     17  N   UNL     1       4.306   3.641  16.893  0.00  0.00    +0.000 N 
ATOM     18  C   UNL     1       3.160   4.066  17.531  0.00  0.00    +0.000 C 
ATOM     19  O   UNL     1       2.987   5.244  17.829  0.00  0.00    +0.000 OA
ATOM     20  H   UNL     1       4.473   2.650  16.768  0.00  0.00    +0.000 HD
BRANCH  18  21
ATOM     21  C   UNL     1       2.174   2.943  17.865  0.00  0.00    +0.000 C 
ATOM     22  C   UNL     1       0.891   3.507  18.497  0.00  0.00    +0.000 C 
ATOM     23  C   UNL     1       0.899   3.106  19.974  0.00  0.00    +0.000 C 
ATOM     24  C   UNL     1       2.251   2.461  20.237  0.00  0.00    +0.000 C 
ATOM     25  C   UNL     1       2.659   1.892  18.882  0.00  0.00    +0.000 C 
BRANCH  25  26
ATOM     26  N   UNL     1       4.067   1.519  18.863  0.00  0.00    +0.000 NA
ATOM     27  H   UNL     1       4.160   0.597  19.311  0.00  0.00    +0.000 HD
ATOM     28  H   UNL     1       4.606   2.140  19.465  0.00  0.00    +0.000 HD
ENDBRANCH  25  26
ENDBRANCH  18  21
ENDBRANCH  16  17
BRANCH  16  29
ATOM     29  C   UNL     1       5.993   4.184  15.255  0.00  0.00    +0.000 C 
ATOM     30  N   UNL     1       6.459   3.887  14.233  0.00  0.00    +0.000 NA
ENDBRANCH  16  29
ENDBRANCH   1  16
TORSDOF 8
ENDMDL
MODEL 4
REMARK VINA RESULT:      -8.0      5.355      6.726
REMARK  Name = 
REMARK  8 active torsions:
REMARK  status: ('A' for Active; 'I' for Inactive)
REMARK    1  A    between atoms: C_2  and  C_3
REMARK    2  A    between atoms: C_6  and  C_7
REMARK    3  A    between atoms: C_10  and  C_11
REMARK    4  A    between atoms: C_11  and  C_12
REMARK    5  A    between atoms: C_12  and  C_13
REMARK    6  A    between atoms: C_12  and  N_15
REMARK    7  A    between atoms: C_16  and  C_18
REMARK    8  A    between atoms: C_22  and  N_23
REMARK                            x       y       z     vdW  Elec       q    Type
REMARK                         _______ _______ _______ _____ _____    ______ ____
ROOT
ATOM      1  C   UNL     1       4.315   6.202  17.663  0.00  0.00    +0.000 C 
ENDROOT
BRANCH   1   5
ATOM      2  C   UNL     1       1.402   8.530  19.923  0.00  0.00    +0.000 A 
ATOM      3  C   UNL     1       2.014   7.390  20.474  0.00  0.00    +0.000 A 
ATOM      4  C   UNL     1       2.953   6.639  19.752  0.00  0.00    +0.000 A 
ATOM      5  C   UNL     1       3.301   7.002  18.448  0.00  0.00    +0.000 A 
ATOM      6  C   UNL     1       2.683   8.115  17.875  0.00  0.00    +0.000 A 
ATOM      7  C   UNL     1       1.757   8.865  18.605  0.00  0.00    +0.000 A 
BRANCH   2  11
ATOM      8  C   UNL     1      -1.244  11.082  22.196  0.00  0.00    +0.000 A 
ATOM      9  C   UNL     1      -0.677   9.954  22.787  0.00  0.00    +0.000 A 
ATOM     10  C   UNL     1       0.161   9.114  22.045  0.00  0.00    +0.000 A 
ATOM     11  C   UNL     1       0.452   9.372  20.692  0.00  0.00    +0.000 A 
ATOM     12  C   UNL     1      -0.162  10.499  20.111  0.00  0.00    +0.000 A 
ATOM     13  C   UNL     1      -0.986  11.353  20.852  0.00  0.00    +0.000 A 
BRANCH   8  15
ATOM     14  N   UNL     1      -2.740  12.683  23.583  0.00  0.00    +0.000 NA
ATOM     15  C   UNL     1      -2.071  11.963  22.962  0.00  0.00    +0.000 C 
ENDBRANCH   8  15
ENDBRANCH   2  11
ENDBRANCH   1   5
BRANCH   1  16
ATOM     16  C   UNL     1       3.727   4.957  16.974  0.00  0.00    +0.000 C 
BRANCH  16  17
ATOM     17  N   UNL     1       3.072   4.089  17.963  0.00  0.00    +0.000 N 
ATOM     18  C   UNL     1       1.714   3.855  17.920  0.00  0.00    +0.000 C 
ATOM     19  O   UNL     1       1.000   4.360  17.059  0.00  0.00    +0.000 OA
ATOM     20  H   UNL     1       3.614   3.759  18.751  0.00  0.00    +0.000 HD
BRANCH  18  21
ATOM     21  C   UNL     1       1.195   2.965  19.052  0.00  0.00    +0.000 C 
ATOM     22  C   UNL     1       0.838   3.803  20.291  0.00  0.00    +0.000 C 
ATOM     23  C   UNL     1       1.891   3.501  21.361  0.00  0.00    +0.000 C 
ATOM     24  C   UNL     1       2.941   2.625  20.695  0.00  0.00    +0.000 C 
ATOM     25  C   UNL     1       2.176   1.906  19.589  0.00  0.00    +0.000 C 
BRANCH  25  26
ATOM     26  N   UNL     1       3.082   1.269  18.643  0.00  0.00    +0.000 NA
ATOM     27  H   UNL     1       2.698   0.344  18.406  0.00  0.00    +0.000 HD
ATOM     28  H   UNL     1       3.971   1.057  19.092  0.00  0.00    +0.000 HD
ENDBRANCH  25  26
ENDBRANCH  18  21
ENDBRANCH  16  17
BRANCH  16  29
ATOM     29  C   UNL     1       4.777   4.199  16.258  0.00  0.00    +0.000 C 
ATOM     30  N   UNL     1       5.614   3.598  15.722  0.00  0.00    +0.000 NA
ENDBRANCH  16  29
ENDBRANCH   1  16
TORSDOF 8
ENDMDL
MODEL 5
REMARK VINA RESULT:      -8.0      0.388      1.360
REMARK  Name = 
REMARK  8 active torsions:
REMARK  status: ('A' for Active; 'I' for Inactive)
REMARK    1  A    between atoms: C_2  and  C_3
REMARK    2  A    between atoms: C_6  and  C_7
REMARK    3  A    between atoms: C_10  and  C_11
REMARK    4  A    between atoms: C_11  and  C_12
REMARK    5  A    between atoms: C_12  and  C_13
REMARK    6  A    between atoms: C_12  and  N_15
REMARK    7  A    between atoms: C_16  and  C_18
REMARK    8  A    between atoms: C_22  and  N_23
REMARK                            x       y       z     vdW  Elec       q    Type
REMARK                         _______ _______ _______ _____ _____    ______ ____
ROOT
ATOM      1  C   UNL     1       6.795   4.605  17.413  0.00  0.00    +0.000 C 
ENDROOT
BRANCH   1   5
ATOM      2  C   UNL     1       8.311   8.588  18.335  0.00  0.00    +0.000 A 
ATOM      3  C   UNL     1       7.553   8.343  17.176  0.00  0.00    +0.000 A 
ATOM      4  C   UNL     1       7.061   7.065  16.876  0.00  0.00    +0.000 A 
ATOM      5  C   UNL     1       7.323   5.986  17.725  0.00  0.00    +0.000 A 
ATOM      6  C   UNL     1       8.098   6.205  18.866  0.00  0.00    +0.000 A 
ATOM      7  C   UNL     1       8.574   7.484  19.165  0.00  0.00    +0.000 A 
BRANCH   2  11
ATOM      8  C   UNL     1       9.844  12.505  19.331  0.00  0.00    +0.000 A 
ATOM      9  C   UNL     1       9.860  11.482  20.279  0.00  0.00    +0.000 A 
ATOM     10  C   UNL     1       9.342  10.220  19.964  0.00  0.00    +0.000 A 
ATOM     11  C   UNL     1       8.789   9.945  18.700  0.00  0.00    +0.000 A 
ATOM     12  C   UNL     1       8.755  11.006  17.774  0.00  0.00    +0.000 A 
ATOM     13  C   UNL     1       9.288  12.264  18.074  0.00  0.00    +0.000 A 
BRANCH   8  15
ATOM     14  N   UNL     1      10.868  14.821  19.886  0.00  0.00    +0.000 NA
ATOM     15  C   UNL     1      10.406  13.784  19.636  0.00  0.00    +0.000 C 
ENDBRANCH   8  15
ENDBRANCH   2  11
ENDBRANCH   1   5
BRANCH   1  16
ATOM     16  C   UNL     1       5.529   4.605  16.536  0.00  0.00    +0.000 C 
BRANCH  16  17
ATOM     17  N   UNL     1       4.521   3.696  17.098  0.00  0.00    +0.000 N 
ATOM     18  C   UNL     1       3.495   4.168  17.889  0.00  0.00    +0.000 C 
ATOM     19  O   UNL     1       3.383   5.361  18.156  0.00  0.00    +0.000 OA
ATOM     20  H   UNL     1       4.657   2.698  16.994  0.00  0.00    +0.000 HD
BRANCH  18  21
ATOM     21  C   UNL     1       2.564   3.078  18.425  0.00  0.00    +0.000 C 
ATOM     22  C   UNL     1       1.225   3.676  18.890  0.00  0.00    +0.000 C 
ATOM     23  C   UNL     1       1.197   3.595  20.418  0.00  0.00    +0.000 C 
ATOM     24  C   UNL     1       2.573   3.108  20.847  0.00  0.00    +0.000 C 
ATOM     25  C   UNL     1       3.067   2.297  19.654  0.00  0.00    +0.000 C 
BRANCH  25  26
ATOM     26  N   UNL     1       4.494   2.021  19.752  0.00  0.00    +0.000 NA
ATOM     27  H   UNL     1       4.970   2.514  18.984  0.00  0.00    +0.000 HD
ATOM     28  H   UNL     1       4.678   1.037  19.562  0.00  0.00    +0.000 HD
ENDBRANCH  25  26
ENDBRANCH  18  21
ENDBRANCH  16  17
BRANCH  16  29
ATOM     29  C   UNL     1       5.845   4.209  15.146  0.00  0.00    +0.000 C 
ATOM     30  N   UNL     1       6.083   3.924  14.045  0.00  0.00    +0.000 NA
ENDBRANCH  16  29
ENDBRANCH   1  16
TORSDOF 8
ENDMDL
MODEL 6
REMARK VINA RESULT:      -7.9      5.848      7.018
REMARK  Name = 
REMARK  8 active torsions:
REMARK  status: ('A' for Active; 'I' for Inactive)
REMARK    1  A    between atoms: C_2  and  C_3
REMARK    2  A    between atoms: C_6  and  C_7
REMARK    3  A    between atoms: C_10  and  C_11
REMARK    4  A    between atoms: C_11  and  C_12
REMARK    5  A    between atoms: C_12  and  C_13
REMARK    6  A    between atoms: C_12  and  N_15
REMARK    7  A    between atoms: C_16  and  C_18
REMARK    8  A    between atoms: C_22  and  N_23
REMARK                            x       y       z     vdW  Elec       q    Type
REMARK                         _______ _______ _______ _____ _____    ______ ____
ROOT
ATOM      1  C   UNL     1       4.176   6.426  18.008  0.00  0.00    +0.000 C 
ENDROOT
BRANCH   1   5
ATOM      2  C   UNL     1       1.058   9.271  19.103  0.00  0.00    +0.000 A 
ATOM      3  C   UNL     1       1.724   9.354  17.867  0.00  0.00    +0.000 A 
ATOM      4  C   UNL     1       2.725   8.440  17.509  0.00  0.00    +0.000 A 
ATOM      5  C   UNL     1       3.100   7.418  18.385  0.00  0.00    +0.000 A 
ATOM      6  C   UNL     1       2.469   7.337  19.628  0.00  0.00    +0.000 A 
ATOM      7  C   UNL     1       1.462   8.243  19.972  0.00  0.00    +0.000 A 
BRANCH   2  11
ATOM      8  C   UNL     1      -2.067  12.073  20.136  0.00  0.00    +0.000 A 
ATOM      9  C   UNL     1      -1.197  11.597  21.117  0.00  0.00    +0.000 A 
ATOM     10  C   UNL     1      -0.201  10.671  20.787  0.00  0.00    +0.000 A 
ATOM     11  C   UNL     1      -0.047  10.191  19.474  0.00  0.00    +0.000 A 
ATOM     12  C   UNL     1      -0.960  10.663  18.510  0.00  0.00    +0.000 A 
ATOM     13  C   UNL     1      -1.946  11.602  18.828  0.00  0.00    +0.000 A 
BRANCH   8  15
ATOM     14  N   UNL     1      -3.868  13.843  20.725  0.00  0.00    +0.000 NA
ATOM     15  C   UNL     1      -3.062  13.047  20.462  0.00  0.00    +0.000 C 
ENDBRANCH   8  15
ENDBRANCH   2  11
ENDBRANCH   1   5
BRANCH   1  16
ATOM     16  C   UNL     1       3.647   5.187  17.262  0.00  0.00    +0.000 C 
BRANCH  16  17
ATOM     17  N   UNL     1       2.991   4.269  18.203  0.00  0.00    +0.000 N 
ATOM     18  C   UNL     1       1.662   3.930  18.061  0.00  0.00    +0.000 C 
ATOM     19  O   UNL     1       0.976   4.380  17.149  0.00  0.00    +0.000 OA
ATOM     20  H   UNL     1       3.498   3.979  19.030  0.00  0.00    +0.000 HD
BRANCH  18  21
ATOM     21  C   UNL     1       1.132   2.999  19.155  0.00  0.00    +0.000 C 
ATOM     22  C   UNL     1       0.820   3.783  20.441  0.00  0.00    +0.000 C 
ATOM     23  C   UNL     1       1.878   3.394  21.477  0.00  0.00    +0.000 C 
ATOM     24  C   UNL     1       2.890   2.522  20.751  0.00  0.00    +0.000 C 
ATOM     25  C   UNL     1       2.088   1.885  19.622  0.00  0.00    +0.000 C 
BRANCH  25  26
ATOM     26  N   UNL     1       2.959   1.270  18.630  0.00  0.00    +0.000 NA
ATOM     27  H   UNL     1       3.840   1.010  19.094  0.00  0.00    +0.000 HD
ATOM     28  H   UNL     1       3.243   1.957  17.934  0.00  0.00    +0.000 HD
ENDBRANCH  25  26
ENDBRANCH  18  21
ENDBRANCH  16  17
BRANCH  16  29
ATOM     29  C   UNL     1       4.741   4.485  16.555  0.00  0.00    +0.000 C 
ATOM     30  N   UNL     1       5.612   3.960  15.993  0.00  0.00    +0.000 NA
ENDBRANCH  16  29
ENDBRANCH   1  16
TORSDOF 8
ENDMDL
MODEL 7
REMARK VINA RESULT:      -7.7      5.207      6.404
REMARK  Name = 
REMARK  8 active torsions:
REMARK  status: ('A' for Active; 'I' for Inactive)
REMARK    1  A    between atoms: C_2  and  C_3
REMARK    2  A    between atoms: C_6  and  C_7
REMARK    3  A    between atoms: C_10  and  C_11
REMARK    4  A    between atoms: C_11  and  C_12
REMARK    5  A    between atoms: C_12  and  C_13
REMARK    6  A    between atoms: C_12  and  N_15
REMARK    7  A    between atoms: C_16  and  C_18
REMARK    8  A    between atoms: C_22  and  N_23
REMARK                            x       y       z     vdW  Elec       q    Type
REMARK                         _______ _______ _______ _____ _____    ______ ____
ROOT
ATOM      1  C   UNL     1       4.853   5.796  17.524  0.00  0.00    +0.000 C 
ENDROOT
BRANCH   1   5
ATOM      2  C   UNL     1       1.807   8.603  18.886  0.00  0.00    +0.000 A 
ATOM      3  C   UNL     1       2.526   8.822  17.697  0.00  0.00    +0.000 A 
ATOM      4  C   UNL     1       3.505   7.921  17.254  0.00  0.00    +0.000 A 
ATOM      5  C   UNL     1       3.803   6.774  17.994  0.00  0.00    +0.000 A 
ATOM      6  C   UNL     1       3.118   6.554  19.192  0.00  0.00    +0.000 A 
ATOM      7  C   UNL     1       2.135   7.450  19.621  0.00  0.00    +0.000 A 
BRANCH   2  11
ATOM      8  C   UNL     1      -1.247  11.377  20.172  0.00  0.00    +0.000 A 
ATOM      9  C   UNL     1      -0.392  10.791  21.105  0.00  0.00    +0.000 A 
ATOM     10  C   UNL     1       0.582   9.875  20.692  0.00  0.00    +0.000 A 
ATOM     11  C   UNL     1       0.726   9.512  19.340  0.00  0.00    +0.000 A 
ATOM     12  C   UNL     1      -0.174  10.094  18.424  0.00  0.00    +0.000 A 
ATOM     13  C   UNL     1      -1.137  11.024  18.827  0.00  0.00    +0.000 A 
BRANCH   8  15
ATOM     14  N   UNL     1      -3.012  13.122  20.922  0.00  0.00    +0.000 NA
ATOM     15  C   UNL     1      -2.219  12.342  20.586  0.00  0.00    +0.000 C 
ENDBRANCH   8  15
ENDBRANCH   2  11
ENDBRANCH   1   5
BRANCH   1  16
ATOM     16  C   UNL     1       4.286   4.612  16.718  0.00  0.00    +0.000 C 
BRANCH  16  17
ATOM     17  N   UNL     1       3.858   3.538  17.625  0.00  0.00    +0.000 N 
ATOM     18  C   UNL     1       2.522   3.286  17.854  0.00  0.00    +0.000 C 
ATOM     19  O   UNL     1       1.640   3.946  17.314  0.00  0.00    +0.000 OA
ATOM     20  H   UNL     1       4.561   3.060  18.175  0.00  0.00    +0.000 HD
BRANCH  18  21
ATOM     21  C   UNL     1       2.259   2.163  18.861  0.00  0.00    +0.000 C 
ATOM     22  C   UNL     1       0.914   2.371  19.578  0.00  0.00    +0.000 C 
ATOM     23  C   UNL     1       1.227   2.762  21.024  0.00  0.00    +0.000 C 
ATOM     24  C   UNL     1       2.735   2.942  21.104  0.00  0.00    +0.000 C 
ATOM     25  C   UNL     1       3.276   2.028  20.010  0.00  0.00    +0.000 C 
BRANCH  25  26
ATOM     26  N   UNL     1       4.675   2.310  19.722  0.00  0.00    +0.000 NA
ATOM     27  H   UNL     1       5.241   1.534  20.092  0.00  0.00    +0.000 HD
ATOM     28  H   UNL     1       4.990   3.118  20.257  0.00  0.00    +0.000 HD
ENDBRANCH  25  26
ENDBRANCH  18  21
ENDBRANCH  16  17
BRANCH  16  29
ATOM     29  C   UNL     1       5.286   4.092  15.760  0.00  0.00    +0.000 C 
ATOM     30  N   UNL     1       6.079   3.662  15.028  0.00  0.00    +0.000 NA
ENDBRANCH  16  29
ENDBRANCH   1  16
TORSDOF 8
ENDMDL
MODEL 8
REMARK VINA RESULT:      -7.7      5.184      7.401
REMARK  Name = 
REMARK  8 active torsions:
REMARK  status: ('A' for Active; 'I' for Inactive)
REMARK    1  A    between atoms: C_2  and  C_3
REMARK    2  A    between atoms: C_6  and  C_7
REMARK    3  A    between atoms: C_10  and  C_11
REMARK    4  A    between atoms: C_11  and  C_12
REMARK    5  A    between atoms: C_12  and  C_13
REMARK    6  A    between atoms: C_12  and  N_15
REMARK    7  A    between atoms: C_16  and  C_18
REMARK    8  A    between atoms: C_22  and  N_23
REMARK                            x       y       z     vdW  Elec       q    Type
REMARK                         _______ _______ _______ _____ _____    ______ ____
ROOT
ATOM      1  C   UNL     1       2.684   4.559  17.960  0.00  0.00    +0.000 C 
ENDROOT
BRANCH   1   5
ATOM      2  C   UNL     1       1.299   8.064  20.154  0.00  0.00    +0.000 A 
ATOM      3  C   UNL     1       1.778   8.167  18.835  0.00  0.00    +0.000 A 
ATOM      4  C   UNL     1       2.222   7.043  18.125  0.00  0.00    +0.000 A 
ATOM      5  C   UNL     1       2.210   5.778  18.718  0.00  0.00    +0.000 A 
ATOM      6  C   UNL     1       1.764   5.660  20.036  0.00  0.00    +0.000 A 
ATOM      7  C   UNL     1       1.311   6.783  20.733  0.00  0.00    +0.000 A 
BRANCH   2  11
ATOM      8  C   UNL     1      -0.389  11.444  22.253  0.00  0.00    +0.000 A 
ATOM      9  C   UNL     1       0.376  11.641  21.104  0.00  0.00    +0.000 A 
ATOM     10  C   UNL     1       0.943  10.549  20.437  0.00  0.00    +0.000 A 
ATOM     11  C   UNL     1       0.768   9.232  20.900  0.00  0.00    +0.000 A 
ATOM     12  C   UNL     1       0.018   9.065  22.082  0.00  0.00    +0.000 A 
ATOM     13  C   UNL     1      -0.567  10.150  22.743  0.00  0.00    +0.000 A 
BRANCH   8  15
ATOM     14  N   UNL     1      -1.492  13.459  23.456  0.00  0.00    +0.000 NA
ATOM     15  C   UNL     1      -1.000  12.555  22.916  0.00  0.00    +0.000 C 
ENDBRANCH   8  15
ENDBRANCH   2  11
ENDBRANCH   1   5
BRANCH   1  16
ATOM     16  C   UNL     1       3.831   3.801  18.653  0.00  0.00    +0.000 C 
BRANCH  16  17
ATOM     17  N   UNL     1       5.125   4.212  18.092  0.00  0.00    +0.000 N 
ATOM     18  C   UNL     1       5.989   5.018  18.804  0.00  0.00    +0.000 C 
ATOM     19  O   UNL     1       5.712   5.423  19.929  0.00  0.00    +0.000 OA
ATOM     20  H   UNL     1       5.325   3.992  17.125  0.00  0.00    +0.000 HD
BRANCH  18  21
ATOM     21  C   UNL     1       7.269   5.384  18.050  0.00  0.00    +0.000 C 
ATOM     22  C   UNL     1       8.243   6.152  18.960  0.00  0.00    +0.000 C 
ATOM     23  C   UNL     1       8.271   7.603  18.473  0.00  0.00    +0.000 C 
ATOM     24  C   UNL     1       7.200   7.716  17.398  0.00  0.00    +0.000 C 
ATOM     25  C   UNL     1       7.099   6.306  16.827  0.00  0.00    +0.000 C 
BRANCH  25  26
ATOM     26  N   UNL     1       5.903   6.146  16.011  0.00  0.00    +0.000 NA
ATOM     27  H   UNL     1       6.198   5.958  15.043  0.00  0.00    +0.000 HD
ATOM     28  H   UNL     1       5.398   7.029  15.946  0.00  0.00    +0.000 HD
ENDBRANCH  25  26
ENDBRANCH  18  21
ENDBRANCH  16  17
BRANCH  16  29
ATOM     29  C   UNL     1       3.663   2.338  18.511  0.00  0.00    +0.000 C 
ATOM     30  N   UNL     1       3.540   1.185  18.428  0.00  0.00    +0.000 NA
ENDBRANCH  16  29
ENDBRANCH   1  16
TORSDOF 8
ENDMDL
MODEL 9
REMARK VINA RESULT:      -7.5      5.219      6.656
REMARK  Name = 
REMARK  8 active torsions:
REMARK  status: ('A' for Active; 'I' for Inactive)
REMARK    1  A    between atoms: C_2  and  C_3
REMARK    2  A    between atoms: C_6  and  C_7
REMARK    3  A    between atoms: C_10  and  C_11
REMARK    4  A    between atoms: C_11  and  C_12
REMARK    5  A    between atoms: C_12  and  C_13
REMARK    6  A    between atoms: C_12  and  N_15
REMARK    7  A    between atoms: C_16  and  C_18
REMARK    8  A    between atoms: C_22  and  N_23
REMARK                            x       y       z     vdW  Elec       q    Type
REMARK                         _______ _______ _______ _____ _____    ______ ____
ROOT
ATOM      1  C   UNL     1       4.130   5.731  17.262  0.00  0.00    +0.000 C 
ENDROOT
BRANCH   1   5
ATOM      2  C   UNL     1       1.721   8.405  19.724  0.00  0.00    +0.000 A 
ATOM      3  C   UNL     1       2.103   8.758  18.417  0.00  0.00    +0.000 A 
ATOM      4  C   UNL     1       2.875   7.901  17.621  0.00  0.00    +0.000 A 
ATOM      5  C   UNL     1       3.300   6.664  18.113  0.00  0.00    +0.000 A 
ATOM      6  C   UNL     1       2.954   6.309  19.419  0.00  0.00    +0.000 A 
ATOM      7  C   UNL     1       2.173   7.162  20.202  0.00  0.00    +0.000 A 
BRANCH   2  11
ATOM      8  C   UNL     1      -0.927  10.828  22.132  0.00  0.00    +0.000 A 
ATOM      9  C   UNL     1      -0.688  11.161  20.799  0.00  0.00    +0.000 A 
ATOM     10  C   UNL     1       0.188  10.390  20.025  0.00  0.00    +0.000 A 
ATOM     11  C   UNL     1       0.854   9.272  20.560  0.00  0.00    +0.000 A 
ATOM     12  C   UNL     1       0.620   8.979  21.919  0.00  0.00    +0.000 A 
ATOM     13  C   UNL     1      -0.269   9.733  22.693  0.00  0.00    +0.000 A 
BRANCH   8  15
ATOM     14  N   UNL     1      -2.599  12.208  23.554  0.00  0.00    +0.000 NA
ATOM     15  C   UNL     1      -1.850  11.591  22.914  0.00  0.00    +0.000 C 
ENDBRANCH   8  15
ENDBRANCH   2  11
ENDBRANCH   1   5
BRANCH   1  16
ATOM     16  C   UNL     1       4.750   4.559  18.044  0.00  0.00    +0.000 C 
BRANCH  16  17
ATOM     17  N   UNL     1       3.723   3.884  18.848  0.00  0.00    +0.000 N 
ATOM     18  C   UNL     1       3.263   2.628  18.512  0.00  0.00    +0.000 C 
ATOM     19  O   UNL     1       3.691   2.027  17.531  0.00  0.00    +0.000 OA
ATOM     20  H   UNL     1       3.268   4.403  19.589  0.00  0.00    +0.000 HD
BRANCH  18  21
ATOM     21  C   UNL     1       2.162   2.095  19.432  0.00  0.00    +0.000 C 
ATOM     22  C   UNL     1       0.834   2.832  19.185  0.00  0.00    +0.000 C 
ATOM     23  C   UNL     1       0.575   3.720  20.404  0.00  0.00    +0.000 C 
ATOM     24  C   UNL     1       1.819   3.629  21.274  0.00  0.00    +0.000 C 
ATOM     25  C   UNL     1       2.401   2.259  20.945  0.00  0.00    +0.000 C 
BRANCH  25  26
ATOM     26  N   UNL     1       3.765   2.127  21.440  0.00  0.00    +0.000 NA
ATOM     27  H   UNL     1       4.198   3.060  21.440  0.00  0.00    +0.000 HD
ATOM     28  H   UNL     1       4.331   1.595  20.781  0.00  0.00    +0.000 HD
ENDBRANCH  25  26
ENDBRANCH  18  21
ENDBRANCH  16  17
BRANCH  16  29
ATOM     29  C   UNL     1       5.847   5.026  18.920  0.00  0.00    +0.000 C 
ATOM     30  N   UNL     1       6.702   5.371  19.628  0.00  0.00    +0.000 NA
ENDBRANCH  16  29
ENDBRANCH   1  16
TORSDOF 8
ENDMDL
