MODEL 1
REMARK VINA RESULT:      -7.8      0.000      0.000
REMARK  Name = 
REMARK  4 active torsions:
REMARK  status: ('A' for Active; 'I' for Inactive)
REMARK    1  A    between atoms: C_2  and  C_3
REMARK    2  A    between atoms: C_4  and  C_5
REMARK    3  A    between atoms: C_9  and  O_10
REMARK    4  A    between atoms: N_12  and  C_13
REMARK                            x       y       z     vdW  Elec       q    Type
REMARK                         _______ _______ _______ _____ _____    ______ ____
ROOT
ATOM      1  O   UNL     1       6.701   7.785  16.750  0.00  0.00    +0.000 OA
ATOM      2  C   UNL     1       7.318   7.441  17.751  0.00  0.00    +0.000 C 
ATOM      3  N   UNL     1       7.098   6.310  18.515  0.00  0.00    +0.000 N 
ATOM      4  H   UNL     1       7.604   6.230  19.386  0.00  0.00    +0.000 HD
ENDROOT
BRANCH   3   5
ATOM      5  C   UNL     1       6.147   5.299  18.257  0.00  0.00    +0.000 A 
ATOM      6  C   UNL     1       6.023   4.656  17.022  0.00  0.00    +0.000 A 
ATOM      7  C   UNL     1       5.028   3.692  16.818  0.00  0.00    +0.000 A 
ATOM      8  C   UNL     1       4.156   3.368  17.852  0.00  0.00    +0.000 A 
ATOM      9 CL   UNL     1       2.906   2.216  17.587  0.00  0.00    +0.000 Cl
ATOM     10  C   UNL     1       4.287   3.977  19.097  0.00  0.00    +0.000 A 
ATOM     11  C   UNL     1       5.289   4.932  19.301  0.00  0.00    +0.000 A 
ENDBRANCH   3   5
BRANCH   2  12
ATOM     12  C   UNL     1       8.419   8.281  18.296  0.00  0.00    +0.000 C 
ATOM     13  C   UNL     1       8.388   9.612  18.126  0.00  0.00    +0.000 C 
BRANCH  13  14
ATOM     14  C   UNL     1       9.451  10.458  18.651  0.00  0.00    +0.000 A 
ATOM     15  C   UNL     1       9.499  10.775  20.015  0.00  0.00    +0.000 A 
ATOM     16  C   UNL     1      10.496  11.622  20.507  0.00  0.00    +0.000 A 
ATOM     17  C   UNL     1      11.452  12.157  19.639  0.00  0.00    +0.000 A 
ATOM     18  C   UNL     1      11.403  11.832  18.288  0.00  0.00    +0.000 A 
ATOM     19  C   UNL     1      10.418  10.987  17.789  0.00  0.00    +0.000 A 
BRANCH  18  20
ATOM     20  O   UNL     1      12.313  12.336  17.405  0.00  0.00    +0.000 OA
ATOM     21  H   UNL     1      12.634  13.186  17.742  0.00  0.00    +0.000 HD
ENDBRANCH  18  20
ENDBRANCH  13  14
ENDBRANCH   2  12
TORSDOF 4
ENDMDL
MODEL 2
REMARK VINA RESULT:      -7.7      1.283      1.299
REMARK  Name = 
REMARK  4 active torsions:
REMARK  status: ('A' for Active; 'I' for Inactive)
REMARK    1  A    between atoms: C_2  and  C_3
REMARK    2  A    between atoms: C_4  and  C_5
REMARK    3  A    between atoms: C_9  and  O_10
REMARK    4  A    between atoms: N_12  and  C_13
REMARK                            x       y       z     vdW  Elec       q    Type
REMARK                         _______ _______ _______ _____ _____    ______ ____
ROOT
ATOM      1  O   UNL     1       7.829   6.515  16.439  0.00  0.00    +0.000 OA
ATOM      2  C   UNL     1       7.253   7.221  17.259  0.00  0.00    +0.000 C 
ATOM      3  N   UNL     1       6.125   6.896  17.988  0.00  0.00    +0.000 N 
ATOM      4  H   UNL     1       5.691   7.631  18.528  0.00  0.00    +0.000 HD
ENDROOT
BRANCH   3   5
ATOM      5  C   UNL     1       5.443   5.659  17.967  0.00  0.00    +0.000 A 
ATOM      6  C   UNL     1       4.721   5.198  16.863  0.00  0.00    +0.000 A 
ATOM      7  C   UNL     1       4.030   3.982  16.922  0.00  0.00    +0.000 A 
ATOM      8  C   UNL     1       4.062   3.224  18.088  0.00  0.00    +0.000 A 
ATOM      9 CL   UNL     1       3.175   1.752  18.176  0.00  0.00    +0.000 Cl
ATOM     10  C   UNL     1       4.802   3.655  19.185  0.00  0.00    +0.000 A 
ATOM     11  C   UNL     1       5.501   4.866  19.119  0.00  0.00    +0.000 A 
ENDBRANCH   3   5
BRANCH   2  12
ATOM     12  C   UNL     1       7.728   8.602  17.545  0.00  0.00    +0.000 C 
ATOM     13  C   UNL     1       8.572   8.818  18.566  0.00  0.00    +0.000 C 
BRANCH  13  14
ATOM     14  C   UNL     1       9.054  10.160  18.867  0.00  0.00    +0.000 A 
ATOM     15  C   UNL     1       9.558  10.465  20.138  0.00  0.00    +0.000 A 
ATOM     16  C   UNL     1       9.979  11.765  20.434  0.00  0.00    +0.000 A 
ATOM     17  C   UNL     1       9.900  12.766  19.463  0.00  0.00    +0.000 A 
ATOM     18  C   UNL     1       9.405  12.454  18.201  0.00  0.00    +0.000 A 
ATOM     19  C   UNL     1       8.987  11.163  17.894  0.00  0.00    +0.000 A 
BRANCH  18  20
ATOM     20  O   UNL     1       9.305  13.402  17.225  0.00  0.00    +0.000 OA
ATOM     21  H   UNL     1      10.169  13.827  17.116  0.00  0.00    +0.000 HD
ENDBRANCH  18  20
ENDBRANCH  13  14
ENDBRANCH   2  12
TORSDOF 4
ENDMDL
MODEL 3
REMARK VINA RESULT:      -7.7      1.501      1.854
REMARK  Name = 
REMARK  4 active torsions:
REMARK  status: ('A' for Active; 'I' for Inactive)
REMARK    1  A    between atoms: C_2  and  C_3
REMARK    2  A    between atoms: C_4  and  C_5
REMARK    3  A    between atoms: C_9  and  O_10
REMARK    4  A    between atoms: N_12  and  C_13
REMARK                            x       y       z     vdW  Elec       q    Type
REMARK                         _______ _______ _______ _____ _____    ______ ____
ROOT
ATOM      1  O   UNL     1       7.779   6.479  16.384  0.00  0.00    +0.000 OA
ATOM      2  C   UNL     1       7.247   7.173  17.241  0.00  0.00    +0.000 C 
ATOM      3  N   UNL     1       6.145   6.847  18.008  0.00  0.00    +0.000 N 
ATOM      4  H   UNL     1       5.743   7.576  18.581  0.00  0.00    +0.000 HD
ENDROOT
BRANCH   3   5
ATOM      5  C   UNL     1       5.445   5.620  17.988  0.00  0.00    +0.000 A 
ATOM      6  C   UNL     1       4.671   5.194  16.906  0.00  0.00    +0.000 A 
ATOM      7  C   UNL     1       3.966   3.986  16.967  0.00  0.00    +0.000 A 
ATOM      8  C   UNL     1       4.037   3.201  18.113  0.00  0.00    +0.000 A 
ATOM      9 CL   UNL     1       3.135   1.739  18.205  0.00  0.00    +0.000 Cl
ATOM     10  C   UNL     1       4.829   3.597  19.186  0.00  0.00    +0.000 A 
ATOM     11  C   UNL     1       5.541   4.799  19.119  0.00  0.00    +0.000 A 
ENDBRANCH   3   5
BRANCH   2  12
ATOM     12  C   UNL     1       7.752   8.542  17.538  0.00  0.00    +0.000 C 
ATOM     13  C   UNL     1       8.569   8.738  18.584  0.00  0.00    +0.000 C 
BRANCH  13  14
ATOM     14  C   UNL     1       9.079  10.067  18.896  0.00  0.00    +0.000 A 
ATOM     15  C   UNL     1       9.399  10.965  17.868  0.00  0.00    +0.000 A 
ATOM     16  C   UNL     1       9.928  12.222  18.172  0.00  0.00    +0.000 A 
ATOM     17  C   UNL     1      10.142  12.590  19.503  0.00  0.00    +0.000 A 
ATOM     18  C   UNL     1       9.816  11.697  20.518  0.00  0.00    +0.000 A 
ATOM     19  C   UNL     1       9.284  10.444  20.227  0.00  0.00    +0.000 A 
BRANCH  18  20
ATOM     20  O   UNL     1      10.013  12.012  21.830  0.00  0.00    +0.000 OA
ATOM     21  H   UNL     1       9.988  12.977  21.923  0.00  0.00    +0.000 HD
ENDBRANCH  18  20
ENDBRANCH  13  14
ENDBRANCH   2  12
TORSDOF 4
ENDMDL
MODEL 4
REMARK VINA RESULT:      -7.6      1.173      1.525
REMARK  Name = 
REMARK  4 active torsions:
REMARK  status: ('A' for Active; 'I' for Inactive)
REMARK    1  A    between atoms: C_2  and  C_3
REMARK    2  A    between atoms: C_4  and  C_5
REMARK    3  A    between atoms: C_9  and  O_10
REMARK    4  A    between atoms: N_12  and  C_13
REMARK                            x       y       z     vdW  Elec       q    Type
REMARK                         _______ _______ _______ _____ _____    ______ ____
ROOT
ATOM      1  O   UNL     1       7.808   6.514  16.508  0.00  0.00    +0.000 OA
ATOM      2  C   UNL     1       7.274   7.243  17.335  0.00  0.00    +0.000 C 
ATOM      3  N   UNL     1       6.160   6.956  18.101  0.00  0.00    +0.000 N 
ATOM      4  H   UNL     1       5.761   7.708  18.644  0.00  0.00    +0.000 HD
ENDROOT
BRANCH   3   5
ATOM      5  C   UNL     1       5.448   5.736  18.115  0.00  0.00    +0.000 A 
ATOM      6  C   UNL     1       5.451   4.856  19.201  0.00  0.00    +0.000 A 
ATOM      7  C   UNL     1       4.759   3.641  19.134  0.00  0.00    +0.000 A 
ATOM      8  C   UNL     1       4.060   3.305  17.979  0.00  0.00    +0.000 A 
ATOM      9 CL   UNL     1       3.248   1.792  17.881  0.00  0.00    +0.000 Cl
ATOM     10  C   UNL     1       4.022   4.185  16.901  0.00  0.00    +0.000 A 
ATOM     11  C   UNL     1       4.706   5.404  16.974  0.00  0.00    +0.000 A 
ENDBRANCH   3   5
BRANCH   2  12
ATOM     12  C   UNL     1       7.791   8.616  17.590  0.00  0.00    +0.000 C 
ATOM     13  C   UNL     1       8.577   8.845  18.653  0.00  0.00    +0.000 C 
BRANCH  13  14
ATOM     14  C   UNL     1       9.098  10.178  18.925  0.00  0.00    +0.000 A 
ATOM     15  C   UNL     1       9.430  10.558  20.232  0.00  0.00    +0.000 A 
ATOM     16  C   UNL     1       9.889  11.853  20.493  0.00  0.00    +0.000 A 
ATOM     17  C   UNL     1      10.020  12.774  19.451  0.00  0.00    +0.000 A 
ATOM     18  C   UNL     1       9.696  12.387  18.155  0.00  0.00    +0.000 A 
ATOM     19  C   UNL     1       9.242  11.100  17.883  0.00  0.00    +0.000 A 
BRANCH  18  20
ATOM     20  O   UNL     1       9.804  13.255  17.109  0.00  0.00    +0.000 OA
ATOM     21  H   UNL     1      10.731  13.286  16.826  0.00  0.00    +0.000 HD
ENDBRANCH  18  20
ENDBRANCH  13  14
ENDBRANCH   2  12
TORSDOF 4
ENDMDL
MODEL 5
REMARK VINA RESULT:      -7.6      1.759      1.894
REMARK  Name = 
REMARK  4 active torsions:
REMARK  status: ('A' for Active; 'I' for Inactive)
REMARK    1  A    between atoms: C_2  and  C_3
REMARK    2  A    between atoms: C_4  and  C_5
REMARK    3  A    between atoms: C_9  and  O_10
REMARK    4  A    between atoms: N_12  and  C_13
REMARK                            x       y       z     vdW  Elec       q    Type
REMARK                         _______ _______ _______ _____ _____    ______ ____
ROOT
ATOM      1  O   UNL     1       8.083   6.910  18.617  0.00  0.00    +0.000 OA
ATOM      2  C   UNL     1       7.580   7.715  17.843  0.00  0.00    +0.000 C 
ATOM      3  N   UNL     1       6.453   7.526  17.065  0.00  0.00    +0.000 N 
ATOM      4  H   UNL     1       6.236   8.236  16.379  0.00  0.00    +0.000 HD
ENDROOT
BRANCH   3   5
ATOM      5  C   UNL     1       5.629   6.380  17.051  0.00  0.00    +0.000 A 
ATOM      6  C   UNL     1       5.799   5.321  16.154  0.00  0.00    +0.000 A 
ATOM      7  C   UNL     1       4.920   4.232  16.163  0.00  0.00    +0.000 A 
ATOM      8  C   UNL     1       3.868   4.200  17.072  0.00  0.00    +0.000 A 
ATOM      9 CL   UNL     1       2.760   2.883  17.053  0.00  0.00    +0.000 Cl
ATOM     10  C   UNL     1       3.704   5.231  17.992  0.00  0.00    +0.000 A 
ATOM     11  C   UNL     1       4.590   6.314  17.988  0.00  0.00    +0.000 A 
ENDBRANCH   3   5
BRANCH   2  12
ATOM     12  C   UNL     1       8.192   9.054  17.628  0.00  0.00    +0.000 C 
ATOM     13  C   UNL     1       8.850   9.655  18.632  0.00  0.00    +0.000 C 
BRANCH  13  14
ATOM     14  C   UNL     1       9.461  10.965  18.448  0.00  0.00    +0.000 A 
ATOM     15  C   UNL     1      10.789  11.189  18.834  0.00  0.00    +0.000 A 
ATOM     16  C   UNL     1      11.357  12.459  18.694  0.00  0.00    +0.000 A 
ATOM     17  C   UNL     1      10.602  13.511  18.169  0.00  0.00    +0.000 A 
ATOM     18  C   UNL     1       9.286  13.279  17.782  0.00  0.00    +0.000 A 
ATOM     19  C   UNL     1       8.713  12.018  17.912  0.00  0.00    +0.000 A 
BRANCH  18  20
ATOM     20  O   UNL     1       8.512  14.278  17.269  0.00  0.00    +0.000 OA
ATOM     21  H   UNL     1       8.901  15.130  17.518  0.00  0.00    +0.000 HD
ENDBRANCH  18  20
ENDBRANCH  13  14
ENDBRANCH   2  12
TORSDOF 4
ENDMDL
MODEL 6
REMARK VINA RESULT:      -7.6      1.741      2.195
REMARK  Name = 
REMARK  4 active torsions:
REMARK  status: ('A' for Active; 'I' for Inactive)
REMARK    1  A    between atoms: C_2  and  C_3
REMARK    2  A    between atoms: C_4  and  C_5
REMARK    3  A    between atoms: C_9  and  O_10
REMARK    4  A    between atoms: N_12  and  C_13
REMARK                            x       y       z     vdW  Elec       q    Type
REMARK                         _______ _______ _______ _____ _____    ______ ____
ROOT
ATOM      1  O   UNL     1       7.980   6.724  18.600  0.00  0.00    +0.000 OA
ATOM      2  C   UNL     1       7.545   7.528  17.786  0.00  0.00    +0.000 C 
ATOM      3  N   UNL     1       6.392   7.408  17.033  0.00  0.00    +0.000 N 
ATOM      4  H   UNL     1       6.234   8.095  16.309  0.00  0.00    +0.000 HD
ENDROOT
BRANCH   3   5
ATOM      5  C   UNL     1       5.459   6.350  17.097  0.00  0.00    +0.000 A 
ATOM      6  C   UNL     1       4.288   6.401  17.857  0.00  0.00    +0.000 A 
ATOM      7  C   UNL     1       3.426   5.300  17.912  0.00  0.00    +0.000 A 
ATOM      8  C   UNL     1       3.734   4.143  17.203  0.00  0.00    +0.000 A 
ATOM      9 CL   UNL     1       2.698   2.774  17.307  0.00  0.00    +0.000 Cl
ATOM     10  C   UNL     1       4.881   4.088  16.416  0.00  0.00    +0.000 A 
ATOM     11  C   UNL     1       5.736   5.195  16.355  0.00  0.00    +0.000 A 
ENDBRANCH   3   5
BRANCH   2  12
ATOM     12  C   UNL     1       8.283   8.786  17.485  0.00  0.00    +0.000 C 
ATOM     13  C   UNL     1       8.581   9.637  18.478  0.00  0.00    +0.000 C 
BRANCH  13  14
ATOM     14  C   UNL     1       9.304  10.874  18.212  0.00  0.00    +0.000 A 
ATOM     15  C   UNL     1      10.701  10.917  18.317  0.00  0.00    +0.000 A 
ATOM     16  C   UNL     1      11.385  12.116  18.102  0.00  0.00    +0.000 A 
ATOM     17  C   UNL     1      10.680  13.279  17.781  0.00  0.00    +0.000 A 
ATOM     18  C   UNL     1       9.294  13.227  17.672  0.00  0.00    +0.000 A 
ATOM     19  C   UNL     1       8.603  12.038  17.879  0.00  0.00    +0.000 A 
BRANCH  18  20
ATOM     20  O   UNL     1       8.566  14.339  17.367  0.00  0.00    +0.000 OA
ATOM     21  H   UNL     1       7.908  14.103  16.694  0.00  0.00    +0.000 HD
ENDBRANCH  18  20
ENDBRANCH  13  14
ENDBRANCH   2  12
TORSDOF 4
ENDMDL
MODEL 7
REMARK VINA RESULT:      -7.5      1.489      2.054
REMARK  Name = 
REMARK  4 active torsions:
REMARK  status: ('A' for Active; 'I' for Inactive)
REMARK    1  A    between atoms: C_2  and  C_3
REMARK    2  A    between atoms: C_4  and  C_5
REMARK    3  A    between atoms: C_9  and  O_10
REMARK    4  A    between atoms: N_12  and  C_13
REMARK                            x       y       z     vdW  Elec       q    Type
REMARK                         _______ _______ _______ _____ _____    ______ ____
ROOT
ATOM      1  O   UNL     1       7.714   6.518  16.433  0.00  0.00    +0.000 OA
ATOM      2  C   UNL     1       7.244   7.238  17.305  0.00  0.00    +0.000 C 
ATOM      3  N   UNL     1       6.160   6.962  18.117  0.00  0.00    +0.000 N 
ATOM      4  H   UNL     1       5.812   7.710  18.700  0.00  0.00    +0.000 HD
ENDROOT
BRANCH   3   5
ATOM      5  C   UNL     1       5.411   5.765  18.132  0.00  0.00    +0.000 A 
ATOM      6  C   UNL     1       5.542   4.788  19.123  0.00  0.00    +0.000 A 
ATOM      7  C   UNL     1       4.801   3.602  19.056  0.00  0.00    +0.000 A 
ATOM      8  C   UNL     1       3.926   3.392  17.996  0.00  0.00    +0.000 A 
ATOM      9 CL   UNL     1       3.049   1.916  17.890  0.00  0.00    +0.000 Cl
ATOM     10  C   UNL     1       3.761   4.369  17.018  0.00  0.00    +0.000 A 
ATOM     11  C   UNL     1       4.495   5.558  17.093  0.00  0.00    +0.000 A 
ENDBRANCH   3   5
BRANCH   2  12
ATOM     12  C   UNL     1       7.816   8.586  17.572  0.00  0.00    +0.000 C 
ATOM     13  C   UNL     1       8.580   8.782  18.658  0.00  0.00    +0.000 C 
BRANCH  13  14
ATOM     14  C   UNL     1       9.154  10.091  18.943  0.00  0.00    +0.000 A 
ATOM     15  C   UNL     1       9.622  10.904  17.902  0.00  0.00    +0.000 A 
ATOM     16  C   UNL     1      10.210  12.140  18.184  0.00  0.00    +0.000 A 
ATOM     17  C   UNL     1      10.335  12.571  19.507  0.00  0.00    +0.000 A 
ATOM     18  C   UNL     1       9.862  11.762  20.535  0.00  0.00    +0.000 A 
ATOM     19  C   UNL     1       9.271  10.533  20.265  0.00  0.00    +0.000 A 
BRANCH  18  20
ATOM     20  O   UNL     1       9.968  12.142  21.841  0.00  0.00    +0.000 OA
ATOM     21  H   UNL     1      10.701  11.653  22.247  0.00  0.00    +0.000 HD
ENDBRANCH  18  20
ENDBRANCH  13  14
ENDBRANCH   2  12
TORSDOF 4
ENDMDL
MODEL 8
REMARK VINA RESULT:      -7.5      1.388      1.584
REMARK  Name = 
REMARK  4 active torsions:
REMARK  status: ('A' for Active; 'I' for Inactive)
REMARK    1  A    between atoms: C_2  and  C_3
REMARK    2  A    between atoms: C_4  and  C_5
REMARK    3  A    between atoms: C_9  and  O_10
REMARK    4  A    between atoms: N_12  and  C_13
REMARK                            x       y       z     vdW  Elec       q    Type
REMARK                         _______ _______ _______ _____ _____    ______ ____
ROOT
ATOM      1  O   UNL     1       8.058   6.830  18.604  0.00  0.00    +0.000 OA
ATOM      2  C   UNL     1       7.445   7.543  17.820  0.00  0.00    +0.000 C 
ATOM      3  N   UNL     1       6.307   7.210  17.109  0.00  0.00    +0.000 N 
ATOM      4  H   UNL     1       5.992   7.860  16.402  0.00  0.00    +0.000 HD
ENDROOT
BRANCH   3   5
ATOM      5  C   UNL     1       5.598   5.992  17.189  0.00  0.00    +0.000 A 
ATOM      6  C   UNL     1       5.833   4.908  16.338  0.00  0.00    +0.000 A 
ATOM      7  C   UNL     1       5.064   3.743  16.441  0.00  0.00    +0.000 A 
ATOM      8  C   UNL     1       4.058   3.659  17.398  0.00  0.00    +0.000 A 
ATOM      9 CL   UNL     1       3.083   2.245  17.495  0.00  0.00    +0.000 Cl
ATOM     10  C   UNL     1       3.833   4.718  18.273  0.00  0.00    +0.000 A 
ATOM     11  C   UNL     1       4.610   5.878  18.175  0.00  0.00    +0.000 A 
ENDBRANCH   3   5
BRANCH   2  12
ATOM     12  C   UNL     1       7.915   8.922  17.513  0.00  0.00    +0.000 C 
ATOM     13  C   UNL     1       8.750   9.545  18.358  0.00  0.00    +0.000 C 
BRANCH  13  14
ATOM     14  C   UNL     1       9.228  10.893  18.081  0.00  0.00    +0.000 A 
ATOM     15  C   UNL     1       8.341  11.978  18.094  0.00  0.00    +0.000 A 
ATOM     16  C   UNL     1       8.797  13.263  17.785  0.00  0.00    +0.000 A 
ATOM     17  C   UNL     1      10.140  13.472  17.461  0.00  0.00    +0.000 A 
ATOM     18  C   UNL     1      11.016  12.391  17.457  0.00  0.00    +0.000 A 
ATOM     19  C   UNL     1      10.574  11.109  17.767  0.00  0.00    +0.000 A 
BRANCH  18  20
ATOM     20  O   UNL     1      12.333  12.548  17.142  0.00  0.00    +0.000 OA
ATOM     21  H   UNL     1      12.395  12.984  16.278  0.00  0.00    +0.000 HD
ENDBRANCH  18  20
ENDBRANCH  13  14
ENDBRANCH   2  12
TORSDOF 4
ENDMDL
MODEL 9
REMARK VINA RESULT:      -7.4      1.519      1.880
REMARK  Name = 
REMARK  4 active torsions:
REMARK  status: ('A' for Active; 'I' for Inactive)
REMARK    1  A    between atoms: C_2  and  C_3
REMARK    2  A    between atoms: C_4  and  C_5
REMARK    3  A    between atoms: C_9  and  O_10
REMARK    4  A    between atoms: N_12  and  C_13
REMARK                            x       y       z     vdW  Elec       q    Type
REMARK                         _______ _______ _______ _____ _____    ______ ____
ROOT
ATOM      1  O   UNL     1       8.231   6.886  18.757  0.00  0.00    +0.000 OA
ATOM      2  C   UNL     1       7.811   7.800  18.057  0.00  0.00    +0.000 C 
ATOM      3  N   UNL     1       6.680   7.786  17.263  0.00  0.00    +0.000 N 
ATOM      4  H   UNL     1       6.535   8.570  16.643  0.00  0.00    +0.000 HD
ENDROOT
BRANCH   3   5
ATOM      5  C   UNL     1       5.755   6.725  17.145  0.00  0.00    +0.000 A 
ATOM      6  C   UNL     1       4.500   6.727  17.760  0.00  0.00    +0.000 A 
ATOM      7  C   UNL     1       3.646   5.624  17.639  0.00  0.00    +0.000 A 
ATOM      8  C   UNL     1       4.047   4.516  16.901  0.00  0.00    +0.000 A 
ATOM      9 CL   UNL     1       3.017   3.143  16.790  0.00  0.00    +0.000 Cl
ATOM     10  C   UNL     1       5.281   4.512  16.257  0.00  0.00    +0.000 A 
ATOM     11  C   UNL     1       6.128   5.620  16.370  0.00  0.00    +0.000 A 
ENDBRANCH   3   5
BRANCH   2  12
ATOM     12  C   UNL     1       8.546   9.091  17.964  0.00  0.00    +0.000 C 
ATOM     13  C   UNL     1       9.032   9.663  19.076  0.00  0.00    +0.000 C 
BRANCH  13  14
ATOM     14  C   UNL     1       9.757  10.925  19.013  0.00  0.00    +0.000 A 
ATOM     15  C   UNL     1      10.359  11.457  20.161  0.00  0.00    +0.000 A 
ATOM     16  C   UNL     1      11.017  12.689  20.104  0.00  0.00    +0.000 A 
ATOM     17  C   UNL     1      11.078  13.397  18.901  0.00  0.00    +0.000 A 
ATOM     18  C   UNL     1      10.483  12.859  17.764  0.00  0.00    +0.000 A 
ATOM     19  C   UNL     1       9.830  11.632  17.808  0.00  0.00    +0.000 A 
BRANCH  18  20
ATOM     20  O   UNL     1      10.513  13.518  16.570  0.00  0.00    +0.000 OA
ATOM     21  H   UNL     1      10.485  12.865  15.855  0.00  0.00    +0.000 HD
ENDBRANCH  18  20
ENDBRANCH  13  14
ENDBRANCH   2  12
TORSDOF 4
ENDMDL
