MODEL 1
REMARK VINA RESULT:      -8.1      0.000      0.000
REMARK  Name = 
REMARK  8 active torsions:
REMARK  status: ('A' for Active; 'I' for Inactive)
REMARK    1  A    between atoms: C_1  and  C_2
REMARK    2  A    between atoms: C_3  and  C_4
REMARK    3  A    between atoms: C_4  and  N_5
REMARK    4  A    between atoms: C_6  and  C_7
REMARK    5  A    between atoms: N_9  and  C_10
REMARK    6  A    between atoms: C_10  and  C_11
REMARK    7  A    between atoms: C_13  and  C_14
REMARK    8  A    between atoms: C_29  and  N_30
REMARK                            x       y       z     vdW  Elec       q    Type
REMARK                         _______ _______ _______ _____ _____    ______ ____
ROOT
ATOM      1  N   UNL     1       0.039  11.319  19.760  0.00  0.00    +0.000 N 
ATOM      2  C   UNL     1       0.202  10.539  18.627  0.00  0.00    +0.000 A 
ATOM      3  C   UNL     1      -1.102  10.419  18.175  0.00  0.00    +0.000 A 
ATOM      4  N   UNL     1      -2.015  11.024  19.031  0.00  0.00    +0.000 NA
ATOM      5  C   UNL     1      -1.301  11.626  19.963  0.00  0.00    +0.000 A 
ATOM      6  N   UNL     1      -1.692  12.433  21.002  0.00  0.00    +0.000 N 
ATOM      7  C   UNL     1      -2.981  12.345  21.684  0.00  0.00    +0.000 C 
ATOM      8  C   UNL     1      -2.710  12.442  23.205  0.00  0.00    +0.000 C 
ATOM      9  C   UNL     1      -1.955  13.729  23.568  0.00  0.00    +0.000 C 
ATOM     10  C   UNL     1      -0.667  13.830  22.757  0.00  0.00    +0.000 C 
ATOM     11  C   UNL     1      -1.033  13.708  21.264  0.00  0.00    +0.000 C 
ENDROOT
BRANCH   2  12
ATOM     12  C   UNL     1       1.464  10.015  18.133  0.00  0.00    +0.000 C 
ATOM     13  O   UNL     1       2.261  10.689  17.432  0.00  0.00    +0.000 OA
ATOM     14  N   UNL     1       1.780   8.726  18.437  0.00  0.00    +0.000 N 
ATOM     15  H   UNL     1       1.156   8.138  18.982  0.00  0.00    +0.000 HD
BRANCH  14  16
ATOM     16  C   UNL     1       3.025   8.113  18.006  0.00  0.00    +0.000 C 
BRANCH  16  17
ATOM     17  C   UNL     1       3.088   6.613  18.254  0.00  0.00    +0.000 A 
ATOM     18  N   UNL     1       2.200   6.093  19.150  0.00  0.00    +0.000 NA
ATOM     19  C   UNL     1       2.161   4.747  19.299  0.00  0.00    +0.000 A 
ATOM     20  C   UNL     1       1.160   4.174  20.253  0.00  0.00    +0.000 C 
ATOM     21  C   UNL     1       2.980   3.875  18.593  0.00  0.00    +0.000 A 
ATOM     22  C   UNL     1       3.864   4.401  17.658  0.00  0.00    +0.000 A 
ATOM     23  C   UNL     1       4.600   3.536  16.837  0.00  0.00    +0.000 A 
ATOM     24  C   UNL     1       5.283   4.046  15.739  0.00  0.00    +0.000 A 
ATOM     25  C   UNL     1       5.472   5.415  15.624  0.00  0.00    +0.000 A 
ATOM     26  C   UNL     1       4.854   6.285  16.518  0.00  0.00    +0.000 A 
ATOM     27  C   UNL     1       3.951   5.796  17.484  0.00  0.00    +0.000 A 
ENDBRANCH  16  17
ENDBRANCH  14  16
ENDBRANCH   2  12
BRANCH  10  28
ATOM     28  N   UNL     1       0.057  15.061  23.081  0.00  0.00    +0.000 NA
ATOM     29  H   UNL     1      -0.590  15.740  23.474  0.00  0.00    +0.000 HD
ATOM     30  H   UNL     1       0.419  15.473  22.219  0.00  0.00    +0.000 HD
ENDBRANCH  10  28
BRANCH   1  31
ATOM     31  C   UNL     1       1.140  11.825  20.566  0.00  0.00    +0.000 C 
BRANCH  31  34
ATOM     32  C   UNL     1       3.226  14.919  18.407  0.00  0.00    +0.000 C 
ATOM     33  C   UNL     1       2.493  13.831  19.176  0.00  0.00    +0.000 C 
ATOM     34  C   UNL     1       1.863  12.899  19.835  0.00  0.00    +0.000 C 
ENDBRANCH  31  34
ENDBRANCH   1  31
TORSDOF 6
ENDMDL
MODEL 2
REMARK VINA RESULT:      -8.0      1.644      2.746
REMARK  Name = 
REMARK  8 active torsions:
REMARK  status: ('A' for Active; 'I' for Inactive)
REMARK    1  A    between atoms: C_1  and  C_2
REMARK    2  A    between atoms: C_3  and  C_4
REMARK    3  A    between atoms: C_4  and  N_5
REMARK    4  A    between atoms: C_6  and  C_7
REMARK    5  A    between atoms: N_9  and  C_10
REMARK    6  A    between atoms: C_10  and  C_11
REMARK    7  A    between atoms: C_13  and  C_14
REMARK    8  A    between atoms: C_29  and  N_30
REMARK                            x       y       z     vdW  Elec       q    Type
REMARK                         _______ _______ _______ _____ _____    ______ ____
ROOT
ATOM      1  N   UNL     1      -0.160  11.325  20.624  0.00  0.00    +0.000 N 
ATOM      2  C   UNL     1       0.736  10.269  20.565  0.00  0.00    +0.000 A 
ATOM      3  C   UNL     1       0.759   9.842  21.884  0.00  0.00    +0.000 A 
ATOM      4  N   UNL     1      -0.017  10.644  22.712  0.00  0.00    +0.000 NA
ATOM      5  C   UNL     1      -0.625  11.509  21.922  0.00  0.00    +0.000 A 
ATOM      6  N   UNL     1      -1.561  12.470  22.206  0.00  0.00    +0.000 N 
ATOM      7  C   UNL     1      -1.675  13.169  23.484  0.00  0.00    +0.000 C 
ATOM      8  C   UNL     1      -1.884  14.671  23.176  0.00  0.00    +0.000 C 
ATOM      9  C   UNL     1      -3.112  14.905  22.283  0.00  0.00    +0.000 C 
ATOM     10  C   UNL     1      -3.000  14.076  21.008  0.00  0.00    +0.000 C 
ATOM     11  C   UNL     1      -2.778  12.604  21.412  0.00  0.00    +0.000 C 
ENDROOT
BRANCH   2  12
ATOM     12  C   UNL     1       1.435   9.816  19.375  0.00  0.00    +0.000 C 
ATOM     13  O   UNL     1       1.785  10.588  18.447  0.00  0.00    +0.000 OA
ATOM     14  N   UNL     1       1.706   8.486  19.265  0.00  0.00    +0.000 N 
ATOM     15  H   UNL     1       1.423   7.822  19.980  0.00  0.00    +0.000 HD
BRANCH  14  16
ATOM     16  C   UNL     1       2.416   7.934  18.124  0.00  0.00    +0.000 C 
BRANCH  16  17
ATOM     17  C   UNL     1       2.754   6.457  18.268  0.00  0.00    +0.000 A 
ATOM     18  N   UNL     1       1.955   5.713  19.086  0.00  0.00    +0.000 NA
ATOM     19  C   UNL     1       2.167   4.376  19.138  0.00  0.00    +0.000 A 
ATOM     20  C   UNL     1       1.265   3.554  20.006  0.00  0.00    +0.000 C 
ATOM     21  C   UNL     1       3.157   3.729  18.409  0.00  0.00    +0.000 A 
ATOM     22  C   UNL     1       3.953   4.482  17.553  0.00  0.00    +0.000 A 
ATOM     23  C   UNL     1       4.864   3.835  16.707  0.00  0.00    +0.000 A 
ATOM     24  C   UNL     1       5.470   4.547  15.678  0.00  0.00    +0.000 A 
ATOM     25  C   UNL     1       5.399   5.932  15.667  0.00  0.00    +0.000 A 
ATOM     26  C   UNL     1       4.601   6.600  16.593  0.00  0.00    +0.000 A 
ATOM     27  C   UNL     1       3.779   5.878  17.481  0.00  0.00    +0.000 A 
ENDBRANCH  16  17
ENDBRANCH  14  16
ENDBRANCH   2  12
BRANCH  10  28
ATOM     28  N   UNL     1      -4.171  14.275  20.153  0.00  0.00    +0.000 NA
ATOM     29  H   UNL     1      -4.168  13.584  19.406  0.00  0.00    +0.000 HD
ATOM     30  H   UNL     1      -4.104  15.188  19.701  0.00  0.00    +0.000 HD
ENDBRANCH  10  28
BRANCH   1  31
ATOM     31  C   UNL     1      -0.619  12.069  19.462  0.00  0.00    +0.000 C 
BRANCH  31  34
ATOM     32  C   UNL     1      -3.149   9.620  16.975  0.00  0.00    +0.000 C 
ATOM     33  C   UNL     1      -2.259  10.480  17.859  0.00  0.00    +0.000 C 
ATOM     34  C   UNL     1      -1.496  11.216  18.617  0.00  0.00    +0.000 C 
ENDBRANCH  31  34
ENDBRANCH   1  31
TORSDOF 6
ENDMDL
MODEL 3
REMARK VINA RESULT:      -8.0      5.508      9.817
REMARK  Name = 
REMARK  8 active torsions:
REMARK  status: ('A' for Active; 'I' for Inactive)
REMARK    1  A    between atoms: C_1  and  C_2
REMARK    2  A    between atoms: C_3  and  C_4
REMARK    3  A    between atoms: C_4  and  N_5
REMARK    4  A    between atoms: C_6  and  C_7
REMARK    5  A    between atoms: N_9  and  C_10
REMARK    6  A    between atoms: C_10  and  C_11
REMARK    7  A    between atoms: C_13  and  C_14
REMARK    8  A    between atoms: C_29  and  N_30
REMARK                            x       y       z     vdW  Elec       q    Type
REMARK                         _______ _______ _______ _____ _____    ______ ____
ROOT
ATOM      1  N   UNL     1       6.100   5.867  18.275  0.00  0.00    +0.000 N 
ATOM      2  C   UNL     1       7.281   6.514  18.596  0.00  0.00    +0.000 A 
ATOM      3  C   UNL     1       7.712   5.791  19.697  0.00  0.00    +0.000 A 
ATOM      4  N   UNL     1       6.801   4.811  20.073  0.00  0.00    +0.000 NA
ATOM      5  C   UNL     1       5.850   4.823  19.158  0.00  0.00    +0.000 A 
ATOM      6  N   UNL     1       4.756   4.010  19.001  0.00  0.00    +0.000 N 
ATOM      7  C   UNL     1       4.053   3.341  20.092  0.00  0.00    +0.000 C 
ATOM      8  C   UNL     1       2.535   3.522  19.848  0.00  0.00    +0.000 C 
ATOM      9  C   UNL     1       2.110   2.981  18.474  0.00  0.00    +0.000 C 
ATOM     10  C   UNL     1       2.942   3.632  17.373  0.00  0.00    +0.000 C 
ATOM     11  C   UNL     1       4.431   3.416  17.709  0.00  0.00    +0.000 C 
ENDROOT
BRANCH   2  12
ATOM     12  C   UNL     1       7.834   7.664  17.901  0.00  0.00    +0.000 C 
ATOM     13  O   UNL     1       7.742   7.826  16.657  0.00  0.00    +0.000 OA
ATOM     14  N   UNL     1       8.494   8.598  18.640  0.00  0.00    +0.000 N 
ATOM     15  H   UNL     1       8.611   8.498  19.645  0.00  0.00    +0.000 HD
BRANCH  14  16
ATOM     16  C   UNL     1       9.067   9.793  18.044  0.00  0.00    +0.000 C 
BRANCH  16  17
ATOM     17  C   UNL     1       9.359  10.899  19.048  0.00  0.00    +0.000 A 
ATOM     18  N   UNL     1       8.819  10.766  20.294  0.00  0.00    +0.000 NA
ATOM     19  C   UNL     1       9.161  11.679  21.236  0.00  0.00    +0.000 A 
ATOM     20  C   UNL     1       8.599  11.511  22.614  0.00  0.00    +0.000 C 
ATOM     21  C   UNL     1      10.025  12.740  20.996  0.00  0.00    +0.000 A 
ATOM     22  C   UNL     1      10.599  12.858  19.735  0.00  0.00    +0.000 A 
ATOM     23  C   UNL     1      11.577  13.837  19.509  0.00  0.00    +0.000 A 
ATOM     24  C   UNL     1      12.333  13.796  18.343  0.00  0.00    +0.000 A 
ATOM     25  C   UNL     1      11.933  12.980  17.294  0.00  0.00    +0.000 A 
ATOM     26  C   UNL     1      10.871  12.095  17.460  0.00  0.00    +0.000 A 
ATOM     27  C   UNL     1      10.258  11.943  18.720  0.00  0.00    +0.000 A 
ENDBRANCH  16  17
ENDBRANCH  14  16
ENDBRANCH   2  12
BRANCH  10  28
ATOM     28  N   UNL     1       2.559   3.115  16.058  0.00  0.00    +0.000 NA
ATOM     29  H   UNL     1       2.549   2.098  16.084  0.00  0.00    +0.000 HD
ATOM     30  H   UNL     1       3.270   3.379  15.375  0.00  0.00    +0.000 HD
ENDBRANCH  10  28
BRANCH   1  31
ATOM     31  C   UNL     1       5.289   6.183  17.109  0.00  0.00    +0.000 C 
BRANCH  31  34
ATOM     32  C   UNL     1       1.915   8.630  18.211  0.00  0.00    +0.000 C 
ATOM     33  C   UNL     1       3.104   7.763  17.830  0.00  0.00    +0.000 C 
ATOM     34  C   UNL     1       4.124   7.019  17.503  0.00  0.00    +0.000 C 
ENDBRANCH  31  34
ENDBRANCH   1  31
TORSDOF 6
ENDMDL
MODEL 4
REMARK VINA RESULT:      -7.9      1.457      2.020
REMARK  Name = 
REMARK  8 active torsions:
REMARK  status: ('A' for Active; 'I' for Inactive)
REMARK    1  A    between atoms: C_1  and  C_2
REMARK    2  A    between atoms: C_3  and  C_4
REMARK    3  A    between atoms: C_4  and  N_5
REMARK    4  A    between atoms: C_6  and  C_7
REMARK    5  A    between atoms: N_9  and  C_10
REMARK    6  A    between atoms: C_10  and  C_11
REMARK    7  A    between atoms: C_13  and  C_14
REMARK    8  A    between atoms: C_29  and  N_30
REMARK                            x       y       z     vdW  Elec       q    Type
REMARK                         _______ _______ _______ _____ _____    ______ ____
ROOT
ATOM      1  N   UNL     1      -0.373  11.204  20.579  0.00  0.00    +0.000 N 
ATOM      2  C   UNL     1       0.458  10.100  20.489  0.00  0.00    +0.000 A 
ATOM      3  C   UNL     1       0.604   9.745  21.821  0.00  0.00    +0.000 A 
ATOM      4  N   UNL     1      -0.036  10.632  22.677  0.00  0.00    +0.000 NA
ATOM      5  C   UNL     1      -0.684  11.485  21.905  0.00  0.00    +0.000 A 
ATOM      6  N   UNL     1      -1.536  12.510  22.230  0.00  0.00    +0.000 N 
ATOM      7  C   UNL     1      -1.474  13.282  23.468  0.00  0.00    +0.000 C 
ATOM      8  C   UNL     1      -1.642  14.775  23.094  0.00  0.00    +0.000 C 
ATOM      9  C   UNL     1      -2.948  15.027  22.325  0.00  0.00    +0.000 C 
ATOM     10  C   UNL     1      -3.016  14.124  21.096  0.00  0.00    +0.000 C 
ATOM     11  C   UNL     1      -2.824  12.668  21.563  0.00  0.00    +0.000 C 
ENDROOT
BRANCH   2  12
ATOM     12  C   UNL     1       1.000   9.544  19.261  0.00  0.00    +0.000 C 
ATOM     13  O   UNL     1       0.640   9.924  18.117  0.00  0.00    +0.000 OA
ATOM     14  N   UNL     1       1.930   8.556  19.366  0.00  0.00    +0.000 N 
ATOM     15  H   UNL     1       2.234   8.202  20.269  0.00  0.00    +0.000 HD
BRANCH  14  16
ATOM     16  C   UNL     1       2.546   7.947  18.199  0.00  0.00    +0.000 C 
BRANCH  16  17
ATOM     17  C   UNL     1       2.832   6.461  18.363  0.00  0.00    +0.000 A 
ATOM     18  N   UNL     1       2.030   5.763  19.218  0.00  0.00    +0.000 NA
ATOM     19  C   UNL     1       2.194   4.420  19.290  0.00  0.00    +0.000 A 
ATOM     20  C   UNL     1       1.287   3.650  20.200  0.00  0.00    +0.000 C 
ATOM     21  C   UNL     1       3.136   3.722  18.546  0.00  0.00    +0.000 A 
ATOM     22  C   UNL     1       3.933   4.428  17.651  0.00  0.00    +0.000 A 
ATOM     23  C   UNL     1       4.794   3.731  16.792  0.00  0.00    +0.000 A 
ATOM     24  C   UNL     1       5.395   4.401  15.732  0.00  0.00    +0.000 A 
ATOM     25  C   UNL     1       5.377   5.787  15.696  0.00  0.00    +0.000 A 
ATOM     26  C   UNL     1       4.632   6.502  16.632  0.00  0.00    +0.000 A 
ATOM     27  C   UNL     1       3.811   5.828  17.557  0.00  0.00    +0.000 A 
ENDBRANCH  16  17
ENDBRANCH  14  16
ENDBRANCH   2  12
BRANCH  10  28
ATOM     28  N   UNL     1      -4.263  14.341  20.361  0.00  0.00    +0.000 NA
ATOM     29  H   UNL     1      -4.401  15.339  20.215  0.00  0.00    +0.000 HD
ATOM     30  H   UNL     1      -5.048  14.023  20.932  0.00  0.00    +0.000 HD
ENDBRANCH  10  28
BRANCH   1  31
ATOM     31  C   UNL     1      -0.919  11.909  19.430  0.00  0.00    +0.000 C 
BRANCH  31  34
ATOM     32  C   UNL     1       1.362  15.489  18.679  0.00  0.00    +0.000 C 
ATOM     33  C   UNL     1       0.559  14.224  18.936  0.00  0.00    +0.000 C 
ATOM     34  C   UNL     1      -0.130  13.139  19.156  0.00  0.00    +0.000 C 
ENDBRANCH  31  34
ENDBRANCH   1  31
TORSDOF 6
ENDMDL
MODEL 5
REMARK VINA RESULT:      -7.9      6.787     10.086
REMARK  Name = 
REMARK  8 active torsions:
REMARK  status: ('A' for Active; 'I' for Inactive)
REMARK    1  A    between atoms: C_1  and  C_2
REMARK    2  A    between atoms: C_3  and  C_4
REMARK    3  A    between atoms: C_4  and  N_5
REMARK    4  A    between atoms: C_6  and  C_7
REMARK    5  A    between atoms: N_9  and  C_10
REMARK    6  A    between atoms: C_10  and  C_11
REMARK    7  A    between atoms: C_13  and  C_14
REMARK    8  A    between atoms: C_29  and  N_30
REMARK                            x       y       z     vdW  Elec       q    Type
REMARK                         _______ _______ _______ _____ _____    ______ ____
ROOT
ATOM      1  N   UNL     1       6.076   5.899  18.377  0.00  0.00    +0.000 N 
ATOM      2  C   UNL     1       7.309   6.477  18.629  0.00  0.00    +0.000 A 
ATOM      3  C   UNL     1       7.784   5.692  19.667  0.00  0.00    +0.000 A 
ATOM      4  N   UNL     1       6.857   4.741  20.077  0.00  0.00    +0.000 NA
ATOM      5  C   UNL     1       5.841   4.834  19.240  0.00  0.00    +0.000 A 
ATOM      6  N   UNL     1       4.699   4.080  19.138  0.00  0.00    +0.000 N 
ATOM      7  C   UNL     1       4.048   3.402  20.256  0.00  0.00    +0.000 C 
ATOM      8  C   UNL     1       2.527   3.664  20.136  0.00  0.00    +0.000 C 
ATOM      9  C   UNL     1       1.973   3.198  18.781  0.00  0.00    +0.000 C 
ATOM     10  C   UNL     1       2.751   3.852  17.643  0.00  0.00    +0.000 C 
ATOM     11  C   UNL     1       4.249   3.553  17.855  0.00  0.00    +0.000 C 
ENDROOT
BRANCH   2  12
ATOM     12  C   UNL     1       7.865   7.626  17.935  0.00  0.00    +0.000 C 
ATOM     13  O   UNL     1       7.853   7.745  16.683  0.00  0.00    +0.000 OA
ATOM     14  N   UNL     1       8.435   8.608  18.685  0.00  0.00    +0.000 N 
ATOM     15  H   UNL     1       8.486   8.544  19.698  0.00  0.00    +0.000 HD
BRANCH  14  16
ATOM     16  C   UNL     1       9.002   9.806  18.090  0.00  0.00    +0.000 C 
BRANCH  16  17
ATOM     17  C   UNL     1       9.327  10.898  19.099  0.00  0.00    +0.000 A 
ATOM     18  N   UNL     1       8.803  10.762  20.351  0.00  0.00    +0.000 NA
ATOM     19  C   UNL     1       9.173  11.661  21.296  0.00  0.00    +0.000 A 
ATOM     20  C   UNL     1       8.629  11.489  22.681  0.00  0.00    +0.000 C 
ATOM     21  C   UNL     1      10.049  12.710  21.053  0.00  0.00    +0.000 A 
ATOM     22  C   UNL     1      10.607  12.832  19.784  0.00  0.00    +0.000 A 
ATOM     23  C   UNL     1      11.596  13.798  19.552  0.00  0.00    +0.000 A 
ATOM     24  C   UNL     1      12.333  13.756  18.375  0.00  0.00    +0.000 A 
ATOM     25  C   UNL     1      11.906  12.956  17.325  0.00  0.00    +0.000 A 
ATOM     26  C   UNL     1      10.832  12.086  17.499  0.00  0.00    +0.000 A 
ATOM     27  C   UNL     1      10.236  11.932  18.767  0.00  0.00    +0.000 A 
ENDBRANCH  16  17
ENDBRANCH  14  16
ENDBRANCH   2  12
BRANCH  10  28
ATOM     28  N   UNL     1       2.245   3.405  16.344  0.00  0.00    +0.000 NA
ATOM     29  H   UNL     1       2.749   2.570  16.053  0.00  0.00    +0.000 HD
ATOM     30  H   UNL     1       2.445   4.121  15.643  0.00  0.00    +0.000 HD
ENDBRANCH  10  28
BRANCH   1  31
ATOM     31  C   UNL     1       5.196   6.298  17.289  0.00  0.00    +0.000 C 
BRANCH  31  34
ATOM     32  C   UNL     1       6.178   4.172  13.669  0.00  0.00    +0.000 C 
ATOM     33  C   UNL     1       5.840   4.921  14.948  0.00  0.00    +0.000 C 
ATOM     34  C   UNL     1       5.550   5.565  16.044  0.00  0.00    +0.000 C 
ENDBRANCH  31  34
ENDBRANCH   1  31
TORSDOF 6
ENDMDL
MODEL 6
REMARK VINA RESULT:      -7.9      1.674      2.246
REMARK  Name = 
REMARK  8 active torsions:
REMARK  status: ('A' for Active; 'I' for Inactive)
REMARK    1  A    between atoms: C_1  and  C_2
REMARK    2  A    between atoms: C_3  and  C_4
REMARK    3  A    between atoms: C_4  and  N_5
REMARK    4  A    between atoms: C_6  and  C_7
REMARK    5  A    between atoms: N_9  and  C_10
REMARK    6  A    between atoms: C_10  and  C_11
REMARK    7  A    between atoms: C_13  and  C_14
REMARK    8  A    between atoms: C_29  and  N_30
REMARK                            x       y       z     vdW  Elec       q    Type
REMARK                         _______ _______ _______ _____ _____    ______ ____
ROOT
ATOM      1  N   UNL     1       0.388  12.104  19.821  0.00  0.00    +0.000 N 
ATOM      2  C   UNL     1       0.541  10.729  19.892  0.00  0.00    +0.000 A 
ATOM      3  C   UNL     1       0.276  10.482  21.229  0.00  0.00    +0.000 A 
ATOM      4  N   UNL     1       0.053  11.651  21.947  0.00  0.00    +0.000 NA
ATOM      5  C   UNL     1       0.061  12.632  21.065  0.00  0.00    +0.000 A 
ATOM      6  N   UNL     1      -0.188  13.972  21.221  0.00  0.00    +0.000 N 
ATOM      7  C   UNL     1       0.065  14.728  22.444  0.00  0.00    +0.000 C 
ATOM      8  C   UNL     1       0.742  16.059  22.038  0.00  0.00    +0.000 C 
ATOM      9  C   UNL     1      -0.114  16.853  21.039  0.00  0.00    +0.000 C 
ATOM     10  C   UNL     1      -0.440  15.989  19.824  0.00  0.00    +0.000 C 
ATOM     11  C   UNL     1      -1.093  14.686  20.326  0.00  0.00    +0.000 C 
ENDROOT
BRANCH   2  12
ATOM     12  C   UNL     1       0.908   9.859  18.788  0.00  0.00    +0.000 C 
ATOM     13  O   UNL     1       0.145   9.622  17.817  0.00  0.00    +0.000 OA
ATOM     14  N   UNL     1       2.133   9.266  18.825  0.00  0.00    +0.000 N 
ATOM     15  H   UNL     1       2.773   9.411  19.600  0.00  0.00    +0.000 HD
BRANCH  14  16
ATOM     16  C   UNL     1       2.602   8.393  17.762  0.00  0.00    +0.000 C 
BRANCH  16  17
ATOM     17  C   UNL     1       2.976   6.996  18.236  0.00  0.00    +0.000 A 
ATOM     18  N   UNL     1       2.262   6.481  19.279  0.00  0.00    +0.000 NA
ATOM     19  C   UNL     1       2.500   5.197  19.641  0.00  0.00    +0.000 A 
ATOM     20  C   UNL     1       1.689   4.620  20.759  0.00  0.00    +0.000 C 
ATOM     21  C   UNL     1       3.434   4.385  19.011  0.00  0.00    +0.000 A 
ATOM     22  C   UNL     1       4.141   4.899  17.929  0.00  0.00    +0.000 A 
ATOM     23  C   UNL     1       4.987   4.058  17.193  0.00  0.00    +0.000 A 
ATOM     24  C   UNL     1       5.491   4.491  15.971  0.00  0.00    +0.000 A 
ATOM     25  C   UNL     1       5.397   5.831  15.625  0.00  0.00    +0.000 A 
ATOM     26  C   UNL     1       4.670   6.711  16.424  0.00  0.00    +0.000 A 
ATOM     27  C   UNL     1       3.939   6.234  17.530  0.00  0.00    +0.000 A 
ENDBRANCH  16  17
ENDBRANCH  14  16
ENDBRANCH   2  12
BRANCH  10  28
ATOM     28  N   UNL     1      -1.269  16.727  18.870  0.00  0.00    +0.000 NA
ATOM     29  H   UNL     1      -1.615  17.578  19.308  0.00  0.00    +0.000 HD
ATOM     30  H   UNL     1      -2.091  16.167  18.638  0.00  0.00    +0.000 HD
ENDBRANCH  10  28
BRANCH   1  31
ATOM     31  C   UNL     1       0.464  12.869  18.586  0.00  0.00    +0.000 C 
BRANCH  31  34
ATOM     32  C   UNL     1       4.390  14.581  18.093  0.00  0.00    +0.000 C 
ATOM     33  C   UNL     1       3.009  13.970  18.269  0.00  0.00    +0.000 C 
ATOM     34  C   UNL     1       1.825  13.446  18.420  0.00  0.00    +0.000 C 
ENDBRANCH  31  34
ENDBRANCH   1  31
TORSDOF 6
ENDMDL
MODEL 7
REMARK VINA RESULT:      -7.8      1.945      3.422
REMARK  Name = 
REMARK  8 active torsions:
REMARK  status: ('A' for Active; 'I' for Inactive)
REMARK    1  A    between atoms: C_1  and  C_2
REMARK    2  A    between atoms: C_3  and  C_4
REMARK    3  A    between atoms: C_4  and  N_5
REMARK    4  A    between atoms: C_6  and  C_7
REMARK    5  A    between atoms: N_9  and  C_10
REMARK    6  A    between atoms: C_10  and  C_11
REMARK    7  A    between atoms: C_13  and  C_14
REMARK    8  A    between atoms: C_29  and  N_30
REMARK                            x       y       z     vdW  Elec       q    Type
REMARK                         _______ _______ _______ _____ _____    ______ ____
ROOT
ATOM      1  N   UNL     1       0.233  10.505  20.206  0.00  0.00    +0.000 N 
ATOM      2  C   UNL     1       1.028   9.387  20.015  0.00  0.00    +0.000 A 
ATOM      3  C   UNL     1       0.927   8.753  21.243  0.00  0.00    +0.000 A 
ATOM      4  N   UNL     1       0.178   9.486  22.155  0.00  0.00    +0.000 NA
ATOM      5  C   UNL     1      -0.295  10.525  21.493  0.00  0.00    +0.000 A 
ATOM      6  N   UNL     1      -1.154  11.518  21.889  0.00  0.00    +0.000 N 
ATOM      7  C   UNL     1      -1.283  12.009  23.259  0.00  0.00    +0.000 C 
ATOM      8  C   UNL     1      -1.330  13.555  23.196  0.00  0.00    +0.000 C 
ATOM      9  C   UNL     1      -2.472  14.054  22.298  0.00  0.00    +0.000 C 
ATOM     10  C   UNL     1      -2.356  13.435  20.908  0.00  0.00    +0.000 C 
ATOM     11  C   UNL     1      -2.299  11.903  21.071  0.00  0.00    +0.000 C 
ENDROOT
BRANCH   2  12
ATOM     12  C   UNL     1       1.756   9.062  18.800  0.00  0.00    +0.000 C 
ATOM     13  O   UNL     1       1.996   9.903  17.897  0.00  0.00    +0.000 OA
ATOM     14  N   UNL     1       2.182   7.780  18.637  0.00  0.00    +0.000 N 
ATOM     15  H   UNL     1       1.992   7.062  19.332  0.00  0.00    +0.000 HD
BRANCH  14  16
ATOM     16  C   UNL     1       2.933   7.357  17.468  0.00  0.00    +0.000 C 
BRANCH  16  17
ATOM     17  C   UNL     1       3.834   6.155  17.719  0.00  0.00    +0.000 A 
ATOM     18  N   UNL     1       5.167   6.400  17.876  0.00  0.00    +0.000 NA
ATOM     19  C   UNL     1       5.968   5.361  18.215  0.00  0.00    +0.000 A 
ATOM     20  C   UNL     1       7.425   5.637  18.425  0.00  0.00    +0.000 C 
ATOM     21  C   UNL     1       5.504   4.066  18.404  0.00  0.00    +0.000 A 
ATOM     22  C   UNL     1       4.141   3.821  18.274  0.00  0.00    +0.000 A 
ATOM     23  C   UNL     1       3.631   2.555  18.593  0.00  0.00    +0.000 A 
ATOM     24  C   UNL     1       2.257   2.379  18.712  0.00  0.00    +0.000 A 
ATOM     25  C   UNL     1       1.395   3.359  18.243  0.00  0.00    +0.000 A 
ATOM     26  C   UNL     1       1.899   4.577  17.793  0.00  0.00    +0.000 A 
ATOM     27  C   UNL     1       3.274   4.868  17.904  0.00  0.00    +0.000 A 
ENDBRANCH  16  17
ENDBRANCH  14  16
ENDBRANCH   2  12
BRANCH  10  28
ATOM     28  N   UNL     1      -3.447  13.890  20.044  0.00  0.00    +0.000 NA
ATOM     29  H   UNL     1      -3.683  13.154  19.382  0.00  0.00    +0.000 HD
ATOM     30  H   UNL     1      -3.125  14.684  19.489  0.00  0.00    +0.000 HD
ENDBRANCH  10  28
BRANCH   1  31
ATOM     31  C   UNL     1      -0.079  11.471  19.164  0.00  0.00    +0.000 C 
BRANCH  31  34
ATOM     32  C   UNL     1      -3.001   9.881  16.422  0.00  0.00    +0.000 C 
ATOM     33  C   UNL     1      -1.970  10.434  17.392  0.00  0.00    +0.000 C 
ATOM     34  C   UNL     1      -1.084  10.908  18.224  0.00  0.00    +0.000 C 
ENDBRANCH  31  34
ENDBRANCH   1  31
TORSDOF 6
ENDMDL
MODEL 8
REMARK VINA RESULT:      -7.8      1.343      1.679
REMARK  Name = 
REMARK  8 active torsions:
REMARK  status: ('A' for Active; 'I' for Inactive)
REMARK    1  A    between atoms: C_1  and  C_2
REMARK    2  A    between atoms: C_3  and  C_4
REMARK    3  A    between atoms: C_4  and  N_5
REMARK    4  A    between atoms: C_6  and  C_7
REMARK    5  A    between atoms: N_9  and  C_10
REMARK    6  A    between atoms: C_10  and  C_11
REMARK    7  A    between atoms: C_13  and  C_14
REMARK    8  A    between atoms: C_29  and  N_30
REMARK                            x       y       z     vdW  Elec       q    Type
REMARK                         _______ _______ _______ _____ _____    ______ ____
ROOT
ATOM      1  N   UNL     1      -0.053  11.321  20.193  0.00  0.00    +0.000 N 
ATOM      2  C   UNL     1       0.275   9.985  20.038  0.00  0.00    +0.000 A 
ATOM      3  C   UNL     1      -0.181   9.440  21.228  0.00  0.00    +0.000 A 
ATOM      4  N   UNL     1      -0.685  10.405  22.091  0.00  0.00    +0.000 NA
ATOM      5  C   UNL     1      -0.661  11.543  21.424  0.00  0.00    +0.000 A 
ATOM      6  N   UNL     1      -1.116  12.790  21.773  0.00  0.00    +0.000 N 
ATOM      7  C   UNL     1      -1.187  13.297  23.141  0.00  0.00    +0.000 C 
ATOM      8  C   UNL     1      -0.641  14.745  23.129  0.00  0.00    +0.000 C 
ATOM      9  C   UNL     1      -1.412  15.638  22.145  0.00  0.00    +0.000 C 
ATOM     10  C   UNL     1      -1.400  15.017  20.752  0.00  0.00    +0.000 C 
ATOM     11  C   UNL     1      -1.943  13.578  20.865  0.00  0.00    +0.000 C 
ENDROOT
BRANCH   2  12
ATOM     12  C   UNL     1       0.944   9.404  18.886  0.00  0.00    +0.000 C 
ATOM     13  O   UNL     1       0.532   9.547  17.707  0.00  0.00    +0.000 OA
ATOM     14  N   UNL     1       2.063   8.661  19.108  0.00  0.00    +0.000 N 
ATOM     15  H   UNL     1       2.420   8.501  20.046  0.00  0.00    +0.000 HD
BRANCH  14  16
ATOM     16  C   UNL     1       2.815   8.053  18.024  0.00  0.00    +0.000 C 
BRANCH  16  17
ATOM     17  C   UNL     1       3.037   6.557  18.196  0.00  0.00    +0.000 A 
ATOM     18  N   UNL     1       2.220   5.903  19.072  0.00  0.00    +0.000 NA
ATOM     19  C   UNL     1       2.324   4.555  19.153  0.00  0.00    +0.000 A 
ATOM     20  C   UNL     1       1.401   3.834  20.086  0.00  0.00    +0.000 C 
ATOM     21  C   UNL     1       3.219   3.809  18.397  0.00  0.00    +0.000 A 
ATOM     22  C   UNL     1       4.031   4.471  17.482  0.00  0.00    +0.000 A 
ATOM     23  C   UNL     1       4.842   3.728  16.613  0.00  0.00    +0.000 A 
ATOM     24  C   UNL     1       5.453   4.361  15.536  0.00  0.00    +0.000 A 
ATOM     25  C   UNL     1       5.497   5.746  15.488  0.00  0.00    +0.000 A 
ATOM     26  C   UNL     1       4.804   6.502  16.431  0.00  0.00    +0.000 A 
ATOM     27  C   UNL     1       3.970   5.874  17.378  0.00  0.00    +0.000 A 
ENDBRANCH  16  17
ENDBRANCH  14  16
ENDBRANCH   2  12
BRANCH  10  28
ATOM     28  N   UNL     1      -2.146  15.849  19.806  0.00  0.00    +0.000 NA
ATOM     29  H   UNL     1      -2.259  16.783  20.192  0.00  0.00    +0.000 HD
ATOM     30  H   UNL     1      -3.087  15.467  19.694  0.00  0.00    +0.000 HD
ENDBRANCH  10  28
BRANCH   1  31
ATOM     31  C   UNL     1       0.129  12.330  19.161  0.00  0.00    +0.000 C 
BRANCH  31  34
ATOM     32  C   UNL     1       3.855  14.403  19.796  0.00  0.00    +0.000 C 
ATOM     33  C   UNL     1       2.541  13.675  19.564  0.00  0.00    +0.000 C 
ATOM     34  C   UNL     1       1.414  13.050  19.365  0.00  0.00    +0.000 C 
ENDBRANCH  31  34
ENDBRANCH   1  31
TORSDOF 6
ENDMDL
MODEL 9
REMARK VINA RESULT:      -7.7      1.707      3.326
REMARK  Name = 
REMARK  8 active torsions:
REMARK  status: ('A' for Active; 'I' for Inactive)
REMARK    1  A    between atoms: C_1  and  C_2
REMARK    2  A    between atoms: C_3  and  C_4
REMARK    3  A    between atoms: C_4  and  N_5
REMARK    4  A    between atoms: C_6  and  C_7
REMARK    5  A    between atoms: N_9  and  C_10
REMARK    6  A    between atoms: C_10  and  C_11
REMARK    7  A    between atoms: C_13  and  C_14
REMARK    8  A    between atoms: C_29  and  N_30
REMARK                            x       y       z     vdW  Elec       q    Type
REMARK                         _______ _______ _______ _____ _____    ______ ____
ROOT
ATOM      1  N   UNL     1      -0.058  10.667  18.872  0.00  0.00    +0.000 N 
ATOM      2  C   UNL     1       0.368   9.631  18.057  0.00  0.00    +0.000 A 
ATOM      3  C   UNL     1      -0.712   9.480  17.202  0.00  0.00    +0.000 A 
ATOM      4  N   UNL     1      -1.767  10.322  17.530  0.00  0.00    +0.000 NA
ATOM      5  C   UNL     1      -1.334  11.089  18.513  0.00  0.00    +0.000 A 
ATOM      6  N   UNL     1      -1.937  12.141  19.154  0.00  0.00    +0.000 N 
ATOM      7  C   UNL     1      -3.379  12.291  19.331  0.00  0.00    +0.000 C 
ATOM      8  C   UNL     1      -3.625  12.733  20.794  0.00  0.00    +0.000 C 
ATOM      9  C   UNL     1      -2.868  14.025  21.134  0.00  0.00    +0.000 C 
ATOM     10  C   UNL     1      -1.381  13.856  20.837  0.00  0.00    +0.000 C 
ATOM     11  C   UNL     1      -1.236  13.402  19.371  0.00  0.00    +0.000 C 
ENDROOT
BRANCH   2  12
ATOM     12  C   UNL     1       1.638   8.934  18.166  0.00  0.00    +0.000 C 
ATOM     13  O   UNL     1       2.618   9.170  17.415  0.00  0.00    +0.000 OA
ATOM     14  N   UNL     1       1.755   7.971  19.121  0.00  0.00    +0.000 N 
ATOM     15  H   UNL     1       0.982   7.732  19.736  0.00  0.00    +0.000 HD
BRANCH  14  16
ATOM     16  C   UNL     1       2.988   7.229  19.324  0.00  0.00    +0.000 C 
BRANCH  16  17
ATOM     17  C   UNL     1       3.079   5.954  18.498  0.00  0.00    +0.000 A 
ATOM     18  N   UNL     1       3.983   5.938  17.477  0.00  0.00    +0.000 NA
ATOM     19  C   UNL     1       4.162   4.776  16.803  0.00  0.00    +0.000 A 
ATOM     20  C   UNL     1       5.184   4.748  15.709  0.00  0.00    +0.000 C 
ATOM     21  C   UNL     1       3.470   3.608  17.095  0.00  0.00    +0.000 A 
ATOM     22  C   UNL     1       2.569   3.615  18.155  0.00  0.00    +0.000 A 
ATOM     23  C   UNL     1       1.962   2.417  18.555  0.00  0.00    +0.000 A 
ATOM     24  C   UNL     1       1.269   2.367  19.759  0.00  0.00    +0.000 A 
ATOM     25  C   UNL     1       0.937   3.547  20.410  0.00  0.00    +0.000 A 
ATOM     26  C   UNL     1       1.424   4.765  19.942  0.00  0.00    +0.000 A 
ATOM     27  C   UNL     1       2.338   4.806  18.870  0.00  0.00    +0.000 A 
ENDBRANCH  16  17
ENDBRANCH  14  16
ENDBRANCH   2  12
BRANCH  10  28
ATOM     28  N   UNL     1      -0.647  15.086  21.141  0.00  0.00    +0.000 NA
ATOM     29  H   UNL     1      -1.281  15.880  21.089  0.00  0.00    +0.000 HD
ATOM     30  H   UNL     1       0.064  15.238  20.424  0.00  0.00    +0.000 HD
ENDBRANCH  10  28
BRANCH   1  31
ATOM     31  C   UNL     1       0.765  11.288  19.898  0.00  0.00    +0.000 C 
BRANCH  31  34
ATOM     32  C   UNL     1       0.006   9.409  23.703  0.00  0.00    +0.000 C 
ATOM     33  C   UNL     1       0.277  10.078  22.365  0.00  0.00    +0.000 C 
ATOM     34  C   UNL     1       0.510  10.652  21.218  0.00  0.00    +0.000 C 
ENDBRANCH  31  34
ENDBRANCH   1  31
TORSDOF 6
ENDMDL
