MODEL 1
REMARK VINA RESULT:      -7.6      0.000      0.000
REMARK  Name = 
REMARK  6 active torsions:
REMARK  status: ('A' for Active; 'I' for Inactive)
REMARK    1  A    between atoms: C_1  and  C_2
REMARK    2  A    between atoms: C_5  and  N_6
REMARK    3  A    between atoms: C_7  and  C_10
REMARK    4  A    between atoms: N_8  and  O_9
REMARK    5  A    between atoms: C_15  and  O_16
REMARK    6  A    between atoms: O_16  and  C_17
REMARK                            x       y       z     vdW  Elec       q    Type
REMARK                         _______ _______ _______ _____ _____    ______ ____
ROOT
ATOM      1  C   UNL     1       0.156  11.672  20.563  0.00  0.00    +0.000 A 
ATOM      2  C   UNL     1       1.358  12.406  20.597  0.00  0.00    +0.000 A 
ATOM      3  C   UNL     1       1.593  13.416  19.670  0.00  0.00    +0.000 A 
ATOM      4  C   UNL     1       0.624  13.659  18.723  0.00  0.00    +0.000 A 
ATOM      5  N   UNL     1      -0.550  12.997  18.666  0.00  0.00    +0.000 NA
ATOM      6  C   UNL     1      -0.788  12.040  19.607  0.00  0.00    +0.000 A 
ENDROOT
BRANCH   1   8
ATOM      7  N   UNL     1       0.341   9.258  21.303  0.00  0.00    +0.000 N 
ATOM      8  C   UNL     1       0.013  10.573  21.571  0.00  0.00    +0.000 C 
ATOM      9  N   UNL     1      -0.410  10.940  22.752  0.00  0.00    +0.000 NA
ATOM     10  H   UNL     1       0.143   8.670  22.109  0.00  0.00    +0.000 HD
BRANCH   7  15
ATOM     11  C   UNL     1       3.799   6.968  17.306  0.00  0.00    +0.000 C 
ATOM     12  C   UNL     1       2.560   7.258  18.155  0.00  0.00    +0.000 C 
ATOM     13  C   UNL     1       2.808   6.870  19.621  0.00  0.00    +0.000 C 
ATOM     14  C   UNL     1       1.634   7.266  20.523  0.00  0.00    +0.000 C 
ATOM     15  C   UNL     1       1.385   8.772  20.414  0.00  0.00    +0.000 C 
ATOM     16  C   UNL     1       1.048   9.149  18.968  0.00  0.00    +0.000 C 
ATOM     17  C   UNL     1       2.159   8.731  18.009  0.00  0.00    +0.000 C 
ENDBRANCH   7  15
BRANCH   9  18
ATOM     18  O   UNL     1      -0.426   9.869  23.665  0.00  0.00    +0.000 OA
ATOM     19  H   UNL     1       0.524   9.651  23.726  0.00  0.00    +0.000 HD
ENDBRANCH   9  18
ENDBRANCH   1   8
BRANCH   6  20
ATOM     20  O   UNL     1      -2.041  11.433  19.610  0.00  0.00    +0.000 OA
BRANCH  20  21
ATOM     21  C   UNL     1      -2.594  11.068  18.398  0.00  0.00    +0.000 A 
ATOM     22  C   UNL     1      -1.860  10.291  17.494  0.00  0.00    +0.000 A 
ATOM     23  C   UNL     1      -2.393   9.979  16.243  0.00  0.00    +0.000 A 
ATOM     24  C   UNL     1      -3.640  10.476  15.883  0.00  0.00    +0.000 A 
ATOM     25  F   UNL     1      -4.144  10.181  14.678  0.00  0.00    +0.000 F 
ATOM     26  C   UNL     1      -4.373  11.266  16.753  0.00  0.00    +0.000 A 
ATOM     27  C   UNL     1      -3.853  11.555  18.015  0.00  0.00    +0.000 A 
ATOM     28 CL   UNL     1      -4.842  12.492  19.059  0.00  0.00    +0.000 Cl
ENDBRANCH  20  21
ENDBRANCH   6  20
TORSDOF 5
ENDMDL
MODEL 2
REMARK VINA RESULT:      -7.4      5.295      8.113
REMARK  Name = 
REMARK  6 active torsions:
REMARK  status: ('A' for Active; 'I' for Inactive)
REMARK    1  A    between atoms: C_1  and  C_2
REMARK    2  A    between atoms: C_5  and  N_6
REMARK    3  A    between atoms: C_7  and  C_10
REMARK    4  A    between atoms: N_8  and  O_9
REMARK    5  A    between atoms: C_15  and  O_16
REMARK    6  A    between atoms: O_16  and  C_17
REMARK                            x       y       z     vdW  Elec       q    Type
REMARK                         _______ _______ _______ _____ _____    ______ ____
ROOT
ATOM      1  C   UNL     1       4.051   4.191  18.240  0.00  0.00    +0.000 A 
ATOM      2  C   UNL     1       3.685   2.832  18.225  0.00  0.00    +0.000 A 
ATOM      3  C   UNL     1       2.361   2.461  18.010  0.00  0.00    +0.000 A 
ATOM      4  C   UNL     1       1.433   3.461  17.827  0.00  0.00    +0.000 A 
ATOM      5  N   UNL     1       1.742   4.774  17.812  0.00  0.00    +0.000 NA
ATOM      6  C   UNL     1       3.049   5.124  17.978  0.00  0.00    +0.000 A 
ENDROOT
BRANCH   1   8
ATOM      7  N   UNL     1       6.487   4.378  17.578  0.00  0.00    +0.000 N 
ATOM      8  C   UNL     1       5.489   4.496  18.526  0.00  0.00    +0.000 C 
ATOM      9  N   UNL     1       5.748   4.925  19.733  0.00  0.00    +0.000 NA
ATOM     10  H   UNL     1       7.393   4.604  17.984  0.00  0.00    +0.000 HD
BRANCH   7  15
ATOM     11  C   UNL     1       6.473   4.441  11.818  0.00  0.00    +0.000 C 
ATOM     12  C   UNL     1       6.822   4.074  13.262  0.00  0.00    +0.000 C 
ATOM     13  C   UNL     1       7.447   5.275  13.988  0.00  0.00    +0.000 C 
ATOM     14  C   UNL     1       7.691   4.983  15.472  0.00  0.00    +0.000 C 
ATOM     15  C   UNL     1       6.372   4.593  16.144  0.00  0.00    +0.000 C 
ATOM     16  C   UNL     1       5.791   3.340  15.481  0.00  0.00    +0.000 C 
ATOM     17  C   UNL     1       5.575   3.550  13.985  0.00  0.00    +0.000 C 
ENDBRANCH   7  15
BRANCH   9  18
ATOM     18  O   UNL     1       7.101   5.277  19.892  0.00  0.00    +0.000 OA
ATOM     19  H   UNL     1       7.545   4.585  19.365  0.00  0.00    +0.000 HD
ENDBRANCH   9  18
ENDBRANCH   1   8
BRANCH   6  20
ATOM     20  O   UNL     1       3.379   6.471  17.856  0.00  0.00    +0.000 OA
BRANCH  20  21
ATOM     21  C   UNL     1       2.538   7.404  18.431  0.00  0.00    +0.000 A 
ATOM     22  C   UNL     1       2.138   8.533  17.706  0.00  0.00    +0.000 A 
ATOM     23  C   UNL     1       1.344   9.508  18.310  0.00  0.00    +0.000 A 
ATOM     24  C   UNL     1       0.983   9.374  19.645  0.00  0.00    +0.000 A 
ATOM     25  F   UNL     1       0.228  10.316  20.222  0.00  0.00    +0.000 F 
ATOM     26  C   UNL     1       1.388   8.277  20.388  0.00  0.00    +0.000 A 
ATOM     27  C   UNL     1       2.159   7.286  19.777  0.00  0.00    +0.000 A 
ATOM     28 CL   UNL     1       2.576   5.930  20.743  0.00  0.00    +0.000 Cl
ENDBRANCH  20  21
ENDBRANCH   6  20
TORSDOF 5
ENDMDL
MODEL 3
REMARK VINA RESULT:      -7.4      7.411      9.674
REMARK  Name = 
REMARK  6 active torsions:
REMARK  status: ('A' for Active; 'I' for Inactive)
REMARK    1  A    between atoms: C_1  and  C_2
REMARK    2  A    between atoms: C_5  and  N_6
REMARK    3  A    between atoms: C_7  and  C_10
REMARK    4  A    between atoms: N_8  and  O_9
REMARK    5  A    between atoms: C_15  and  O_16
REMARK    6  A    between atoms: O_16  and  C_17
REMARK                            x       y       z     vdW  Elec       q    Type
REMARK                         _______ _______ _______ _____ _____    ______ ____
ROOT
ATOM      1  C   UNL     1       5.530   5.895  17.454  0.00  0.00    +0.000 A 
ATOM      2  C   UNL     1       5.928   5.548  18.759  0.00  0.00    +0.000 A 
ATOM      3  C   UNL     1       7.127   4.875  18.975  0.00  0.00    +0.000 A 
ATOM      4  C   UNL     1       7.893   4.555  17.876  0.00  0.00    +0.000 A 
ATOM      5  N   UNL     1       7.562   4.886  16.612  0.00  0.00    +0.000 NA
ATOM      6  C   UNL     1       6.408   5.585  16.417  0.00  0.00    +0.000 A 
ENDROOT
BRANCH   1   8
ATOM      7  N   UNL     1       3.009   5.975  17.667  0.00  0.00    +0.000 N 
ATOM      8  C   UNL     1       4.203   6.575  17.316  0.00  0.00    +0.000 C 
ATOM      9  N   UNL     1       4.240   7.804  16.874  0.00  0.00    +0.000 NA
ATOM     10  H   UNL     1       2.227   6.594  17.469  0.00  0.00    +0.000 HD
BRANCH   7  15
ATOM     11  C   UNL     1       1.253   2.343  21.779  0.00  0.00    +0.000 C 
ATOM     12  C   UNL     1       1.258   3.483  20.759  0.00  0.00    +0.000 C 
ATOM     13  C   UNL     1       2.299   4.546  21.142  0.00  0.00    +0.000 C 
ATOM     14  C   UNL     1       2.420   5.638  20.073  0.00  0.00    +0.000 C 
ATOM     15  C   UNL     1       2.787   5.005  18.729  0.00  0.00    +0.000 C 
ATOM     16  C   UNL     1       1.704   4.010  18.300  0.00  0.00    +0.000 C 
ATOM     17  C   UNL     1       1.497   2.924  19.351  0.00  0.00    +0.000 C 
ENDBRANCH   7  15
BRANCH   9  18
ATOM     18  O   UNL     1       2.966   8.402  16.864  0.00  0.00    +0.000 OA
ATOM     19  H   UNL     1       2.508   7.895  17.562  0.00  0.00    +0.000 HD
ENDBRANCH   9  18
ENDBRANCH   1   8
BRANCH   6  20
ATOM     20  O   UNL     1       6.123   6.016  15.124  0.00  0.00    +0.000 OA
BRANCH  20  21
ATOM     21  C   UNL     1       6.044   5.070  14.121  0.00  0.00    +0.000 A 
ATOM     22  C   UNL     1       4.944   4.206  14.051  0.00  0.00    +0.000 A 
ATOM     23  C   UNL     1       4.898   3.207  13.079  0.00  0.00    +0.000 A 
ATOM     24  C   UNL     1       5.965   3.048  12.204  0.00  0.00    +0.000 A 
ATOM     25  F   UNL     1       5.919   2.082  11.277  0.00  0.00    +0.000 F 
ATOM     26  C   UNL     1       7.073   3.876  12.269  0.00  0.00    +0.000 A 
ATOM     27  C   UNL     1       7.108   4.894  13.224  0.00  0.00    +0.000 A 
ATOM     28 CL   UNL     1       8.488   5.916  13.209  0.00  0.00    +0.000 Cl
ENDBRANCH  20  21
ENDBRANCH   6  20
TORSDOF 5
ENDMDL
MODEL 4
REMARK VINA RESULT:      -7.3      3.301      6.529
REMARK  Name = 
REMARK  6 active torsions:
REMARK  status: ('A' for Active; 'I' for Inactive)
REMARK    1  A    between atoms: C_1  and  C_2
REMARK    2  A    between atoms: C_5  and  N_6
REMARK    3  A    between atoms: C_7  and  C_10
REMARK    4  A    between atoms: N_8  and  O_9
REMARK    5  A    between atoms: C_15  and  O_16
REMARK    6  A    between atoms: O_16  and  C_17
REMARK                            x       y       z     vdW  Elec       q    Type
REMARK                         _______ _______ _______ _____ _____    ______ ____
ROOT
ATOM      1  C   UNL     1       0.651  10.113  20.455  0.00  0.00    +0.000 A 
ATOM      2  C   UNL     1      -0.296  10.851  21.190  0.00  0.00    +0.000 A 
ATOM      3  C   UNL     1      -0.631  10.474  22.487  0.00  0.00    +0.000 A 
ATOM      4  C   UNL     1      -0.019   9.359  23.012  0.00  0.00    +0.000 A 
ATOM      5  N   UNL     1       0.908   8.634  22.354  0.00  0.00    +0.000 NA
ATOM      6  C   UNL     1       1.262   9.040  21.101  0.00  0.00    +0.000 A 
ENDROOT
BRANCH   1   8
ATOM      7  N   UNL     1      -0.016  10.443  18.036  0.00  0.00    +0.000 N 
ATOM      8  C   UNL     1       0.912  10.566  19.052  0.00  0.00    +0.000 C 
ATOM      9  N   UNL     1       2.073  11.130  18.846  0.00  0.00    +0.000 NA
ATOM     10  H   UNL     1       0.369  10.784  17.158  0.00  0.00    +0.000 HD
BRANCH   7  15
ATOM     11  C   UNL     1      -5.727  11.113  17.688  0.00  0.00    +0.000 C 
ATOM     12  C   UNL     1      -4.230  11.274  17.413  0.00  0.00    +0.000 C 
ATOM     13  C   UNL     1      -3.516  11.858  18.642  0.00  0.00    +0.000 C 
ATOM     14  C   UNL     1      -1.997  11.912  18.448  0.00  0.00    +0.000 C 
ATOM     15  C   UNL     1      -1.465  10.508  18.151  0.00  0.00    +0.000 C 
ATOM     16  C   UNL     1      -2.109   9.958  16.874  0.00  0.00    +0.000 C 
ATOM     17  C   UNL     1      -3.631   9.929  16.984  0.00  0.00    +0.000 C 
ENDBRANCH   7  15
BRANCH   9  18
ATOM     18  O   UNL     1       2.202  11.611  17.530  0.00  0.00    +0.000 OA
ATOM     19  H   UNL     1       3.123  11.362  17.322  0.00  0.00    +0.000 HD
ENDBRANCH   9  18
ENDBRANCH   1   8
BRANCH   6  20
ATOM     20  O   UNL     1       2.294   8.354  20.466  0.00  0.00    +0.000 OA
BRANCH  20  21
ATOM     21  C   UNL     1       2.033   7.091  19.972  0.00  0.00    +0.000 A 
ATOM     22  C   UNL     1       1.529   6.093  20.816  0.00  0.00    +0.000 A 
ATOM     23  C   UNL     1       1.329   4.801  20.332  0.00  0.00    +0.000 A 
ATOM     24  C   UNL     1       1.668   4.497  19.019  0.00  0.00    +0.000 A 
ATOM     25  F   UNL     1       1.481   3.252  18.561  0.00  0.00    +0.000 F 
ATOM     26  C   UNL     1       2.190   5.462  18.173  0.00  0.00    +0.000 A 
ATOM     27  C   UNL     1       2.364   6.763  18.648  0.00  0.00    +0.000 A 
ATOM     28 CL   UNL     1       2.962   7.917  17.528  0.00  0.00    +0.000 Cl
ENDBRANCH  20  21
ENDBRANCH   6  20
TORSDOF 5
ENDMDL
MODEL 5
REMARK VINA RESULT:      -7.2      5.236      8.189
REMARK  Name = 
REMARK  6 active torsions:
REMARK  status: ('A' for Active; 'I' for Inactive)
REMARK    1  A    between atoms: C_1  and  C_2
REMARK    2  A    between atoms: C_5  and  N_6
REMARK    3  A    between atoms: C_7  and  C_10
REMARK    4  A    between atoms: N_8  and  O_9
REMARK    5  A    between atoms: C_15  and  O_16
REMARK    6  A    between atoms: O_16  and  C_17
REMARK                            x       y       z     vdW  Elec       q    Type
REMARK                         _______ _______ _______ _____ _____    ______ ____
ROOT
ATOM      1  C   UNL     1       4.017   4.045  18.382  0.00  0.00    +0.000 A 
ATOM      2  C   UNL     1       3.782   2.662  18.269  0.00  0.00    +0.000 A 
ATOM      3  C   UNL     1       2.490   2.179  18.081  0.00  0.00    +0.000 A 
ATOM      4  C   UNL     1       1.463   3.093  18.025  0.00  0.00    +0.000 A 
ATOM      5  N   UNL     1       1.643   4.427  18.107  0.00  0.00    +0.000 NA
ATOM      6  C   UNL     1       2.918   4.891  18.245  0.00  0.00    +0.000 A 
ENDROOT
BRANCH   1   8
ATOM      7  N   UNL     1       6.418   4.402  17.664  0.00  0.00    +0.000 N 
ATOM      8  C   UNL     1       5.432   4.468  18.630  0.00  0.00    +0.000 C 
ATOM      9  N   UNL     1       5.680   4.948  19.820  0.00  0.00    +0.000 NA
ATOM     10  H   UNL     1       7.311   4.707  18.044  0.00  0.00    +0.000 HD
BRANCH   7  15
ATOM     11  C   UNL     1       6.234   4.274  11.908  0.00  0.00    +0.000 C 
ATOM     12  C   UNL     1       6.629   3.958  13.352  0.00  0.00    +0.000 C 
ATOM     13  C   UNL     1       7.263   5.189  14.019  0.00  0.00    +0.000 C 
ATOM     14  C   UNL     1       7.553   4.948  15.504  0.00  0.00    +0.000 C 
ATOM     15  C   UNL     1       6.258   4.568  16.227  0.00  0.00    +0.000 C 
ATOM     16  C   UNL     1       5.671   3.288  15.623  0.00  0.00    +0.000 C 
ATOM     17  C   UNL     1       5.409   3.447  14.128  0.00  0.00    +0.000 C 
ENDBRANCH   7  15
BRANCH   9  18
ATOM     18  O   UNL     1       7.004   5.408  19.940  0.00  0.00    +0.000 OA
ATOM     19  H   UNL     1       7.131   5.862  19.085  0.00  0.00    +0.000 HD
ENDBRANCH   9  18
ENDBRANCH   1   8
BRANCH   6  20
ATOM     20  O   UNL     1       3.111   6.270  18.223  0.00  0.00    +0.000 OA
BRANCH  20  21
ATOM     21  C   UNL     1       2.433   7.040  19.148  0.00  0.00    +0.000 A 
ATOM     22  C   UNL     1       2.083   6.502  20.392  0.00  0.00    +0.000 A 
ATOM     23  C   UNL     1       1.340   7.258  21.299  0.00  0.00    +0.000 A 
ATOM     24  C   UNL     1       0.916   8.534  20.948  0.00  0.00    +0.000 A 
ATOM     25  F   UNL     1       0.197   9.252  21.818  0.00  0.00    +0.000 F 
ATOM     26  C   UNL     1       1.231   9.077  19.712  0.00  0.00    +0.000 A 
ATOM     27  C   UNL     1       1.998   8.332  18.815  0.00  0.00    +0.000 A 
ATOM     28 CL   UNL     1       2.396   9.091  17.329  0.00  0.00    +0.000 Cl
ENDBRANCH  20  21
ENDBRANCH   6  20
TORSDOF 5
ENDMDL
MODEL 6
REMARK VINA RESULT:      -7.2      4.028      7.169
REMARK  Name = 
REMARK  6 active torsions:
REMARK  status: ('A' for Active; 'I' for Inactive)
REMARK    1  A    between atoms: C_1  and  C_2
REMARK    2  A    between atoms: C_5  and  N_6
REMARK    3  A    between atoms: C_7  and  C_10
REMARK    4  A    between atoms: N_8  and  O_9
REMARK    5  A    between atoms: C_15  and  O_16
REMARK    6  A    between atoms: O_16  and  C_17
REMARK                            x       y       z     vdW  Elec       q    Type
REMARK                         _______ _______ _______ _____ _____    ______ ____
ROOT
ATOM      1  C   UNL     1       1.334   9.376  19.487  0.00  0.00    +0.000 A 
ATOM      2  C   UNL     1       0.682   9.692  20.694  0.00  0.00    +0.000 A 
ATOM      3  C   UNL     1       0.593   8.749  21.714  0.00  0.00    +0.000 A 
ATOM      4  C   UNL     1       1.147   7.508  21.494  0.00  0.00    +0.000 A 
ATOM      5  N   UNL     1       1.799   7.169  20.363  0.00  0.00    +0.000 NA
ATOM      6  C   UNL     1       1.920   8.116  19.389  0.00  0.00    +0.000 A 
ENDROOT
BRANCH   1   8
ATOM      7  N   UNL     1       0.232  10.741  17.662  0.00  0.00    +0.000 N 
ATOM      8  C   UNL     1       1.339  10.438  18.430  0.00  0.00    +0.000 C 
ATOM      9  N   UNL     1       2.457  11.101  18.300  0.00  0.00    +0.000 NA
ATOM     10  H   UNL     1       0.454  11.469  16.987  0.00  0.00    +0.000 HD
BRANCH   7  15
ATOM     11  C   UNL     1      -5.480  10.764  18.407  0.00  0.00    +0.000 C 
ATOM     12  C   UNL     1      -4.093  11.061  17.834  0.00  0.00    +0.000 C 
ATOM     13  C   UNL     1      -3.236  11.818  18.859  0.00  0.00    +0.000 C 
ATOM     14  C   UNL     1      -1.799  12.018  18.366  0.00  0.00    +0.000 C 
ATOM     15  C   UNL     1      -1.166  10.659  18.057  0.00  0.00    +0.000 C 
ATOM     16  C   UNL     1      -1.968   9.939  16.967  0.00  0.00    +0.000 C 
ATOM     17  C   UNL     1      -3.427   9.757  17.377  0.00  0.00    +0.000 C 
ENDBRANCH   7  15
BRANCH   9  18
ATOM     18  O   UNL     1       2.350  12.140  17.356  0.00  0.00    +0.000 OA
ATOM     19  H   UNL     1       3.031  11.882  16.705  0.00  0.00    +0.000 HD
ENDBRANCH   9  18
ENDBRANCH   1   8
BRANCH   6  20
ATOM     20  O   UNL     1       2.683   7.797  18.269  0.00  0.00    +0.000 OA
BRANCH  20  21
ATOM     21  C   UNL     1       2.849   6.464  17.948  0.00  0.00    +0.000 A 
ATOM     22  C   UNL     1       1.777   5.571  18.068  0.00  0.00    +0.000 A 
ATOM     23  C   UNL     1       1.963   4.214  17.808  0.00  0.00    +0.000 A 
ATOM     24  C   UNL     1       3.226   3.745  17.467  0.00  0.00    +0.000 A 
ATOM     25  F   UNL     1       3.401   2.439  17.226  0.00  0.00    +0.000 F 
ATOM     26  C   UNL     1       4.305   4.607  17.365  0.00  0.00    +0.000 A 
ATOM     27  C   UNL     1       4.114   5.970  17.597  0.00  0.00    +0.000 A 
ATOM     28 CL   UNL     1       5.484   6.984  17.397  0.00  0.00    +0.000 Cl
ENDBRANCH  20  21
ENDBRANCH   6  20
TORSDOF 5
ENDMDL
MODEL 7
REMARK VINA RESULT:      -7.2      3.503      6.249
REMARK  Name = 
REMARK  6 active torsions:
REMARK  status: ('A' for Active; 'I' for Inactive)
REMARK    1  A    between atoms: C_1  and  C_2
REMARK    2  A    between atoms: C_5  and  N_6
REMARK    3  A    between atoms: C_7  and  C_10
REMARK    4  A    between atoms: N_8  and  O_9
REMARK    5  A    between atoms: C_15  and  O_16
REMARK    6  A    between atoms: O_16  and  C_17
REMARK                            x       y       z     vdW  Elec       q    Type
REMARK                         _______ _______ _______ _____ _____    ______ ____
ROOT
ATOM      1  C   UNL     1       0.824  10.487  20.284  0.00  0.00    +0.000 A 
ATOM      2  C   UNL     1       1.118   9.112  20.357  0.00  0.00    +0.000 A 
ATOM      3  C   UNL     1       1.072   8.445  21.578  0.00  0.00    +0.000 A 
ATOM      4  C   UNL     1       0.746   9.175  22.698  0.00  0.00    +0.000 A 
ATOM      5  N   UNL     1       0.436  10.488  22.673  0.00  0.00    +0.000 NA
ATOM      6  C   UNL     1       0.439  11.120  21.465  0.00  0.00    +0.000 A 
ENDROOT
BRANCH   1   8
ATOM      7  N   UNL     1      -0.025  11.016  17.959  0.00  0.00    +0.000 N 
ATOM      8  C   UNL     1       0.945  11.129  18.936  0.00  0.00    +0.000 C 
ATOM      9  N   UNL     1       2.020  11.847  18.746  0.00  0.00    +0.000 NA
ATOM     10  H   UNL     1       0.264  11.500  17.112  0.00  0.00    +0.000 HD
BRANCH   7  15
ATOM     11  C   UNL     1      -5.785  11.063  17.988  0.00  0.00    +0.000 C 
ATOM     12  C   UNL     1      -4.335  11.435  17.672  0.00  0.00    +0.000 C 
ATOM     13  C   UNL     1      -3.611  11.909  18.941  0.00  0.00    +0.000 C 
ATOM     14  C   UNL     1      -2.122  12.167  18.687  0.00  0.00    +0.000 C 
ATOM     15  C   UNL     1      -1.462  10.894  18.151  0.00  0.00    +0.000 C 
ATOM     16  C   UNL     1      -2.124  10.470  16.835  0.00  0.00    +0.000 C 
ATOM     17  C   UNL     1      -3.623  10.249  17.011  0.00  0.00    +0.000 C 
ENDBRANCH   7  15
BRANCH   9  18
ATOM     18  O   UNL     1       2.012  12.490  17.494  0.00  0.00    +0.000 OA
ATOM     19  H   UNL     1       2.880  12.939  17.501  0.00  0.00    +0.000 HD
ENDBRANCH   9  18
ENDBRANCH   1   8
BRANCH   6  20
ATOM     20  O   UNL     1       0.017  12.446  21.428  0.00  0.00    +0.000 OA
BRANCH  20  21
ATOM     21  C   UNL     1      -0.975  12.841  22.304  0.00  0.00    +0.000 A 
ATOM     22  C   UNL     1      -2.082  12.015  22.535  0.00  0.00    +0.000 A 
ATOM     23  C   UNL     1      -3.115  12.444  23.368  0.00  0.00    +0.000 A 
ATOM     24  C   UNL     1      -3.060  13.711  23.937  0.00  0.00    +0.000 A 
ATOM     25  F   UNL     1      -4.059  14.121  24.729  0.00  0.00    +0.000 F 
ATOM     26  C   UNL     1      -1.987  14.554  23.702  0.00  0.00    +0.000 A 
ATOM     27  C   UNL     1      -0.938  14.115  22.892  0.00  0.00    +0.000 A 
ATOM     28 CL   UNL     1       0.383  15.191  22.693  0.00  0.00    +0.000 Cl
ENDBRANCH  20  21
ENDBRANCH   6  20
TORSDOF 5
ENDMDL
MODEL 8
REMARK VINA RESULT:      -7.2      7.179      9.443
REMARK  Name = 
REMARK  6 active torsions:
REMARK  status: ('A' for Active; 'I' for Inactive)
REMARK    1  A    between atoms: C_1  and  C_2
REMARK    2  A    between atoms: C_5  and  N_6
REMARK    3  A    between atoms: C_7  and  C_10
REMARK    4  A    between atoms: N_8  and  O_9
REMARK    5  A    between atoms: C_15  and  O_16
REMARK    6  A    between atoms: O_16  and  C_17
REMARK                            x       y       z     vdW  Elec       q    Type
REMARK                         _______ _______ _______ _____ _____    ______ ____
ROOT
ATOM      1  C   UNL     1       5.449   6.110  17.799  0.00  0.00    +0.000 A 
ATOM      2  C   UNL     1       5.813   5.828  19.130  0.00  0.00    +0.000 A 
ATOM      3  C   UNL     1       7.049   5.256  19.416  0.00  0.00    +0.000 A 
ATOM      4  C   UNL     1       7.885   4.968  18.361  0.00  0.00    +0.000 A 
ATOM      5  N   UNL     1       7.587   5.240  17.074  0.00  0.00    +0.000 NA
ATOM      6  C   UNL     1       6.393   5.842  16.810  0.00  0.00    +0.000 A 
ENDROOT
BRANCH   1   8
ATOM      7  N   UNL     1       2.921   5.979  17.850  0.00  0.00    +0.000 N 
ATOM      8  C   UNL     1       4.081   6.681  17.586  0.00  0.00    +0.000 C 
ATOM      9  N   UNL     1       4.044   7.918  17.165  0.00  0.00    +0.000 NA
ATOM     10  H   UNL     1       2.105   6.536  17.610  0.00  0.00    +0.000 HD
BRANCH   7  15
ATOM     11  C   UNL     1       1.222   2.212  21.863  0.00  0.00    +0.000 C 
ATOM     12  C   UNL     1       1.213   3.387  20.883  0.00  0.00    +0.000 C 
ATOM     13  C   UNL     1       2.264   4.433  21.285  0.00  0.00    +0.000 C 
ATOM     14  C   UNL     1       2.372   5.561  20.253  0.00  0.00    +0.000 C 
ATOM     15  C   UNL     1       2.714   4.974  18.881  0.00  0.00    +0.000 C 
ATOM     16  C   UNL     1       1.619   3.998  18.436  0.00  0.00    +0.000 C 
ATOM     17  C   UNL     1       1.426   2.876  19.453  0.00  0.00    +0.000 C 
ENDBRANCH   7  15
BRANCH   9  18
ATOM     18  O   UNL     1       2.728   8.410  17.080  0.00  0.00    +0.000 OA
ATOM     19  H   UNL     1       2.323   8.018  17.879  0.00  0.00    +0.000 HD
ENDBRANCH   9  18
ENDBRANCH   1   8
BRANCH   6  20
ATOM     20  O   UNL     1       6.134   6.218  15.494  0.00  0.00    +0.000 OA
BRANCH  20  21
ATOM     21  C   UNL     1       6.382   5.300  14.492  0.00  0.00    +0.000 A 
ATOM     22  C   UNL     1       7.393   5.537  13.553  0.00  0.00    +0.000 A 
ATOM     23  C   UNL     1       7.597   4.642  12.502  0.00  0.00    +0.000 A 
ATOM     24  C   UNL     1       6.769   3.535  12.370  0.00  0.00    +0.000 A 
ATOM     25  F   UNL     1       6.964   2.683  11.355  0.00  0.00    +0.000 F 
ATOM     26  C   UNL     1       5.748   3.293  13.274  0.00  0.00    +0.000 A 
ATOM     27  C   UNL     1       5.560   4.173  14.342  0.00  0.00    +0.000 A 
ATOM     28 CL   UNL     1       4.313   3.778  15.453  0.00  0.00    +0.000 Cl
ENDBRANCH  20  21
ENDBRANCH   6  20
TORSDOF 5
ENDMDL
MODEL 9
REMARK VINA RESULT:      -7.0      3.202      4.774
REMARK  Name = 
REMARK  6 active torsions:
REMARK  status: ('A' for Active; 'I' for Inactive)
REMARK    1  A    between atoms: C_1  and  C_2
REMARK    2  A    between atoms: C_5  and  N_6
REMARK    3  A    between atoms: C_7  and  C_10
REMARK    4  A    between atoms: N_8  and  O_9
REMARK    5  A    between atoms: C_15  and  O_16
REMARK    6  A    between atoms: O_16  and  C_17
REMARK                            x       y       z     vdW  Elec       q    Type
REMARK                         _______ _______ _______ _____ _____    ______ ____
ROOT
ATOM      1  C   UNL     1      -1.736  11.531  18.398  0.00  0.00    +0.000 A 
ATOM      2  C   UNL     1      -1.808  10.474  17.470  0.00  0.00    +0.000 A 
ATOM      3  C   UNL     1      -3.031   9.879  17.174  0.00  0.00    +0.000 A 
ATOM      4  C   UNL     1      -4.150  10.347  17.824  0.00  0.00    +0.000 A 
ATOM      5  N   UNL     1      -4.131  11.370  18.703  0.00  0.00    +0.000 NA
ATOM      6  C   UNL     1      -2.936  11.976  18.951  0.00  0.00    +0.000 A 
ENDROOT
BRANCH   1   8
ATOM      7  N   UNL     1       0.597  11.363  19.364  0.00  0.00    +0.000 N 
ATOM      8  C   UNL     1      -0.372  12.077  18.688  0.00  0.00    +0.000 C 
ATOM      9  N   UNL     1      -0.131  13.275  18.222  0.00  0.00    +0.000 NA
ATOM     10  H   UNL     1       1.438  11.924  19.481  0.00  0.00    +0.000 HD
BRANCH   7  15
ATOM     11  C   UNL     1       2.185   5.839  19.746  0.00  0.00    +0.000 C 
ATOM     12  C   UNL     1       2.246   7.368  19.760  0.00  0.00    +0.000 C 
ATOM     13  C   UNL     1       1.954   7.932  18.361  0.00  0.00    +0.000 C 
ATOM     14  C   UNL     1       1.879   9.462  18.366  0.00  0.00    +0.000 C 
ATOM     15  C   UNL     1       0.802   9.922  19.352  0.00  0.00    +0.000 C 
ATOM     16  C   UNL     1       1.139   9.438  20.766  0.00  0.00    +0.000 C 
ATOM     17  C   UNL     1       1.280   7.919  20.816  0.00  0.00    +0.000 C 
ENDBRANCH   7  15
BRANCH   9  18
ATOM     18  O   UNL     1       1.198  13.675  18.453  0.00  0.00    +0.000 OA
ATOM     19  H   UNL     1       1.631  12.818  18.631  0.00  0.00    +0.000 HD
ENDBRANCH   9  18
ENDBRANCH   1   8
BRANCH   6  20
ATOM     20  O   UNL     1      -2.937  13.097  19.777  0.00  0.00    +0.000 OA
BRANCH  20  21
ATOM     21  C   UNL     1      -3.221  12.922  21.117  0.00  0.00    +0.000 A 
ATOM     22  C   UNL     1      -2.295  12.293  21.958  0.00  0.00    +0.000 A 
ATOM     23  C   UNL     1      -2.611  12.057  23.295  0.00  0.00    +0.000 A 
ATOM     24  C   UNL     1      -3.863  12.414  23.782  0.00  0.00    +0.000 A 
ATOM     25  F   UNL     1      -4.164  12.178  25.064  0.00  0.00    +0.000 F 
ATOM     26  C   UNL     1      -4.803  13.017  22.961  0.00  0.00    +0.000 A 
ATOM     27  C   UNL     1      -4.478  13.279  21.629  0.00  0.00    +0.000 A 
ATOM     28 CL   UNL     1      -5.671  14.079  20.690  0.00  0.00    +0.000 Cl
ENDBRANCH  20  21
ENDBRANCH   6  20
TORSDOF 5
ENDMDL
