MODEL 1
REMARK VINA RESULT:      -8.4      0.000      0.000
REMARK  Name = 
REMARK  7 active torsions:
REMARK  status: ('A' for Active; 'I' for Inactive)
REMARK    1  A    between atoms: C_1  and  N_2
REMARK    2  A    between atoms: C_4  and  C_5
REMARK    3  A    between atoms: C_8  and  C_9
REMARK    4  A    between atoms: C_9  and  C_10
REMARK    5  A    between atoms: C_18  and  C_19
REMARK    6  A    between atoms: C_18  and  C_20
REMARK    7  A    between atoms: C_20  and  O_21
REMARK                            x       y       z     vdW  Elec       q    Type
REMARK                         _______ _______ _______ _____ _____    ______ ____
ROOT
ATOM      1  C   UNL     1       1.959   5.289  19.927  0.00  0.00    +0.000 C 
ATOM      2  C   UNL     1       2.383   4.449  21.117  0.00  0.00    +0.000 C 
ATOM      3  C   UNL     1       0.979   4.334  20.595  0.00  0.00    +0.000 C 
ENDROOT
BRANCH   1   4
ATOM      4  C   UNL     1       2.507   4.849  18.566  0.00  0.00    +0.000 A 
ATOM      5  N   UNL     1       1.840   4.046  17.763  0.00  0.00    +0.000 NA
ATOM      6  N   UNL     1       2.695   3.607  16.796  0.00  0.00    +0.000 NA
ATOM      7  C   UNL     1       3.892   4.093  17.049  0.00  0.00    +0.000 A 
ATOM      8  N   UNL     1       3.807   4.935  18.128  0.00  0.00    +0.000 N 
ATOM      9  C   UNL     1       4.858   5.690  18.766  0.00  0.00    +0.000 C 
ATOM     10  C   UNL     1       6.223   5.032  18.800  0.00  0.00    +0.000 C 
ATOM     11  S   UNL     1       7.233   5.305  17.313  0.00  0.00    +0.000 S 
ATOM     12  C   UNL     1       6.072   4.860  15.921  0.00  0.00    +0.000 C 
ATOM     13  C   UNL     1       5.354   6.126  15.423  0.00  0.00    +0.000 C 
ATOM     14  C   UNL     1       5.123   3.710  16.305  0.00  0.00    +0.000 C 
BRANCH  12  15
ATOM     15  C   UNL     1       6.996   4.367  14.773  0.00  0.00    +0.000 C 
BRANCH  15  16
ATOM     16  O   UNL     1       7.718   5.441  14.174  0.00  0.00    +0.000 OA
ATOM     17  H   UNL     1       7.990   6.033  14.901  0.00  0.00    +0.000 HD
ENDBRANCH  15  16
ENDBRANCH  12  15
ENDBRANCH   1   4
BRANCH   1  21
ATOM     18  C   UNL     1       0.964   9.529  20.307  0.00  0.00    +0.000 A 
ATOM     19  C   UNL     1       1.491   9.016  19.121  0.00  0.00    +0.000 A 
ATOM     20  C   UNL     1       1.872   7.671  19.040  0.00  0.00    +0.000 A 
ATOM     21  C   UNL     1       1.710   6.782  20.120  0.00  0.00    +0.000 A 
ATOM     22  C   UNL     1       1.226   7.336  21.318  0.00  0.00    +0.000 A 
ATOM     23  C   UNL     1       0.875   8.687  21.418  0.00  0.00    +0.000 A 
BRANCH  18  27
ATOM     24  C   UNL     1      -0.170  14.196  19.093  0.00  0.00    +0.000 C 
ATOM     25  N   UNL     1      -0.007  12.958  19.814  0.00  0.00    +0.000 N 
ATOM     26  C   UNL     1       0.508  11.789  19.329  0.00  0.00    +0.000 A 
ATOM     27  C   UNL     1       0.471  10.891  20.375  0.00  0.00    +0.000 A 
ATOM     28  C   UNL     1      -0.070  11.639  21.449  0.00  0.00    +0.000 A 
ATOM     29  N   UNL     1      -0.369  12.892  21.106  0.00  0.00    +0.000 NA
ENDBRANCH  18  27
ENDBRANCH   1  21
TORSDOF 5
ENDMDL
MODEL 2
REMARK VINA RESULT:      -8.0      3.955      8.748
REMARK  Name = 
REMARK  7 active torsions:
REMARK  status: ('A' for Active; 'I' for Inactive)
REMARK    1  A    between atoms: C_1  and  N_2
REMARK    2  A    between atoms: C_4  and  C_5
REMARK    3  A    between atoms: C_8  and  C_9
REMARK    4  A    between atoms: C_9  and  C_10
REMARK    5  A    between atoms: C_18  and  C_19
REMARK    6  A    between atoms: C_18  and  C_20
REMARK    7  A    between atoms: C_20  and  O_21
REMARK                            x       y       z     vdW  Elec       q    Type
REMARK                         _______ _______ _______ _____ _____    ______ ____
ROOT
ATOM      1  C   UNL     1       0.410   9.267  20.700  0.00  0.00    +0.000 C 
ATOM      2  C   UNL     1      -0.435   8.538  21.727  0.00  0.00    +0.000 C 
ATOM      3  C   UNL     1       0.677   9.436  22.188  0.00  0.00    +0.000 C 
ENDROOT
BRANCH   1   4
ATOM      4  C   UNL     1      -0.262  10.451  19.997  0.00  0.00    +0.000 A 
ATOM      5  N   UNL     1      -1.254  10.294  19.144  0.00  0.00    +0.000 NA
ATOM      6  N   UNL     1      -1.428  11.470  18.476  0.00  0.00    +0.000 NA
ATOM      7  C   UNL     1      -0.503  12.317  18.878  0.00  0.00    +0.000 A 
ATOM      8  N   UNL     1       0.221  11.732  19.886  0.00  0.00    +0.000 N 
ATOM      9  C   UNL     1       1.332  12.277  20.628  0.00  0.00    +0.000 C 
ATOM     10  C   UNL     1       2.267  13.186  19.855  0.00  0.00    +0.000 C 
ATOM     11  S   UNL     1       1.746  14.927  19.788  0.00  0.00    +0.000 S 
ATOM     12  C   UNL     1      -0.035  14.818  19.240  0.00  0.00    +0.000 C 
ATOM     13  C   UNL     1      -0.954  14.799  20.474  0.00  0.00    +0.000 C 
ATOM     14  C   UNL     1      -0.270  13.652  18.264  0.00  0.00    +0.000 C 
BRANCH  12  15
ATOM     15  C   UNL     1      -0.301  16.150  18.483  0.00  0.00    +0.000 C 
BRANCH  15  16
ATOM     16  O   UNL     1      -1.518  16.765  18.901  0.00  0.00    +0.000 OA
ATOM     17  H   UNL     1      -2.212  16.081  18.838  0.00  0.00    +0.000 HD
ENDBRANCH  15  16
ENDBRANCH  12  15
ENDBRANCH   1   4
BRANCH   1  21
ATOM     18  C   UNL     1       3.131   6.812  18.316  0.00  0.00    +0.000 A 
ATOM     19  C   UNL     1       2.748   6.423  19.600  0.00  0.00    +0.000 A 
ATOM     20  C   UNL     1       1.934   7.256  20.378  0.00  0.00    +0.000 A 
ATOM     21  C   UNL     1       1.445   8.485  19.895  0.00  0.00    +0.000 A 
ATOM     22  C   UNL     1       1.888   8.876  18.620  0.00  0.00    +0.000 A 
ATOM     23  C   UNL     1       2.730   8.066  17.850  0.00  0.00    +0.000 A 
BRANCH  18  27
ATOM     24  C   UNL     1       6.286   5.105  14.900  0.00  0.00    +0.000 C 
ATOM     25  N   UNL     1       5.284   5.191  15.933  0.00  0.00    +0.000 N 
ATOM     26  C   UNL     1       4.849   6.324  16.561  0.00  0.00    +0.000 A 
ATOM     27  C   UNL     1       3.888   5.917  17.462  0.00  0.00    +0.000 A 
ATOM     28  C   UNL     1       3.814   4.515  17.275  0.00  0.00    +0.000 A 
ATOM     29  N   UNL     1       4.669   4.072  16.353  0.00  0.00    +0.000 NA
ENDBRANCH  18  27
ENDBRANCH   1  21
TORSDOF 5
ENDMDL
MODEL 3
REMARK VINA RESULT:      -8.0      0.704      1.355
REMARK  Name = 
REMARK  7 active torsions:
REMARK  status: ('A' for Active; 'I' for Inactive)
REMARK    1  A    between atoms: C_1  and  N_2
REMARK    2  A    between atoms: C_4  and  C_5
REMARK    3  A    between atoms: C_8  and  C_9
REMARK    4  A    between atoms: C_9  and  C_10
REMARK    5  A    between atoms: C_18  and  C_19
REMARK    6  A    between atoms: C_18  and  C_20
REMARK    7  A    between atoms: C_20  and  O_21
REMARK                            x       y       z     vdW  Elec       q    Type
REMARK                         _______ _______ _______ _____ _____    ______ ____
ROOT
ATOM      1  C   UNL     1       1.895   5.325  19.978  0.00  0.00    +0.000 C 
ATOM      2  C   UNL     1       2.461   4.594  21.181  0.00  0.00    +0.000 C 
ATOM      3  C   UNL     1       1.063   4.291  20.722  0.00  0.00    +0.000 C 
ENDROOT
BRANCH   1   4
ATOM      4  C   UNL     1       2.443   4.894  18.613  0.00  0.00    +0.000 A 
ATOM      5  N   UNL     1       1.777   4.092  17.808  0.00  0.00    +0.000 NA
ATOM      6  N   UNL     1       2.633   3.662  16.837  0.00  0.00    +0.000 NA
ATOM      7  C   UNL     1       3.828   4.152  17.090  0.00  0.00    +0.000 A 
ATOM      8  N   UNL     1       3.741   4.988  18.174  0.00  0.00    +0.000 N 
ATOM      9  C   UNL     1       4.790   5.746  18.813  0.00  0.00    +0.000 C 
ATOM     10  C   UNL     1       6.158   5.093  18.841  0.00  0.00    +0.000 C 
ATOM     11  S   UNL     1       7.164   5.378  17.353  0.00  0.00    +0.000 S 
ATOM     12  C   UNL     1       6.002   4.934  15.961  0.00  0.00    +0.000 C 
ATOM     13  C   UNL     1       5.277   6.200  15.471  0.00  0.00    +0.000 C 
ATOM     14  C   UNL     1       5.059   3.778  16.341  0.00  0.00    +0.000 C 
BRANCH  12  15
ATOM     15  C   UNL     1       6.926   4.452  14.809  0.00  0.00    +0.000 C 
BRANCH  15  16
ATOM     16  O   UNL     1       7.872   5.450  14.433  0.00  0.00    +0.000 OA
ATOM     17  H   UNL     1       8.735   5.163  14.788  0.00  0.00    +0.000 HD
ENDBRANCH  15  16
ENDBRANCH  12  15
ENDBRANCH   1   4
BRANCH   1  21
ATOM     18  C   UNL     1       0.955   9.550  20.591  0.00  0.00    +0.000 A 
ATOM     19  C   UNL     1       0.658   8.597  21.566  0.00  0.00    +0.000 A 
ATOM     20  C   UNL     1       0.899   7.239  21.325  0.00  0.00    +0.000 A 
ATOM     21  C   UNL     1       1.475   6.785  20.122  0.00  0.00    +0.000 A 
ATOM     22  C   UNL     1       1.716   7.759  19.138  0.00  0.00    +0.000 A 
ATOM     23  C   UNL     1       1.447   9.115  19.358  0.00  0.00    +0.000 A 
BRANCH  18  27
ATOM     24  C   UNL     1      -0.656  13.845  22.462  0.00  0.00    +0.000 C 
ATOM     25  N   UNL     1       0.064  12.854  21.701  0.00  0.00    +0.000 N 
ATOM     26  C   UNL     1      -0.079  11.497  21.779  0.00  0.00    +0.000 A 
ATOM     27  C   UNL     1       0.807  10.967  20.865  0.00  0.00    +0.000 A 
ATOM     28  C   UNL     1       1.417  12.103  20.279  0.00  0.00    +0.000 A 
ATOM     29  N   UNL     1       0.972  13.250  20.793  0.00  0.00    +0.000 NA
ENDBRANCH  18  27
ENDBRANCH   1  21
TORSDOF 5
ENDMDL
MODEL 4
REMARK VINA RESULT:      -8.0      4.123      8.742
REMARK  Name = 
REMARK  7 active torsions:
REMARK  status: ('A' for Active; 'I' for Inactive)
REMARK    1  A    between atoms: C_1  and  N_2
REMARK    2  A    between atoms: C_4  and  C_5
REMARK    3  A    between atoms: C_8  and  C_9
REMARK    4  A    between atoms: C_9  and  C_10
REMARK    5  A    between atoms: C_18  and  C_19
REMARK    6  A    between atoms: C_18  and  C_20
REMARK    7  A    between atoms: C_20  and  O_21
REMARK                            x       y       z     vdW  Elec       q    Type
REMARK                         _______ _______ _______ _____ _____    ______ ____
ROOT
ATOM      1  C   UNL     1       0.452   9.266  20.626  0.00  0.00    +0.000 C 
ATOM      2  C   UNL     1      -0.302   8.558  21.736  0.00  0.00    +0.000 C 
ATOM      3  C   UNL     1       0.871   9.432  22.080  0.00  0.00    +0.000 C 
ENDROOT
BRANCH   1   4
ATOM      4  C   UNL     1      -0.261  10.464  19.989  0.00  0.00    +0.000 A 
ATOM      5  N   UNL     1      -1.314  10.324  19.211  0.00  0.00    +0.000 NA
ATOM      6  N   UNL     1      -1.527  11.510  18.571  0.00  0.00    +0.000 NA
ATOM      7  C   UNL     1      -0.569  12.345  18.913  0.00  0.00    +0.000 A 
ATOM      8  N   UNL     1       0.223  11.743  19.858  0.00  0.00    +0.000 N 
ATOM      9  C   UNL     1       1.391  12.270  20.522  0.00  0.00    +0.000 C 
ATOM     10  C   UNL     1       2.273  13.182  19.693  0.00  0.00    +0.000 C 
ATOM     11  S   UNL     1       1.763  14.927  19.685  0.00  0.00    +0.000 S 
ATOM     12  C   UNL     1      -0.055  14.838  19.269  0.00  0.00    +0.000 C 
ATOM     13  C   UNL     1      -0.879  14.810  20.568  0.00  0.00    +0.000 C 
ATOM     14  C   UNL     1      -0.371  13.686  18.299  0.00  0.00    +0.000 C 
BRANCH  12  15
ATOM     15  C   UNL     1      -0.365  16.181  18.550  0.00  0.00    +0.000 C 
BRANCH  15  16
ATOM     16  O   UNL     1      -1.584  16.762  19.011  0.00  0.00    +0.000 OA
ATOM     17  H   UNL     1      -2.242  16.042  19.036  0.00  0.00    +0.000 HD
ENDBRANCH  15  16
ENDBRANCH  12  15
ENDBRANCH   1   4
BRANCH   1  21
ATOM     18  C   UNL     1       3.363   7.162  18.135  0.00  0.00    +0.000 A 
ATOM     19  C   UNL     1       2.801   8.370  17.721  0.00  0.00    +0.000 A 
ATOM     20  C   UNL     1       1.816   8.994  18.496  0.00  0.00    +0.000 A 
ATOM     21  C   UNL     1       1.383   8.459  19.725  0.00  0.00    +0.000 A 
ATOM     22  C   UNL     1       1.927   7.216  20.092  0.00  0.00    +0.000 A 
ATOM     23  C   UNL     1       2.886   6.568  19.306  0.00  0.00    +0.000 A 
BRANCH  18  27
ATOM     24  C   UNL     1       7.393   4.509  17.009  0.00  0.00    +0.000 C 
ATOM     25  N   UNL     1       6.249   5.383  16.929  0.00  0.00    +0.000 N 
ATOM     26  C   UNL     1       5.373   5.681  17.935  0.00  0.00    +0.000 A 
ATOM     27  C   UNL     1       4.454   6.556  17.395  0.00  0.00    +0.000 A 
ATOM     28  C   UNL     1       4.889   6.728  16.058  0.00  0.00    +0.000 A 
ATOM     29  N   UNL     1       5.974   6.008  15.772  0.00  0.00    +0.000 NA
ENDBRANCH  18  27
ENDBRANCH   1  21
TORSDOF 5
ENDMDL
MODEL 5
REMARK VINA RESULT:      -7.4      5.143      7.157
REMARK  Name = 
REMARK  7 active torsions:
REMARK  status: ('A' for Active; 'I' for Inactive)
REMARK    1  A    between atoms: C_1  and  N_2
REMARK    2  A    between atoms: C_4  and  C_5
REMARK    3  A    between atoms: C_8  and  C_9
REMARK    4  A    between atoms: C_9  and  C_10
REMARK    5  A    between atoms: C_18  and  C_19
REMARK    6  A    between atoms: C_18  and  C_20
REMARK    7  A    between atoms: C_20  and  O_21
REMARK                            x       y       z     vdW  Elec       q    Type
REMARK                         _______ _______ _______ _____ _____    ______ ____
ROOT
ATOM      1  C   UNL     1       6.344   6.002  17.273  0.00  0.00    +0.000 C 
ATOM      2  C   UNL     1       5.519   6.069  16.002  0.00  0.00    +0.000 C 
ATOM      3  C   UNL     1       6.741   5.195  16.046  0.00  0.00    +0.000 C 
ENDROOT
BRANCH   1   4
ATOM      4  C   UNL     1       5.728   5.210  18.431  0.00  0.00    +0.000 A 
ATOM      5  N   UNL     1       6.463   4.631  19.359  0.00  0.00    +0.000 NA
ATOM      6  N   UNL     1       5.665   3.773  20.056  0.00  0.00    +0.000 NA
ATOM      7  C   UNL     1       4.467   3.785  19.512  0.00  0.00    +0.000 A 
ATOM      8  N   UNL     1       4.445   4.727  18.516  0.00  0.00    +0.000 N 
ATOM      9  C   UNL     1       3.352   5.093  17.647  0.00  0.00    +0.000 C 
ATOM     10  C   UNL     1       2.422   3.968  17.238  0.00  0.00    +0.000 C 
ATOM     11  S   UNL     1       1.079   3.630  18.416  0.00  0.00    +0.000 S 
ATOM     12  C   UNL     1       1.970   3.492  20.051  0.00  0.00    +0.000 C 
ATOM     13  C   UNL     1       1.974   4.861  20.754  0.00  0.00    +0.000 C 
ATOM     14  C   UNL     1       3.366   2.861  19.898  0.00  0.00    +0.000 C 
BRANCH  12  15
ATOM     15  C   UNL     1       1.092   2.534  20.904  0.00  0.00    +0.000 C 
BRANCH  15  16
ATOM     16  O   UNL     1       1.531   2.475  22.260  0.00  0.00    +0.000 OA
ATOM     17  H   UNL     1       1.582   1.529  22.495  0.00  0.00    +0.000 HD
ENDBRANCH  15  16
ENDBRANCH  12  15
ENDBRANCH   1   4
BRANCH   1  21
ATOM     18  C   UNL     1       8.649   9.507  18.507  0.00  0.00    +0.000 A 
ATOM     19  C   UNL     1       7.709   9.588  17.479  0.00  0.00    +0.000 A 
ATOM     20  C   UNL     1       7.032   8.441  17.047  0.00  0.00    +0.000 A 
ATOM     21  C   UNL     1       7.238   7.182  17.644  0.00  0.00    +0.000 A 
ATOM     22  C   UNL     1       8.227   7.119  18.641  0.00  0.00    +0.000 A 
ATOM     23  C   UNL     1       8.933   8.254  19.055  0.00  0.00    +0.000 A 
BRANCH  18  27
ATOM     24  C   UNL     1      11.025  13.844  18.794  0.00  0.00    +0.000 C 
ATOM     25  N   UNL     1      10.348  12.616  19.130  0.00  0.00    +0.000 N 
ATOM     26  C   UNL     1       9.816  11.708  18.258  0.00  0.00    +0.000 A 
ATOM     27  C   UNL     1       9.282  10.700  19.033  0.00  0.00    +0.000 A 
ATOM     28  C   UNL     1       9.570  11.101  20.361  0.00  0.00    +0.000 A 
ATOM     29  N   UNL     1      10.209  12.269  20.420  0.00  0.00    +0.000 NA
ENDBRANCH  18  27
ENDBRANCH   1  21
TORSDOF 5
ENDMDL
MODEL 6
REMARK VINA RESULT:      -7.4      4.066      9.043
REMARK  Name = 
REMARK  7 active torsions:
REMARK  status: ('A' for Active; 'I' for Inactive)
REMARK    1  A    between atoms: C_1  and  N_2
REMARK    2  A    between atoms: C_4  and  C_5
REMARK    3  A    between atoms: C_8  and  C_9
REMARK    4  A    between atoms: C_9  and  C_10
REMARK    5  A    between atoms: C_18  and  C_19
REMARK    6  A    between atoms: C_18  and  C_20
REMARK    7  A    between atoms: C_20  and  O_21
REMARK                            x       y       z     vdW  Elec       q    Type
REMARK                         _______ _______ _______ _____ _____    ______ ____
ROOT
ATOM      1  C   UNL     1       0.255  10.971  19.570  0.00  0.00    +0.000 C 
ATOM      2  C   UNL     1      -0.636  11.423  18.428  0.00  0.00    +0.000 C 
ATOM      3  C   UNL     1      -1.251  10.758  19.627  0.00  0.00    +0.000 C 
ENDROOT
BRANCH   1   4
ATOM      4  C   UNL     1       0.813  12.082  20.466  0.00  0.00    +0.000 A 
ATOM      5  N   UNL     1       0.298  12.362  21.645  0.00  0.00    +0.000 NA
ATOM      6  N   UNL     1       0.800  13.562  22.052  0.00  0.00    +0.000 NA
ATOM      7  C   UNL     1       1.568  14.038  21.094  0.00  0.00    +0.000 A 
ATOM      8  N   UNL     1       1.653  13.103  20.094  0.00  0.00    +0.000 N 
ATOM      9  C   UNL     1       2.379  13.181  18.849  0.00  0.00    +0.000 C 
ATOM     10  C   UNL     1       2.454  14.553  18.207  0.00  0.00    +0.000 C 
ATOM     11  S   UNL     1       3.815  15.596  18.809  0.00  0.00    +0.000 S 
ATOM     12  C   UNL     1       3.641  15.496  20.665  0.00  0.00    +0.000 C 
ATOM     13  C   UNL     1       4.534  14.366  21.206  0.00  0.00    +0.000 C 
ATOM     14  C   UNL     1       2.169  15.399  21.104  0.00  0.00    +0.000 C 
BRANCH  12  15
ATOM     15  C   UNL     1       4.220  16.839  21.193  0.00  0.00    +0.000 C 
BRANCH  15  16
ATOM     16  O   UNL     1       4.334  17.813  20.156  0.00  0.00    +0.000 OA
ATOM     17  H   UNL     1       5.244  17.745  19.811  0.00  0.00    +0.000 HD
ENDBRANCH  15  16
ENDBRANCH  12  15
ENDBRANCH   1   4
BRANCH   1  21
ATOM     18  C   UNL     1       2.463   7.232  19.054  0.00  0.00    +0.000 A 
ATOM     19  C   UNL     1       1.942   7.596  20.297  0.00  0.00    +0.000 A 
ATOM     20  C   UNL     1       1.301   8.830  20.462  0.00  0.00    +0.000 A 
ATOM     21  C   UNL     1       1.124   9.728  19.391  0.00  0.00    +0.000 A 
ATOM     22  C   UNL     1       1.702   9.361  18.164  0.00  0.00    +0.000 A 
ATOM     23  C   UNL     1       2.375   8.144  18.000  0.00  0.00    +0.000 A 
BRANCH  18  27
ATOM     24  C   UNL     1       3.934   2.560  19.790  0.00  0.00    +0.000 C 
ATOM     25  N   UNL     1       3.690   3.854  19.202  0.00  0.00    +0.000 N 
ATOM     26  C   UNL     1       3.009   4.895  19.768  0.00  0.00    +0.000 A 
ATOM     27  C   UNL     1       3.037   5.918  18.843  0.00  0.00    +0.000 A 
ATOM     28  C   UNL     1       3.782   5.383  17.763  0.00  0.00    +0.000 A 
ATOM     29  N   UNL     1       4.171   4.126  17.978  0.00  0.00    +0.000 NA
ENDBRANCH  18  27
ENDBRANCH   1  21
TORSDOF 5
ENDMDL
MODEL 7
REMARK VINA RESULT:      -7.3      4.942      7.145
REMARK  Name = 
REMARK  7 active torsions:
REMARK  status: ('A' for Active; 'I' for Inactive)
REMARK    1  A    between atoms: C_1  and  N_2
REMARK    2  A    between atoms: C_4  and  C_5
REMARK    3  A    between atoms: C_8  and  C_9
REMARK    4  A    between atoms: C_9  and  C_10
REMARK    5  A    between atoms: C_18  and  C_19
REMARK    6  A    between atoms: C_18  and  C_20
REMARK    7  A    between atoms: C_20  and  O_21
REMARK                            x       y       z     vdW  Elec       q    Type
REMARK                         _______ _______ _______ _____ _____    ______ ____
ROOT
ATOM      1  C   UNL     1       5.985   6.235  16.829  0.00  0.00    +0.000 C 
ATOM      2  C   UNL     1       5.960   5.980  15.333  0.00  0.00    +0.000 C 
ATOM      3  C   UNL     1       6.547   4.944  16.250  0.00  0.00    +0.000 C 
ENDROOT
BRANCH   1   4
ATOM      4  C   UNL     1       4.639   6.120  17.551  0.00  0.00    +0.000 A 
ATOM      5  N   UNL     1       3.851   7.159  17.743  0.00  0.00    +0.000 NA
ATOM      6  N   UNL     1       2.901   6.806  18.656  0.00  0.00    +0.000 NA
ATOM      7  C   UNL     1       3.150   5.580  19.062  0.00  0.00    +0.000 A 
ATOM      8  N   UNL     1       4.208   5.084  18.344  0.00  0.00    +0.000 N 
ATOM      9  C   UNL     1       4.834   3.787  18.441  0.00  0.00    +0.000 C 
ATOM     10  C   UNL     1       4.894   3.181  19.830  0.00  0.00    +0.000 C 
ATOM     11  S   UNL     1       3.408   2.254  20.316  0.00  0.00    +0.000 S 
ATOM     12  C   UNL     1       2.019   3.439  19.928  0.00  0.00    +0.000 C 
ATOM     13  C   UNL     1       1.486   3.163  18.511  0.00  0.00    +0.000 C 
ATOM     14  C   UNL     1       2.424   4.904  20.172  0.00  0.00    +0.000 C 
BRANCH  12  15
ATOM     15  C   UNL     1       0.890   3.072  20.931  0.00  0.00    +0.000 C 
BRANCH  15  16
ATOM     16  O   UNL     1       1.412   2.559  22.155  0.00  0.00    +0.000 OA
ATOM     17  H   UNL     1       2.291   2.187  21.949  0.00  0.00    +0.000 HD
ENDBRANCH  15  16
ENDBRANCH  12  15
ENDBRANCH   1   4
BRANCH   1  21
ATOM     18  C   UNL     1       8.611   9.230  18.630  0.00  0.00    +0.000 A 
ATOM     19  C   UNL     1       7.767   9.558  17.568  0.00  0.00    +0.000 A 
ATOM     20  C   UNL     1       6.986   8.570  16.955  0.00  0.00    +0.000 A 
ATOM     21  C   UNL     1       6.990   7.233  17.398  0.00  0.00    +0.000 A 
ATOM     22  C   UNL     1       7.887   6.921  18.434  0.00  0.00    +0.000 A 
ATOM     23  C   UNL     1       8.697   7.895  19.029  0.00  0.00    +0.000 A 
BRANCH  18  27
ATOM     24  C   UNL     1      11.959  12.706  19.749  0.00  0.00    +0.000 C 
ATOM     25  N   UNL     1      10.852  11.784  19.813  0.00  0.00    +0.000 N 
ATOM     26  C   UNL     1      10.424  10.948  18.820  0.00  0.00    +0.000 A 
ATOM     27  C   UNL     1       9.348  10.258  19.339  0.00  0.00    +0.000 A 
ATOM     28  C   UNL     1       9.232  10.750  20.663  0.00  0.00    +0.000 A 
ATOM     29  N   UNL     1      10.140  11.684  20.947  0.00  0.00    +0.000 NA
ENDBRANCH  18  27
ENDBRANCH   1  21
TORSDOF 5
ENDMDL
MODEL 8
REMARK VINA RESULT:      -7.2      4.844      9.923
REMARK  Name = 
REMARK  7 active torsions:
REMARK  status: ('A' for Active; 'I' for Inactive)
REMARK    1  A    between atoms: C_1  and  N_2
REMARK    2  A    between atoms: C_4  and  C_5
REMARK    3  A    between atoms: C_8  and  C_9
REMARK    4  A    between atoms: C_9  and  C_10
REMARK    5  A    between atoms: C_18  and  C_19
REMARK    6  A    between atoms: C_18  and  C_20
REMARK    7  A    between atoms: C_20  and  O_21
REMARK                            x       y       z     vdW  Elec       q    Type
REMARK                         _______ _______ _______ _____ _____    ______ ____
ROOT
ATOM      1  C   UNL     1       0.783  10.536  19.798  0.00  0.00    +0.000 C 
ATOM      2  C   UNL     1       1.432  11.676  19.036  0.00  0.00    +0.000 C 
ATOM      3  C   UNL     1       0.082  11.175  18.608  0.00  0.00    +0.000 C 
ENDROOT
BRANCH   1   4
ATOM      4  C   UNL     1       0.222  10.886  21.180  0.00  0.00    +0.000 A 
ATOM      5  N   UNL     1       0.543  10.210  22.264  0.00  0.00    +0.000 NA
ATOM      6  N   UNL     1      -0.329  10.557  23.253  0.00  0.00    +0.000 NA
ATOM      7  C   UNL     1      -1.213  11.393  22.753  0.00  0.00    +0.000 A 
ATOM      8  N   UNL     1      -0.867  11.677  21.456  0.00  0.00    +0.000 N 
ATOM      9  C   UNL     1      -1.538  12.540  20.513  0.00  0.00    +0.000 C 
ATOM     10  C   UNL     1      -3.051  12.577  20.607  0.00  0.00    +0.000 C 
ATOM     11  S   UNL     1      -3.705  13.764  21.819  0.00  0.00    +0.000 S 
ATOM     12  C   UNL     1      -2.734  13.374  23.364  0.00  0.00    +0.000 C 
ATOM     13  C   UNL     1      -1.496  14.286  23.439  0.00  0.00    +0.000 C 
ATOM     14  C   UNL     1      -2.417  11.873  23.485  0.00  0.00    +0.000 C 
BRANCH  12  15
ATOM     15  C   UNL     1      -3.674  13.770  24.537  0.00  0.00    +0.000 C 
BRANCH  15  16
ATOM     16  O   UNL     1      -4.343  12.638  25.088  0.00  0.00    +0.000 OA
ATOM     17  H   UNL     1      -5.282  12.719  24.835  0.00  0.00    +0.000 HD
ENDBRANCH  15  16
ENDBRANCH  12  15
ENDBRANCH   1   4
BRANCH   1  21
ATOM     18  C   UNL     1       2.608   6.595  19.289  0.00  0.00    +0.000 A 
ATOM     19  C   UNL     1       2.590   7.521  18.245  0.00  0.00    +0.000 A 
ATOM     20  C   UNL     1       1.938   8.750  18.401  0.00  0.00    +0.000 A 
ATOM     21  C   UNL     1       1.313   9.117  19.609  0.00  0.00    +0.000 A 
ATOM     22  C   UNL     1       1.301   8.146  20.626  0.00  0.00    +0.000 A 
ATOM     23  C   UNL     1       1.920   6.901  20.466  0.00  0.00    +0.000 A 
BRANCH  18  27
ATOM     24  C   UNL     1       3.763   1.806  18.775  0.00  0.00    +0.000 C 
ATOM     25  N   UNL     1       3.845   3.233  18.962  0.00  0.00    +0.000 N 
ATOM     26  C   UNL     1       2.806   4.122  18.954  0.00  0.00    +0.000 A 
ATOM     27  C   UNL     1       3.364   5.363  19.179  0.00  0.00    +0.000 A 
ATOM     28  C   UNL     1       4.747   5.096  19.326  0.00  0.00    +0.000 A 
ATOM     29  N   UNL     1       5.041   3.803  19.185  0.00  0.00    +0.000 NA
ENDBRANCH  18  27
ENDBRANCH   1  21
TORSDOF 5
ENDMDL
MODEL 9
REMARK VINA RESULT:      -7.2      4.126      8.991
REMARK  Name = 
REMARK  7 active torsions:
REMARK  status: ('A' for Active; 'I' for Inactive)
REMARK    1  A    between atoms: C_1  and  N_2
REMARK    2  A    between atoms: C_4  and  C_5
REMARK    3  A    between atoms: C_8  and  C_9
REMARK    4  A    between atoms: C_9  and  C_10
REMARK    5  A    between atoms: C_18  and  C_19
REMARK    6  A    between atoms: C_18  and  C_20
REMARK    7  A    between atoms: C_20  and  O_21
REMARK                            x       y       z     vdW  Elec       q    Type
REMARK                         _______ _______ _______ _____ _____    ______ ____
ROOT
ATOM      1  C   UNL     1       0.016  11.397  19.532  0.00  0.00    +0.000 C 
ATOM      2  C   UNL     1      -0.810  11.976  18.398  0.00  0.00    +0.000 C 
ATOM      3  C   UNL     1      -1.505  11.390  19.595  0.00  0.00    +0.000 C 
ENDROOT
BRANCH   1   4
ATOM      4  C   UNL     1       0.723  12.414  20.433  0.00  0.00    +0.000 A 
ATOM      5  N   UNL     1       0.319  12.668  21.661  0.00  0.00    +0.000 NA
ATOM      6  N   UNL     1       0.942  13.805  22.085  0.00  0.00    +0.000 NA
ATOM      7  C   UNL     1       1.672  14.273  21.094  0.00  0.00    +0.000 A 
ATOM      8  N   UNL     1       1.610  13.389  20.047  0.00  0.00    +0.000 N 
ATOM      9  C   UNL     1       2.246  13.480  18.754  0.00  0.00    +0.000 C 
ATOM     10  C   UNL     1       2.380  14.875  18.176  0.00  0.00    +0.000 C 
ATOM     11  S   UNL     1       3.858  15.781  18.719  0.00  0.00    +0.000 S 
ATOM     12  C   UNL     1       3.815  15.595  20.576  0.00  0.00    +0.000 C 
ATOM     13  C   UNL     1       4.654  14.375  20.992  0.00  0.00    +0.000 C 
ATOM     14  C   UNL     1       2.376  15.584  21.122  0.00  0.00    +0.000 C 
BRANCH  12  15
ATOM     15  C   UNL     1       4.533  16.861  21.121  0.00  0.00    +0.000 C 
BRANCH  15  16
ATOM     16  O   UNL     1       4.366  17.982  20.254  0.00  0.00    +0.000 OA
ATOM     17  H   UNL     1       3.781  18.609  20.721  0.00  0.00    +0.000 HD
ENDBRANCH  15  16
ENDBRANCH  12  15
ENDBRANCH   1   4
BRANCH   1  21
ATOM     18  C   UNL     1       2.284   7.704  18.958  0.00  0.00    +0.000 A 
ATOM     19  C   UNL     1       1.993   8.545  17.883  0.00  0.00    +0.000 A 
ATOM     20  C   UNL     1       1.204   9.686  18.071  0.00  0.00    +0.000 A 
ATOM     21  C   UNL     1       0.707  10.050  19.338  0.00  0.00    +0.000 A 
ATOM     22  C   UNL     1       0.971   9.159  20.393  0.00  0.00    +0.000 A 
ATOM     23  C   UNL     1       1.730   7.998  20.206  0.00  0.00    +0.000 A 
BRANCH  18  27
ATOM     24  C   UNL     1       5.392   4.399  16.969  0.00  0.00    +0.000 C 
ATOM     25  N   UNL     1       4.546   5.119  17.888  0.00  0.00    +0.000 N 
ATOM     26  C   UNL     1       3.845   6.264  17.631  0.00  0.00    +0.000 A 
ATOM     27  C   UNL     1       3.182   6.577  18.800  0.00  0.00    +0.000 A 
ATOM     28  C   UNL     1       3.545   5.535  19.689  0.00  0.00    +0.000 A 
ATOM     29  N   UNL     1       4.381   4.655  19.138  0.00  0.00    +0.000 NA
ENDBRANCH  18  27
ENDBRANCH   1  21
TORSDOF 5
ENDMDL
