MODEL 1
REMARK VINA RESULT:      -7.4      0.000      0.000
REMARK  Name = 
REMARK  3 active torsions:
REMARK  status: ('A' for Active; 'I' for Inactive)
REMARK    1  A    between atoms: C_2  and  C_3
REMARK    2  A    between atoms: C_13  and  S_14
REMARK    3  A    between atoms: S_14  and  N_17
REMARK                            x       y       z     vdW  Elec       q    Type
REMARK                         _______ _______ _______ _____ _____    ______ ____
ROOT
ATOM      1  O   UNL     1       3.925   7.112  16.706  0.00  0.00    +0.000 OA
ATOM      2  C   UNL     1       4.023   6.102  17.397  0.00  0.00    +0.000 C 
ATOM      3  N   UNL     1       3.375   5.907  18.605  0.00  0.00    +0.000 N 
ATOM      4  C   UNL     1       3.387   4.671  19.404  0.00  0.00    +0.000 C 
ATOM      5  C   UNL     1       2.509   4.905  20.642  0.00  0.00    +0.000 C 
ATOM      6  C   UNL     1       2.019   6.299  20.412  0.00  0.00    +0.000 A 
ATOM      7  C   UNL     1       1.170   7.034  21.225  0.00  0.00    +0.000 A 
ATOM      8  C   UNL     1       0.832   8.353  20.866  0.00  0.00    +0.000 A 
ATOM      9 BR   UNL     1      -0.343   9.209  22.086  0.00  0.00    +0.000 Br
ATOM     10  C   UNL     1       1.358   8.910  19.685  0.00  0.00    +0.000 A 
ATOM     11  C   UNL     1       2.234   8.144  18.884  0.00  0.00    +0.000 A 
ATOM     12  C   UNL     1       2.543   6.842  19.248  0.00  0.00    +0.000 A 
ENDROOT
BRANCH   2  13
ATOM     13  C   UNL     1       4.869   4.968  16.896  0.00  0.00    +0.000 C 
ATOM     14  C   UNL     1       5.793   5.202  15.723  0.00  0.00    +0.000 C 
ATOM     15  C   UNL     1       6.369   4.983  17.090  0.00  0.00    +0.000 C 
ENDBRANCH   2  13
BRANCH  10  16
ATOM     16  S   UNL     1       1.127  10.614  19.171  0.00  0.00    +0.000 S 
ATOM     17  O   UNL     1       1.315  11.492  20.305  0.00  0.00    +0.000 OA
ATOM     18  O   UNL     1       1.941  10.805  17.987  0.00  0.00    +0.000 OA
BRANCH  16  19
ATOM     19  N   UNL     1      -0.516  10.690  18.680  0.00  0.00    +0.000 NA
ATOM     20  C   UNL     1      -1.181  12.005  18.777  0.00  0.00    +0.000 C 
ATOM     21  C   UNL     1      -2.659  11.922  19.146  0.00  0.00    +0.000 C 
ATOM     22  C   UNL     1      -3.573  11.632  17.964  0.00  0.00    +0.000 C 
ATOM     23  C   UNL     1      -3.431  10.210  17.452  0.00  0.00    +0.000 C 
ATOM     24  C   UNL     1      -2.091   9.985  16.769  0.00  0.00    +0.000 C 
ATOM     25  C   UNL     1      -0.939   9.663  17.705  0.00  0.00    +0.000 C 
ENDBRANCH  16  19
ENDBRANCH  10  16
TORSDOF 3
ENDMDL
MODEL 2
REMARK VINA RESULT:      -7.2      0.265      1.251
REMARK  Name = 
REMARK  3 active torsions:
REMARK  status: ('A' for Active; 'I' for Inactive)
REMARK    1  A    between atoms: C_2  and  C_3
REMARK    2  A    between atoms: C_13  and  S_14
REMARK    3  A    between atoms: S_14  and  N_17
REMARK                            x       y       z     vdW  Elec       q    Type
REMARK                         _______ _______ _______ _____ _____    ______ ____
ROOT
ATOM      1  O   UNL     1       3.844   7.052  16.779  0.00  0.00    +0.000 OA
ATOM      2  C   UNL     1       3.885   6.075  17.520  0.00  0.00    +0.000 C 
ATOM      3  N   UNL     1       3.217   5.973  18.728  0.00  0.00    +0.000 N 
ATOM      4  C   UNL     1       3.160   4.779  19.588  0.00  0.00    +0.000 C 
ATOM      5  C   UNL     1       2.283   5.117  20.802  0.00  0.00    +0.000 C 
ATOM      6  C   UNL     1       1.866   6.521  20.498  0.00  0.00    +0.000 A 
ATOM      7  C   UNL     1       1.046   7.336  21.263  0.00  0.00    +0.000 A 
ATOM      8  C   UNL     1       0.778   8.650  20.836  0.00  0.00    +0.000 A 
ATOM      9 BR   UNL     1      -0.364   9.623  21.999  0.00  0.00    +0.000 Br
ATOM     10  C   UNL     1       1.342   9.121  19.636  0.00  0.00    +0.000 A 
ATOM     11  C   UNL     1       2.186   8.274  18.883  0.00  0.00    +0.000 A 
ATOM     12  C   UNL     1       2.427   6.979  19.314  0.00  0.00    +0.000 A 
ENDROOT
BRANCH   2  13
ATOM     13  C   UNL     1       4.678   4.877  17.085  0.00  0.00    +0.000 C 
ATOM     14  C   UNL     1       5.524   4.969  15.836  0.00  0.00    +0.000 C 
ATOM     15  C   UNL     1       6.188   4.879  17.178  0.00  0.00    +0.000 C 
ENDBRANCH   2  13
BRANCH  10  16
ATOM     16  S   UNL     1       1.201  10.807  19.035  0.00  0.00    +0.000 S 
ATOM     17  O   UNL     1       1.378  11.729  20.135  0.00  0.00    +0.000 OA
ATOM     18  O   UNL     1       2.068  10.910  17.878  0.00  0.00    +0.000 OA
BRANCH  16  19
ATOM     19  N   UNL     1      -0.417  10.923  18.472  0.00  0.00    +0.000 NA
ATOM     20  C   UNL     1      -1.025   9.690  17.934  0.00  0.00    +0.000 C 
ATOM     21  C   UNL     1      -1.991   9.933  16.779  0.00  0.00    +0.000 C 
ATOM     22  C   UNL     1      -3.389  10.340  17.220  0.00  0.00    +0.000 C 
ATOM     23  C   UNL     1      -3.434  11.744  17.795  0.00  0.00    +0.000 C 
ATOM     24  C   UNL     1      -2.733  11.827  19.142  0.00  0.00    +0.000 C 
ATOM     25  C   UNL     1      -1.226  12.004  19.072  0.00  0.00    +0.000 C 
ENDBRANCH  16  19
ENDBRANCH  10  16
TORSDOF 3
ENDMDL
MODEL 3
REMARK VINA RESULT:      -6.8      4.807      8.192
REMARK  Name = 
REMARK  3 active torsions:
REMARK  status: ('A' for Active; 'I' for Inactive)
REMARK    1  A    between atoms: C_2  and  C_3
REMARK    2  A    between atoms: C_13  and  S_14
REMARK    3  A    between atoms: S_14  and  N_17
REMARK                            x       y       z     vdW  Elec       q    Type
REMARK                         _______ _______ _______ _____ _____    ______ ____
ROOT
ATOM      1  O   UNL     1      -4.593  12.793  20.160  0.00  0.00    +0.000 OA
ATOM      2  C   UNL     1      -4.916  12.419  19.036  0.00  0.00    +0.000 C 
ATOM      3  N   UNL     1      -4.112  11.674  18.192  0.00  0.00    +0.000 N 
ATOM      4  C   UNL     1      -4.507  11.122  16.885  0.00  0.00    +0.000 C 
ATOM      5  C   UNL     1      -3.309  10.342  16.325  0.00  0.00    +0.000 C 
ATOM      6  C   UNL     1      -2.305  10.490  17.424  0.00  0.00    +0.000 A 
ATOM      7  C   UNL     1      -1.020   9.971  17.461  0.00  0.00    +0.000 A 
ATOM      8  C   UNL     1      -0.195  10.234  18.571  0.00  0.00    +0.000 A 
ATOM      9 BR   UNL     1       1.527   9.444  18.459  0.00  0.00    +0.000 Br
ATOM     10  C   UNL     1      -0.685  11.017  19.632  0.00  0.00    +0.000 A 
ATOM     11  C   UNL     1      -1.994  11.546  19.562  0.00  0.00    +0.000 A 
ATOM     12  C   UNL     1      -2.794  11.265  18.466  0.00  0.00    +0.000 A 
ENDROOT
BRANCH   2  13
ATOM     13  C   UNL     1      -6.293  12.749  18.539  0.00  0.00    +0.000 C 
ATOM     14  C   UNL     1      -7.269  13.432  19.471  0.00  0.00    +0.000 C 
ATOM     15  C   UNL     1      -6.703  14.187  18.305  0.00  0.00    +0.000 C 
ENDBRANCH   2  13
BRANCH  10  16
ATOM     16  S   UNL     1       0.290  11.547  21.044  0.00  0.00    +0.000 S 
ATOM     17  O   UNL     1       0.739  10.388  21.784  0.00  0.00    +0.000 OA
ATOM     18  O   UNL     1       1.270  12.489  20.541  0.00  0.00    +0.000 OA
BRANCH  16  19
ATOM     19  N   UNL     1      -0.816  12.430  22.016  0.00  0.00    +0.000 NA
ATOM     20  C   UNL     1      -1.555  11.670  23.044  0.00  0.00    +0.000 C 
ATOM     21  C   UNL     1      -2.977  12.170  23.276  0.00  0.00    +0.000 C 
ATOM     22  C   UNL     1      -3.062  13.368  24.211  0.00  0.00    +0.000 C 
ATOM     23  C   UNL     1      -2.521  14.639  23.580  0.00  0.00    +0.000 C 
ATOM     24  C   UNL     1      -1.011  14.587  23.408  0.00  0.00    +0.000 C 
ATOM     25  C   UNL     1      -0.532  13.873  22.156  0.00  0.00    +0.000 C 
ENDBRANCH  16  19
ENDBRANCH  10  16
TORSDOF 3
ENDMDL
MODEL 4
REMARK VINA RESULT:      -6.6      1.131      1.301
REMARK  Name = 
REMARK  3 active torsions:
REMARK  status: ('A' for Active; 'I' for Inactive)
REMARK    1  A    between atoms: C_2  and  C_3
REMARK    2  A    between atoms: C_13  and  S_14
REMARK    3  A    between atoms: S_14  and  N_17
REMARK                            x       y       z     vdW  Elec       q    Type
REMARK                         _______ _______ _______ _____ _____    ______ ____
ROOT
ATOM      1  O   UNL     1       3.419   8.103  17.079  0.00  0.00    +0.000 OA
ATOM      2  C   UNL     1       3.492   7.022  17.655  0.00  0.00    +0.000 C 
ATOM      3  N   UNL     1       2.864   6.722  18.852  0.00  0.00    +0.000 N 
ATOM      4  C   UNL     1       2.846   5.407  19.514  0.00  0.00    +0.000 C 
ATOM      5  C   UNL     1       2.004   5.538  20.791  0.00  0.00    +0.000 C 
ATOM      6  C   UNL     1       1.564   6.965  20.725  0.00  0.00    +0.000 A 
ATOM      7  C   UNL     1       0.761   7.638  21.632  0.00  0.00    +0.000 A 
ATOM      8  C   UNL     1       0.466   9.000  21.426  0.00  0.00    +0.000 A 
ATOM      9 BR   UNL     1      -0.648   9.761  22.760  0.00  0.00    +0.000 Br
ATOM     10  C   UNL     1       0.988   9.661  20.298  0.00  0.00    +0.000 A 
ATOM     11  C   UNL     1       1.816   8.955  19.397  0.00  0.00    +0.000 A 
ATOM     12  C   UNL     1       2.083   7.611  19.612  0.00  0.00    +0.000 A 
ENDROOT
BRANCH   2  13
ATOM     13  C   UNL     1       4.283   5.919  17.015  0.00  0.00    +0.000 C 
ATOM     14  C   UNL     1       5.184   6.243  15.845  0.00  0.00    +0.000 C 
ATOM     15  C   UNL     1       5.787   5.863  17.164  0.00  0.00    +0.000 C 
ENDBRANCH   2  13
BRANCH  10  16
ATOM     16  S   UNL     1       0.812  11.418  19.975  0.00  0.00    +0.000 S 
ATOM     17  O   UNL     1       1.202  12.167  21.149  0.00  0.00    +0.000 OA
ATOM     18  O   UNL     1       1.480  11.678  18.715  0.00  0.00    +0.000 OA
BRANCH  16  19
ATOM     19  N   UNL     1      -0.871  11.635  19.715  0.00  0.00    +0.000 NA
ATOM     20  C   UNL     1      -1.488  12.839  20.306  0.00  0.00    +0.000 C 
ATOM     21  C   UNL     1      -2.920  12.627  20.784  0.00  0.00    +0.000 C 
ATOM     22  C   UNL     1      -3.960  12.730  19.679  0.00  0.00    +0.000 C 
ATOM     23  C   UNL     1      -3.910  11.554  18.719  0.00  0.00    +0.000 C 
ATOM     24  C   UNL     1      -2.656  11.577  17.860  0.00  0.00    +0.000 C 
ATOM     25  C   UNL     1      -1.421  10.978  18.511  0.00  0.00    +0.000 C 
ENDBRANCH  16  19
ENDBRANCH  10  16
TORSDOF 3
ENDMDL
MODEL 5
REMARK VINA RESULT:      -6.5      5.779      8.592
REMARK  Name = 
REMARK  3 active torsions:
REMARK  status: ('A' for Active; 'I' for Inactive)
REMARK    1  A    between atoms: C_2  and  C_3
REMARK    2  A    between atoms: C_13  and  S_14
REMARK    3  A    between atoms: S_14  and  N_17
REMARK                            x       y       z     vdW  Elec       q    Type
REMARK                         _______ _______ _______ _____ _____    ______ ____
ROOT
ATOM      1  O   UNL     1      -2.870  11.435  18.539  0.00  0.00    +0.000 OA
ATOM      2  C   UNL     1      -3.947  11.416  17.949  0.00  0.00    +0.000 C 
ATOM      3  N   UNL     1      -5.144  11.866  18.479  0.00  0.00    +0.000 N 
ATOM      4  C   UNL     1      -6.428  11.954  17.765  0.00  0.00    +0.000 C 
ATOM      5  C   UNL     1      -7.464  12.538  18.735  0.00  0.00    +0.000 C 
ATOM      6  C   UNL     1      -6.639  12.779  19.958  0.00  0.00    +0.000 A 
ATOM      7  C   UNL     1      -7.064  13.312  21.165  0.00  0.00    +0.000 A 
ATOM      8  C   UNL     1      -6.151  13.445  22.228  0.00  0.00    +0.000 A 
ATOM      9 BR   UNL     1      -6.900  14.196  23.802  0.00  0.00    +0.000 Br
ATOM     10  C   UNL     1      -4.815  13.037  22.053  0.00  0.00    +0.000 A 
ATOM     11  C   UNL     1      -4.412  12.482  20.818  0.00  0.00    +0.000 A 
ATOM     12  C   UNL     1      -5.324  12.373  19.779  0.00  0.00    +0.000 A 
ENDROOT
BRANCH   2  13
ATOM     13  C   UNL     1      -3.983  10.909  16.537  0.00  0.00    +0.000 C 
ATOM     14  C   UNL     1      -2.759  11.072  15.665  0.00  0.00    +0.000 C 
ATOM     15  C   UNL     1      -3.163   9.704  16.130  0.00  0.00    +0.000 C 
ENDBRANCH   2  13
BRANCH  10  16
ATOM     16  S   UNL     1      -3.576  13.018  23.352  0.00  0.00    +0.000 S 
ATOM     17  O   UNL     1      -3.254  14.375  23.733  0.00  0.00    +0.000 OA
ATOM     18  O   UNL     1      -4.049  12.092  24.363  0.00  0.00    +0.000 OA
BRANCH  16  19
ATOM     19  N   UNL     1      -2.199  12.308  22.614  0.00  0.00    +0.000 NA
ATOM     20  C   UNL     1      -1.175  13.232  22.086  0.00  0.00    +0.000 C 
ATOM     21  C   UNL     1      -0.485  12.729  20.822  0.00  0.00    +0.000 C 
ATOM     22  C   UNL     1       0.647  11.748  21.087  0.00  0.00    +0.000 C 
ATOM     23  C   UNL     1       0.148  10.399  21.573  0.00  0.00    +0.000 C 
ATOM     24  C   UNL     1      -0.424  10.479  22.980  0.00  0.00    +0.000 C 
ATOM     25  C   UNL     1      -1.869  10.939  23.061  0.00  0.00    +0.000 C 
ENDBRANCH  16  19
ENDBRANCH  10  16
TORSDOF 3
ENDMDL
MODEL 6
REMARK VINA RESULT:      -6.4      3.897      9.458
REMARK  Name = 
REMARK  3 active torsions:
REMARK  status: ('A' for Active; 'I' for Inactive)
REMARK    1  A    between atoms: C_2  and  C_3
REMARK    2  A    between atoms: C_13  and  S_14
REMARK    3  A    between atoms: S_14  and  N_17
REMARK                            x       y       z     vdW  Elec       q    Type
REMARK                         _______ _______ _______ _____ _____    ______ ____
ROOT
ATOM      1  O   UNL     1      -5.054  13.225  22.538  0.00  0.00    +0.000 OA
ATOM      2  C   UNL     1      -6.110  12.881  22.016  0.00  0.00    +0.000 C 
ATOM      3  N   UNL     1      -6.217  12.283  20.772  0.00  0.00    +0.000 N 
ATOM      4  C   UNL     1      -7.453  11.765  20.164  0.00  0.00    +0.000 C 
ATOM      5  C   UNL     1      -7.087  11.162  18.800  0.00  0.00    +0.000 C 
ATOM      6  C   UNL     1      -5.605  11.362  18.763  0.00  0.00    +0.000 A 
ATOM      7  C   UNL     1      -4.734  10.994  17.749  0.00  0.00    +0.000 A 
ATOM      8  C   UNL     1      -3.362  11.286  17.870  0.00  0.00    +0.000 A 
ATOM      9 BR   UNL     1      -2.316  10.708  16.396  0.00  0.00    +0.000 Br
ATOM     10  C   UNL     1      -2.890  11.945  19.020  0.00  0.00    +0.000 A 
ATOM     11  C   UNL     1      -3.802  12.323  20.031  0.00  0.00    +0.000 A 
ATOM     12  C   UNL     1      -5.147  12.014  19.899  0.00  0.00    +0.000 A 
ENDROOT
BRANCH   2  13
ATOM     13  C   UNL     1      -7.387  13.078  22.780  0.00  0.00    +0.000 C 
ATOM     14  C   UNL     1      -7.328  13.666  24.172  0.00  0.00    +0.000 C 
ATOM     15  C   UNL     1      -7.915  14.470  23.050  0.00  0.00    +0.000 C 
ENDBRANCH   2  13
BRANCH  10  16
ATOM     16  S   UNL     1      -1.199  12.502  19.253  0.00  0.00    +0.000 S 
ATOM     17  O   UNL     1      -0.713  13.099  18.029  0.00  0.00    +0.000 OA
ATOM     18  O   UNL     1      -1.183  13.281  20.476  0.00  0.00    +0.000 OA
BRANCH  16  19
ATOM     19  N   UNL     1      -0.316  11.061  19.555  0.00  0.00    +0.000 NA
ATOM     20  C   UNL     1       0.834  10.786  18.670  0.00  0.00    +0.000 C 
ATOM     21  C   UNL     1       1.050   9.304  18.383  0.00  0.00    +0.000 C 
ATOM     22  C   UNL     1       1.813   8.570  19.476  0.00  0.00    +0.000 C 
ATOM     23  C   UNL     1       0.994   8.395  20.742  0.00  0.00    +0.000 C 
ATOM     24  C   UNL     1       0.773   9.717  21.461  0.00  0.00    +0.000 C 
ATOM     25  C   UNL     1      -0.386  10.546  20.938  0.00  0.00    +0.000 C 
ENDBRANCH  16  19
ENDBRANCH  10  16
TORSDOF 3
ENDMDL
MODEL 7
REMARK VINA RESULT:      -6.4      1.448      2.161
REMARK  Name = 
REMARK  3 active torsions:
REMARK  status: ('A' for Active; 'I' for Inactive)
REMARK    1  A    between atoms: C_2  and  C_3
REMARK    2  A    between atoms: C_13  and  S_14
REMARK    3  A    between atoms: S_14  and  N_17
REMARK                            x       y       z     vdW  Elec       q    Type
REMARK                         _______ _______ _______ _____ _____    ______ ____
ROOT
ATOM      1  O   UNL     1       2.955   8.589  17.120  0.00  0.00    +0.000 OA
ATOM      2  C   UNL     1       3.088   7.554  17.766  0.00  0.00    +0.000 C 
ATOM      3  N   UNL     1       2.518   7.319  19.006  0.00  0.00    +0.000 N 
ATOM      4  C   UNL     1       2.571   6.055  19.757  0.00  0.00    +0.000 C 
ATOM      5  C   UNL     1       1.777   6.248  21.056  0.00  0.00    +0.000 C 
ATOM      6  C   UNL     1       1.285   7.653  20.910  0.00  0.00    +0.000 A 
ATOM      7  C   UNL     1       0.497   8.362  21.802  0.00  0.00    +0.000 A 
ATOM      8  C   UNL     1       0.147   9.695  21.515  0.00  0.00    +0.000 A 
ATOM      9 BR   UNL     1      -0.939  10.513  22.839  0.00  0.00    +0.000 Br
ATOM     10  C   UNL     1       0.601  10.292  20.323  0.00  0.00    +0.000 A 
ATOM     11  C   UNL     1       1.416   9.551  19.439  0.00  0.00    +0.000 A 
ATOM     12  C   UNL     1       1.738   8.235  19.735  0.00  0.00    +0.000 A 
ENDROOT
BRANCH   2  13
ATOM     13  C   UNL     1       3.890   6.435  17.170  0.00  0.00    +0.000 C 
ATOM     14  C   UNL     1       4.911   6.749  16.100  0.00  0.00    +0.000 C 
ATOM     15  C   UNL     1       5.370   6.310  17.458  0.00  0.00    +0.000 C 
ENDBRANCH   2  13
BRANCH  10  16
ATOM     16  S   UNL     1       0.352  12.016  19.888  0.00  0.00    +0.000 S 
ATOM     17  O   UNL     1       0.656  12.852  21.028  0.00  0.00    +0.000 OA
ATOM     18  O   UNL     1       1.057  12.235  18.640  0.00  0.00    +0.000 OA
BRANCH  16  19
ATOM     19  N   UNL     1      -1.328  12.130  19.551  0.00  0.00    +0.000 NA
ATOM     20  C   UNL     1      -1.933  11.016  18.795  0.00  0.00    +0.000 C 
ATOM     21  C   UNL     1      -3.048  11.448  17.848  0.00  0.00    +0.000 C 
ATOM     22  C   UNL     1      -4.400  11.621  18.526  0.00  0.00    +0.000 C 
ATOM     23  C   UNL     1      -4.445  12.838  19.433  0.00  0.00    +0.000 C 
ATOM     24  C   UNL     1      -3.586  12.654  20.673  0.00  0.00    +0.000 C 
ATOM     25  C   UNL     1      -2.111  12.966  20.484  0.00  0.00    +0.000 C 
ENDBRANCH  16  19
ENDBRANCH  10  16
TORSDOF 3
ENDMDL
MODEL 8
REMARK VINA RESULT:      -6.3      3.764      7.363
REMARK  Name = 
REMARK  3 active torsions:
REMARK  status: ('A' for Active; 'I' for Inactive)
REMARK    1  A    between atoms: C_2  and  C_3
REMARK    2  A    between atoms: C_13  and  S_14
REMARK    3  A    between atoms: S_14  and  N_17
REMARK                            x       y       z     vdW  Elec       q    Type
REMARK                         _______ _______ _______ _____ _____    ______ ____
ROOT
ATOM      1  O   UNL     1      -1.875  11.130  17.096  0.00  0.00    +0.000 OA
ATOM      2  C   UNL     1      -3.088  11.292  16.995  0.00  0.00    +0.000 C 
ATOM      3  N   UNL     1      -3.907  11.760  18.008  0.00  0.00    +0.000 N 
ATOM      4  C   UNL     1      -5.342  12.065  17.889  0.00  0.00    +0.000 C 
ATOM      5  C   UNL     1      -5.825  12.585  19.250  0.00  0.00    +0.000 C 
ATOM      6  C   UNL     1      -4.562  12.569  20.051  0.00  0.00    +0.000 A 
ATOM      7  C   UNL     1      -4.404  12.952  21.374  0.00  0.00    +0.000 A 
ATOM      8  C   UNL     1      -3.138  12.845  21.982  0.00  0.00    +0.000 A 
ATOM      9 BR   UNL     1      -3.100  13.416  23.792  0.00  0.00    +0.000 Br
ATOM     10  C   UNL     1      -2.049  12.353  21.240  0.00  0.00    +0.000 A 
ATOM     11  C   UNL     1      -2.242  11.956  19.898  0.00  0.00    +0.000 A 
ATOM     12  C   UNL     1      -3.493  12.082  19.313  0.00  0.00    +0.000 A 
ENDROOT
BRANCH   2  13
ATOM     13  C   UNL     1      -3.743  11.006  15.676  0.00  0.00    +0.000 C 
ATOM     14  C   UNL     1      -2.937  10.342  14.582  0.00  0.00    +0.000 C 
ATOM     15  C   UNL     1      -4.042   9.583  15.257  0.00  0.00    +0.000 C 
ENDBRANCH   2  13
BRANCH  10  16
ATOM     16  S   UNL     1      -0.416  12.034  21.915  0.00  0.00    +0.000 S 
ATOM     17  O   UNL     1       0.307  13.280  22.042  0.00  0.00    +0.000 OA
ATOM     18  O   UNL     1      -0.607  11.204  23.088  0.00  0.00    +0.000 OA
BRANCH  16  19
ATOM     19  N   UNL     1       0.354  11.066  20.725  0.00  0.00    +0.000 NA
ATOM     20  C   UNL     1       1.394  11.720  19.905  0.00  0.00    +0.000 C 
ATOM     21  C   UNL     1       1.448  11.219  18.465  0.00  0.00    +0.000 C 
ATOM     22  C   UNL     1       2.231   9.926  18.292  0.00  0.00    +0.000 C 
ATOM     23  C   UNL     1       1.511   8.725  18.877  0.00  0.00    +0.000 C 
ATOM     24  C   UNL     1       1.474   8.772  20.397  0.00  0.00    +0.000 C 
ATOM     25  C   UNL     1       0.355   9.612  20.986  0.00  0.00    +0.000 C 
ENDBRANCH  16  19
ENDBRANCH  10  16
TORSDOF 3
ENDMDL
MODEL 9
REMARK VINA RESULT:      -6.3      4.620      7.830
REMARK  Name = 
REMARK  3 active torsions:
REMARK  status: ('A' for Active; 'I' for Inactive)
REMARK    1  A    between atoms: C_2  and  C_3
REMARK    2  A    between atoms: C_13  and  S_14
REMARK    3  A    between atoms: S_14  and  N_17
REMARK                            x       y       z     vdW  Elec       q    Type
REMARK                         _______ _______ _______ _____ _____    ______ ____
ROOT
ATOM      1  O   UNL     1      -2.055  11.557  17.788  0.00  0.00    +0.000 OA
ATOM      2  C   UNL     1      -3.276  11.495  17.685  0.00  0.00    +0.000 C 
ATOM      3  N   UNL     1      -4.171  11.960  18.633  0.00  0.00    +0.000 N 
ATOM      4  C   UNL     1      -5.636  11.997  18.494  0.00  0.00    +0.000 C 
ATOM      5  C   UNL     1      -6.212  12.621  19.773  0.00  0.00    +0.000 C 
ATOM      6  C   UNL     1      -4.972  12.936  20.547  0.00  0.00    +0.000 A 
ATOM      7  C   UNL     1      -4.892  13.529  21.798  0.00  0.00    +0.000 A 
ATOM      8  C   UNL     1      -3.632  13.727  22.394  0.00  0.00    +0.000 A 
ATOM      9 BR   UNL     1      -3.707  14.554  24.101  0.00  0.00    +0.000 Br
ATOM     10  C   UNL     1      -2.468  13.324  21.713  0.00  0.00    +0.000 A 
ATOM     11  C   UNL     1      -2.580  12.708  20.446  0.00  0.00    +0.000 A 
ATOM     12  C   UNL     1      -3.829  12.534  19.870  0.00  0.00    +0.000 A 
ENDROOT
BRANCH   2  13
ATOM     13  C   UNL     1      -3.862  10.913  16.432  0.00  0.00    +0.000 C 
ATOM     14  C   UNL     1      -3.021  10.870  15.177  0.00  0.00    +0.000 C 
ATOM     15  C   UNL     1      -3.360   9.594  15.888  0.00  0.00    +0.000 C 
ENDBRANCH   2  13
BRANCH  10  16
ATOM     16  S   UNL     1      -0.811  13.388  22.401  0.00  0.00    +0.000 S 
ATOM     17  O   UNL     1      -0.004  14.311  21.634  0.00  0.00    +0.000 OA
ATOM     18  O   UNL     1      -0.962  13.596  23.828  0.00  0.00    +0.000 OA
BRANCH  16  19
ATOM     19  N   UNL     1      -0.198  11.800  22.178  0.00  0.00    +0.000 NA
ATOM     20  C   UNL     1      -0.942  10.701  22.826  0.00  0.00    +0.000 C 
ATOM     21  C   UNL     1      -0.054   9.564  23.320  0.00  0.00    +0.000 C 
ATOM     22  C   UNL     1       0.328   8.565  22.237  0.00  0.00    +0.000 C 
ATOM     23  C   UNL     1       1.309   9.141  21.232  0.00  0.00    +0.000 C 
ATOM     24  C   UNL     1       0.663  10.201  20.353  0.00  0.00    +0.000 C 
ATOM     25  C   UNL     1       0.610  11.593  20.959  0.00  0.00    +0.000 C 
ENDBRANCH  16  19
ENDBRANCH  10  16
TORSDOF 3
ENDMDL
