MODEL 1
REMARK VINA RESULT:      -7.9      0.000      0.000
REMARK  Name = 
REMARK  9 active torsions:
REMARK  status: ('A' for Active; 'I' for Inactive)
REMARK    1  A    between atoms: C_1  and  C_2
REMARK    2  A    between atoms: C_2  and  C_4
REMARK    3  A    between atoms: C_5  and  C_6
REMARK    4  A    between atoms: N_8  and  C_9
REMARK    5  A    between atoms: C_9  and  C_10
REMARK    6  A    between atoms: C_9  and  C_11
REMARK    7  A    between atoms: C_11  and  C_12
REMARK    8  A    between atoms: C_14  and  C_15
REMARK    9  A    between atoms: C_23  and  C_24
REMARK                            x       y       z     vdW  Elec       q    Type
REMARK                         _______ _______ _______ _____ _____    ______ ____
ROOT
ATOM      1  C   UNL     1       6.878   5.470  18.270  0.00  0.00    +0.000 C 
ATOM      2  C   UNL     1       7.746   5.774  19.495  0.00  0.00    +0.000 C 
ENDROOT
BRANCH   1   7
ATOM      3  C   UNL     1       3.439   4.459  18.974  0.00  0.00    +0.000 A 
ATOM      4  C   UNL     1       4.297   3.506  19.586  0.00  0.00    +0.000 A 
ATOM      5  C   UNL     1       3.964   2.265  20.333  0.00  0.00    +0.000 C 
ATOM      6  N   UNL     1       5.582   3.817  19.409  0.00  0.00    +0.000 NA
ATOM      7  N   UNL     1       5.577   4.920  18.649  0.00  0.00    +0.000 N 
ATOM      8  C   UNL     1       4.303   5.392  18.403  0.00  0.00    +0.000 A 
ATOM      9  C   UNL     1       3.984   6.671  17.712  0.00  0.00    +0.000 C 
BRANCH   3  11
ATOM     10  C   UNL     1       1.217   4.047  17.754  0.00  0.00    +0.000 C 
ATOM     11  C   UNL     1       1.975   4.452  18.992  0.00  0.00    +0.000 C 
ATOM     12  O   UNL     1       1.347   4.749  20.011  0.00  0.00    +0.000 OA
ENDBRANCH   3  11
ENDBRANCH   1   7
BRANCH   1  13
ATOM     13  C   UNL     1       7.618   4.659  17.192  0.00  0.00    +0.000 C 
BRANCH  13  14
ATOM     14  C   UNL     1       7.111   4.711  15.790  0.00  0.00    +0.000 A 
ATOM     15  N   UNL     1       6.290   3.890  15.166  0.00  0.00    +0.000 NA
ATOM     16  C   UNL     1       6.461   4.249  13.832  0.00  0.00    +0.000 A 
ATOM     17  N   UNL     1       7.324   5.265  13.662  0.00  0.00    +0.000 NA
ATOM     18  O   UNL     1       7.769   5.551  14.944  0.00  0.00    +0.000 OA
BRANCH  16  19
ATOM     19  C   UNL     1       5.859   3.521  12.711  0.00  0.00    +0.000 A 
ATOM     20  C   UNL     1       4.612   3.851  12.198  0.00  0.00    +0.000 A 
ATOM     21  C   UNL     1       4.063   3.051  11.195  0.00  0.00    +0.000 A 
ATOM     22  C   UNL     1       4.787   1.962  10.750  0.00  0.00    +0.000 A 
ATOM     23  N   UNL     1       6.002   1.663  11.245  0.00  0.00    +0.000 NA
ATOM     24  N   UNL     1       6.540   2.449  12.234  0.00  0.00    +0.000 NA
ENDBRANCH  16  19
ENDBRANCH  13  14
ENDBRANCH   1  13
TORSDOF 5
ENDMDL
MODEL 2
REMARK VINA RESULT:      -7.7      1.014      1.208
REMARK  Name = 
REMARK  9 active torsions:
REMARK  status: ('A' for Active; 'I' for Inactive)
REMARK    1  A    between atoms: C_1  and  C_2
REMARK    2  A    between atoms: C_2  and  C_4
REMARK    3  A    between atoms: C_5  and  C_6
REMARK    4  A    between atoms: N_8  and  C_9
REMARK    5  A    between atoms: C_9  and  C_10
REMARK    6  A    between atoms: C_9  and  C_11
REMARK    7  A    between atoms: C_11  and  C_12
REMARK    8  A    between atoms: C_14  and  C_15
REMARK    9  A    between atoms: C_23  and  C_24
REMARK                            x       y       z     vdW  Elec       q    Type
REMARK                         _______ _______ _______ _____ _____    ______ ____
ROOT
ATOM      1  C   UNL     1       6.835   5.414  18.414  0.00  0.00    +0.000 C 
ATOM      2  C   UNL     1       7.633   5.623  19.705  0.00  0.00    +0.000 C 
ENDROOT
BRANCH   1   7
ATOM      3  C   UNL     1       3.412   4.203  18.813  0.00  0.00    +0.000 A 
ATOM      4  C   UNL     1       4.272   3.266  19.446  0.00  0.00    +0.000 A 
ATOM      5  C   UNL     1       3.951   1.976  20.112  0.00  0.00    +0.000 C 
ATOM      6  N   UNL     1       5.548   3.647  19.379  0.00  0.00    +0.000 NA
ATOM      7  N   UNL     1       5.541   4.784  18.669  0.00  0.00    +0.000 N 
ATOM      8  C   UNL     1       4.265   5.203  18.349  0.00  0.00    +0.000 A 
ATOM      9  C   UNL     1       3.931   6.495  17.691  0.00  0.00    +0.000 C 
BRANCH   3  11
ATOM     10  C   UNL     1       1.117   4.273  19.965  0.00  0.00    +0.000 C 
ATOM     11  C   UNL     1       1.953   4.123  18.720  0.00  0.00    +0.000 C 
ATOM     12  O   UNL     1       1.390   3.957  17.635  0.00  0.00    +0.000 OA
ENDBRANCH   3  11
ENDBRANCH   1   7
BRANCH   1  13
ATOM     13  C   UNL     1       7.656   4.742  17.299  0.00  0.00    +0.000 C 
BRANCH  13  14
ATOM     14  C   UNL     1       7.116   4.760  15.909  0.00  0.00    +0.000 A 
ATOM     15  N   UNL     1       6.299   3.911  15.317  0.00  0.00    +0.000 NA
ATOM     16  C   UNL     1       6.432   4.251  13.974  0.00  0.00    +0.000 A 
ATOM     17  N   UNL     1       7.268   5.282  13.767  0.00  0.00    +0.000 NA
ATOM     18  O   UNL     1       7.736   5.599  15.034  0.00  0.00    +0.000 OA
BRANCH  16  19
ATOM     19  C   UNL     1       5.820   3.491  12.880  0.00  0.00    +0.000 A 
ATOM     20  C   UNL     1       6.454   2.408  12.285  0.00  0.00    +0.000 A 
ATOM     21  C   UNL     1       5.850   1.795  11.185  0.00  0.00    +0.000 A 
ATOM     22  C   UNL     1       4.643   2.291  10.735  0.00  0.00    +0.000 A 
ATOM     23  N   UNL     1       4.031   3.331  11.332  0.00  0.00    +0.000 NA
ATOM     24  N   UNL     1       4.626   3.935  12.411  0.00  0.00    +0.000 NA
ENDBRANCH  16  19
ENDBRANCH  13  14
ENDBRANCH   1  13
TORSDOF 5
ENDMDL
MODEL 3
REMARK VINA RESULT:      -7.5      0.908      1.914
REMARK  Name = 
REMARK  9 active torsions:
REMARK  status: ('A' for Active; 'I' for Inactive)
REMARK    1  A    between atoms: C_1  and  C_2
REMARK    2  A    between atoms: C_2  and  C_4
REMARK    3  A    between atoms: C_5  and  C_6
REMARK    4  A    between atoms: N_8  and  C_9
REMARK    5  A    between atoms: C_9  and  C_10
REMARK    6  A    between atoms: C_9  and  C_11
REMARK    7  A    between atoms: C_11  and  C_12
REMARK    8  A    between atoms: C_14  and  C_15
REMARK    9  A    between atoms: C_23  and  C_24
REMARK                            x       y       z     vdW  Elec       q    Type
REMARK                         _______ _______ _______ _____ _____    ______ ____
ROOT
ATOM      1  C   UNL     1       6.740   5.655  18.305  0.00  0.00    +0.000 C 
ATOM      2  C   UNL     1       7.334   5.586  19.715  0.00  0.00    +0.000 C 
ENDROOT
BRANCH   1   7
ATOM      3  C   UNL     1       3.136   5.089  18.498  0.00  0.00    +0.000 A 
ATOM      4  C   UNL     1       3.335   6.441  18.106  0.00  0.00    +0.000 A 
ATOM      5  C   UNL     1       2.340   7.517  17.862  0.00  0.00    +0.000 C 
ATOM      6  N   UNL     1       4.630   6.729  17.975  0.00  0.00    +0.000 NA
ATOM      7  N   UNL     1       5.278   5.610  18.327  0.00  0.00    +0.000 N 
ATOM      8  C   UNL     1       4.422   4.561  18.597  0.00  0.00    +0.000 A 
ATOM      9  C   UNL     1       4.847   3.162  18.876  0.00  0.00    +0.000 C 
BRANCH   3  11
ATOM     10  C   UNL     1       1.276   4.326  20.097  0.00  0.00    +0.000 C 
ATOM     11  C   UNL     1       1.849   4.422  18.707  0.00  0.00    +0.000 C 
ATOM     12  O   UNL     1       1.211   3.956  17.759  0.00  0.00    +0.000 OA
ENDBRANCH   3  11
ENDBRANCH   1   7
BRANCH   1  13
ATOM     13  C   UNL     1       7.388   4.660  17.327  0.00  0.00    +0.000 C 
BRANCH  13  14
ATOM     14  C   UNL     1       6.983   4.707  15.892  0.00  0.00    +0.000 A 
ATOM     15  N   UNL     1       6.159   3.919  15.229  0.00  0.00    +0.000 NA
ATOM     16  C   UNL     1       6.442   4.234  13.903  0.00  0.00    +0.000 A 
ATOM     17  N   UNL     1       7.374   5.193  13.773  0.00  0.00    +0.000 NA
ATOM     18  O   UNL     1       7.746   5.485  15.076  0.00  0.00    +0.000 OA
BRANCH  16  19
ATOM     19  C   UNL     1       5.876   3.514  12.759  0.00  0.00    +0.000 A 
ATOM     20  C   UNL     1       4.621   3.811  12.244  0.00  0.00    +0.000 A 
ATOM     21  C   UNL     1       4.109   3.018  11.216  0.00  0.00    +0.000 A 
ATOM     22  C   UNL     1       4.876   1.969  10.749  0.00  0.00    +0.000 A 
ATOM     23  N   UNL     1       6.098   1.702  11.246  0.00  0.00    +0.000 NA
ATOM     24  N   UNL     1       6.599   2.481  12.259  0.00  0.00    +0.000 NA
ENDBRANCH  16  19
ENDBRANCH  13  14
ENDBRANCH   1  13
TORSDOF 5
ENDMDL
MODEL 4
REMARK VINA RESULT:      -7.3      2.496      3.981
REMARK  Name = 
REMARK  9 active torsions:
REMARK  status: ('A' for Active; 'I' for Inactive)
REMARK    1  A    between atoms: C_1  and  C_2
REMARK    2  A    between atoms: C_2  and  C_4
REMARK    3  A    between atoms: C_5  and  C_6
REMARK    4  A    between atoms: N_8  and  C_9
REMARK    5  A    between atoms: C_9  and  C_10
REMARK    6  A    between atoms: C_9  and  C_11
REMARK    7  A    between atoms: C_11  and  C_12
REMARK    8  A    between atoms: C_14  and  C_15
REMARK    9  A    between atoms: C_23  and  C_24
REMARK                            x       y       z     vdW  Elec       q    Type
REMARK                         _______ _______ _______ _____ _____    ______ ____
ROOT
ATOM      1  C   UNL     1       3.448   4.273  18.897  0.00  0.00    +0.000 C 
ATOM      2  C   UNL     1       2.958   3.622  17.599  0.00  0.00    +0.000 C 
ENDROOT
BRANCH   1   7
ATOM      3  C   UNL     1       1.920   7.476  19.763  0.00  0.00    +0.000 A 
ATOM      4  C   UNL     1       2.511   7.619  18.478  0.00  0.00    +0.000 A 
ATOM      5  C   UNL     1       2.605   8.815  17.601  0.00  0.00    +0.000 C 
ATOM      6  N   UNL     1       3.066   6.480  18.064  0.00  0.00    +0.000 NA
ATOM      7  N   UNL     1       2.897   5.616  19.074  0.00  0.00    +0.000 N 
ATOM      8  C   UNL     1       2.155   6.147  20.110  0.00  0.00    +0.000 A 
ATOM      9  C   UNL     1       1.685   5.387  21.300  0.00  0.00    +0.000 C 
BRANCH   3  11
ATOM     10  C   UNL     1       1.519   8.734  21.967  0.00  0.00    +0.000 C 
ATOM     11  C   UNL     1       1.200   8.508  20.511  0.00  0.00    +0.000 C 
ATOM     12  O   UNL     1       0.350   9.217  19.965  0.00  0.00    +0.000 OA
ENDBRANCH   3  11
ENDBRANCH   1   7
BRANCH   1  13
ATOM     13  C   UNL     1       4.974   4.187  19.077  0.00  0.00    +0.000 C 
BRANCH  13  14
ATOM     14  C   UNL     1       5.847   4.529  17.917  0.00  0.00    +0.000 A 
ATOM     15  N   UNL     1       5.524   4.713  16.652  0.00  0.00    +0.000 NA
ATOM     16  C   UNL     1       6.761   4.665  16.015  0.00  0.00    +0.000 A 
ATOM     17  N   UNL     1       7.788   4.491  16.863  0.00  0.00    +0.000 NA
ATOM     18  O   UNL     1       7.186   4.377  18.107  0.00  0.00    +0.000 OA
BRANCH  16  19
ATOM     19  C   UNL     1       6.925   4.680  14.559  0.00  0.00    +0.000 A 
ATOM     20  C   UNL     1       6.213   3.828  13.725  0.00  0.00    +0.000 A 
ATOM     21  C   UNL     1       6.494   3.834  12.357  0.00  0.00    +0.000 A 
ATOM     22  C   UNL     1       7.469   4.692  11.889  0.00  0.00    +0.000 A 
ATOM     23  N   UNL     1       8.139   5.525  12.706  0.00  0.00    +0.000 NA
ATOM     24  N   UNL     1       7.864   5.516  14.051  0.00  0.00    +0.000 NA
ENDBRANCH  16  19
ENDBRANCH  13  14
ENDBRANCH   1  13
TORSDOF 5
ENDMDL
MODEL 5
REMARK VINA RESULT:      -7.2      1.541      1.751
REMARK  Name = 
REMARK  9 active torsions:
REMARK  status: ('A' for Active; 'I' for Inactive)
REMARK    1  A    between atoms: C_1  and  C_2
REMARK    2  A    between atoms: C_2  and  C_4
REMARK    3  A    between atoms: C_5  and  C_6
REMARK    4  A    between atoms: N_8  and  C_9
REMARK    5  A    between atoms: C_9  and  C_10
REMARK    6  A    between atoms: C_9  and  C_11
REMARK    7  A    between atoms: C_11  and  C_12
REMARK    8  A    between atoms: C_14  and  C_15
REMARK    9  A    between atoms: C_23  and  C_24
REMARK                            x       y       z     vdW  Elec       q    Type
REMARK                         _______ _______ _______ _____ _____    ______ ____
ROOT
ATOM      1  C   UNL     1       5.835   6.079  18.572  0.00  0.00    +0.000 C 
ATOM      2  C   UNL     1       7.175   5.428  18.928  0.00  0.00    +0.000 C 
ENDROOT
BRANCH   1   7
ATOM      3  C   UNL     1       2.809   4.036  18.657  0.00  0.00    +0.000 A 
ATOM      4  C   UNL     1       3.912   3.156  18.486  0.00  0.00    +0.000 A 
ATOM      5  C   UNL     1       3.935   1.682  18.300  0.00  0.00    +0.000 C 
ATOM      6  N   UNL     1       5.070   3.817  18.479  0.00  0.00    +0.000 NA
ATOM      7  N   UNL     1       4.739   5.111  18.586  0.00  0.00    +0.000 N 
ATOM      8  C   UNL     1       3.383   5.302  18.758  0.00  0.00    +0.000 A 
ATOM      9  C   UNL     1       2.733   6.610  19.045  0.00  0.00    +0.000 C 
BRANCH   3  11
ATOM     10  C   UNL     1       0.775   3.390  20.089  0.00  0.00    +0.000 C 
ATOM     11  C   UNL     1       1.397   3.657  18.741  0.00  0.00    +0.000 C 
ATOM     12  O   UNL     1       0.696   3.574  17.729  0.00  0.00    +0.000 OA
ENDBRANCH   3  11
ENDBRANCH   1   7
BRANCH   1  13
ATOM     13  C   UNL     1       5.902   6.941  17.299  0.00  0.00    +0.000 C 
BRANCH  13  14
ATOM     14  C   UNL     1       6.300   6.287  16.019  0.00  0.00    +0.000 A 
ATOM     15  N   UNL     1       5.552   5.668  15.127  0.00  0.00    +0.000 NA
ATOM     16  C   UNL     1       6.496   4.994  14.357  0.00  0.00    +0.000 A 
ATOM     17  N   UNL     1       7.761   5.222  14.748  0.00  0.00    +0.000 NA
ATOM     18  O   UNL     1       7.631   6.050  15.853  0.00  0.00    +0.000 OA
BRANCH  16  19
ATOM     19  C   UNL     1       6.150   4.036  13.303  0.00  0.00    +0.000 A 
ATOM     20  C   UNL     1       7.116   3.387  12.545  0.00  0.00    +0.000 A 
ATOM     21  C   UNL     1       6.706   2.562  11.495  0.00  0.00    +0.000 A 
ATOM     22  C   UNL     1       5.354   2.424  11.255  0.00  0.00    +0.000 A 
ATOM     23  N   UNL     1       4.428   3.047  12.007  0.00  0.00    +0.000 NA
ATOM     24  N   UNL     1       4.831   3.859  13.038  0.00  0.00    +0.000 NA
ENDBRANCH  16  19
ENDBRANCH  13  14
ENDBRANCH   1  13
TORSDOF 5
ENDMDL
MODEL 6
REMARK VINA RESULT:      -7.0      1.517      1.807
REMARK  Name = 
REMARK  9 active torsions:
REMARK  status: ('A' for Active; 'I' for Inactive)
REMARK    1  A    between atoms: C_1  and  C_2
REMARK    2  A    between atoms: C_2  and  C_4
REMARK    3  A    between atoms: C_5  and  C_6
REMARK    4  A    between atoms: N_8  and  C_9
REMARK    5  A    between atoms: C_9  and  C_10
REMARK    6  A    between atoms: C_9  and  C_11
REMARK    7  A    between atoms: C_11  and  C_12
REMARK    8  A    between atoms: C_14  and  C_15
REMARK    9  A    between atoms: C_23  and  C_24
REMARK                            x       y       z     vdW  Elec       q    Type
REMARK                         _______ _______ _______ _____ _____    ______ ____
ROOT
ATOM      1  C   UNL     1       5.419   5.897  18.559  0.00  0.00    +0.000 C 
ATOM      2  C   UNL     1       6.852   5.396  18.760  0.00  0.00    +0.000 C 
ENDROOT
BRANCH   1   7
ATOM      3  C   UNL     1       2.692   3.575  19.281  0.00  0.00    +0.000 A 
ATOM      4  C   UNL     1       3.718   2.838  18.628  0.00  0.00    +0.000 A 
ATOM      5  C   UNL     1       3.749   1.412  18.212  0.00  0.00    +0.000 C 
ATOM      6  N   UNL     1       4.775   3.604  18.356  0.00  0.00    +0.000 NA
ATOM      7  N   UNL     1       4.437   4.833  18.768  0.00  0.00    +0.000 N 
ATOM      8  C   UNL     1       3.206   4.866  19.393  0.00  0.00    +0.000 A 
ATOM      9  C   UNL     1       2.626   6.053  20.077  0.00  0.00    +0.000 C 
BRANCH   3  11
ATOM     10  C   UNL     1       1.160   2.900  21.229  0.00  0.00    +0.000 C 
ATOM     11  C   UNL     1       1.408   3.052  19.750  0.00  0.00    +0.000 C 
ATOM     12  O   UNL     1       0.511   2.754  18.957  0.00  0.00    +0.000 OA
ENDBRANCH   3  11
ENDBRANCH   1   7
BRANCH   1  13
ATOM     13  C   UNL     1       5.231   6.682  17.249  0.00  0.00    +0.000 C 
BRANCH  13  14
ATOM     14  C   UNL     1       5.834   6.135  16.000  0.00  0.00    +0.000 A 
ATOM     15  N   UNL     1       5.254   5.509  14.994  0.00  0.00    +0.000 NA
ATOM     16  C   UNL     1       6.338   4.956  14.318  0.00  0.00    +0.000 A 
ATOM     17  N   UNL     1       7.523   5.262  14.873  0.00  0.00    +0.000 NA
ATOM     18  O   UNL     1       7.191   6.013  15.990  0.00  0.00    +0.000 OA
BRANCH  16  19
ATOM     19  C   UNL     1       6.204   4.035  13.186  0.00  0.00    +0.000 A 
ATOM     20  C   UNL     1       4.972   3.540  12.776  0.00  0.00    +0.000 A 
ATOM     21  C   UNL     1       4.935   2.592  11.752  0.00  0.00    +0.000 A 
ATOM     22  C   UNL     1       6.127   2.187  11.185  0.00  0.00    +0.000 A 
ATOM     23  N   UNL     1       7.312   2.687  11.581  0.00  0.00    +0.000 NA
ATOM     24  N   UNL     1       7.348   3.617  12.590  0.00  0.00    +0.000 NA
ENDBRANCH  16  19
ENDBRANCH  13  14
ENDBRANCH   1  13
TORSDOF 5
ENDMDL
MODEL 7
REMARK VINA RESULT:      -7.0      4.842      9.092
REMARK  Name = 
REMARK  9 active torsions:
REMARK  status: ('A' for Active; 'I' for Inactive)
REMARK    1  A    between atoms: C_1  and  C_2
REMARK    2  A    between atoms: C_2  and  C_4
REMARK    3  A    between atoms: C_5  and  C_6
REMARK    4  A    between atoms: N_8  and  C_9
REMARK    5  A    between atoms: C_9  and  C_10
REMARK    6  A    between atoms: C_9  and  C_11
REMARK    7  A    between atoms: C_11  and  C_12
REMARK    8  A    between atoms: C_14  and  C_15
REMARK    9  A    between atoms: C_23  and  C_24
REMARK                            x       y       z     vdW  Elec       q    Type
REMARK                         _______ _______ _______ _____ _____    ______ ____
ROOT
ATOM      1  C   UNL     1       2.772   5.395  18.741  0.00  0.00    +0.000 C 
ATOM      2  C   UNL     1       2.463   3.924  18.448  0.00  0.00    +0.000 C 
ENDROOT
BRANCH   1   7
ATOM      3  C   UNL     1       6.164   6.435  17.873  0.00  0.00    +0.000 A 
ATOM      4  C   UNL     1       6.256   5.589  19.012  0.00  0.00    +0.000 A 
ATOM      5  C   UNL     1       7.444   5.195  19.812  0.00  0.00    +0.000 C 
ATOM      6  N   UNL     1       5.059   5.132  19.381  0.00  0.00    +0.000 NA
ATOM      7  N   UNL     1       4.187   5.705  18.540  0.00  0.00    +0.000 N 
ATOM      8  C   UNL     1       4.805   6.460  17.564  0.00  0.00    +0.000 A 
ATOM      9  C   UNL     1       4.113   7.100  16.412  0.00  0.00    +0.000 C 
BRANCH   3  11
ATOM     10  C   UNL     1       7.802   8.406  17.692  0.00  0.00    +0.000 C 
ATOM     11  C   UNL     1       7.277   7.089  17.181  0.00  0.00    +0.000 C 
ATOM     12  O   UNL     1       7.811   6.568  16.198  0.00  0.00    +0.000 OA
ENDBRANCH   3  11
ENDBRANCH   1   7
BRANCH   1  13
ATOM     13  C   UNL     1       2.205   5.874  20.089  0.00  0.00    +0.000 C 
BRANCH  13  14
ATOM     14  C   UNL     1       1.926   7.329  20.266  0.00  0.00    +0.000 A 
ATOM     15  N   UNL     1       1.479   7.972  21.327  0.00  0.00    +0.000 NA
ATOM     16  C   UNL     1       1.105   9.204  20.797  0.00  0.00    +0.000 A 
ATOM     17  N   UNL     1       1.345   9.310  19.479  0.00  0.00    +0.000 NA
ATOM     18  O   UNL     1       1.860   8.072  19.127  0.00  0.00    +0.000 OA
BRANCH  16  19
ATOM     19  C   UNL     1       0.409  10.240  21.565  0.00  0.00    +0.000 A 
ATOM     20  C   UNL     1      -0.582   9.936  22.490  0.00  0.00    +0.000 A 
ATOM     21  C   UNL     1      -1.267  10.983  23.111  0.00  0.00    +0.000 A 
ATOM     22  C   UNL     1      -0.927  12.280  22.782  0.00  0.00    +0.000 A 
ATOM     23  N   UNL     1       0.047  12.559  21.897  0.00  0.00    +0.000 NA
ATOM     24  N   UNL     1       0.718  11.531  21.284  0.00  0.00    +0.000 NA
ENDBRANCH  16  19
ENDBRANCH  13  14
ENDBRANCH   1  13
TORSDOF 5
ENDMDL
MODEL 8
REMARK VINA RESULT:      -6.9      3.881      5.239
REMARK  Name = 
REMARK  9 active torsions:
REMARK  status: ('A' for Active; 'I' for Inactive)
REMARK    1  A    between atoms: C_1  and  C_2
REMARK    2  A    between atoms: C_2  and  C_4
REMARK    3  A    between atoms: C_5  and  C_6
REMARK    4  A    between atoms: N_8  and  C_9
REMARK    5  A    between atoms: C_9  and  C_10
REMARK    6  A    between atoms: C_9  and  C_11
REMARK    7  A    between atoms: C_11  and  C_12
REMARK    8  A    between atoms: C_14  and  C_15
REMARK    9  A    between atoms: C_23  and  C_24
REMARK                            x       y       z     vdW  Elec       q    Type
REMARK                         _______ _______ _______ _____ _____    ______ ____
ROOT
ATOM      1  C   UNL     1       2.514   6.531  19.737  0.00  0.00    +0.000 C 
ATOM      2  C   UNL     1       2.455   5.550  20.912  0.00  0.00    +0.000 C 
ENDROOT
BRANCH   1   7
ATOM      3  C   UNL     1       0.669   9.677  19.942  0.00  0.00    +0.000 A 
ATOM      4  C   UNL     1       0.481   8.992  21.173  0.00  0.00    +0.000 A 
ATOM      5  C   UNL     1      -0.342   9.363  22.353  0.00  0.00    +0.000 C 
ATOM      6  N   UNL     1       1.152   7.840  21.201  0.00  0.00    +0.000 NA
ATOM      7  N   UNL     1       1.727   7.737  19.995  0.00  0.00    +0.000 N 
ATOM      8  C   UNL     1       1.519   8.851  19.208  0.00  0.00    +0.000 A 
ATOM      9  C   UNL     1       2.146   9.088  17.879  0.00  0.00    +0.000 C 
BRANCH   3  11
ATOM     10  C   UNL     1      -0.948  11.060  18.502  0.00  0.00    +0.000 C 
ATOM     11  C   UNL     1       0.108  10.979  19.574  0.00  0.00    +0.000 C 
ATOM     12  O   UNL     1       0.468  12.013  20.144  0.00  0.00    +0.000 OA
ENDBRANCH   3  11
ENDBRANCH   1   7
BRANCH   1  13
ATOM     13  C   UNL     1       2.225   5.866  18.380  0.00  0.00    +0.000 C 
BRANCH  13  14
ATOM     14  C   UNL     1       3.356   5.226  17.647  0.00  0.00    +0.000 A 
ATOM     15  N   UNL     1       4.170   5.742  16.748  0.00  0.00    +0.000 NA
ATOM     16  C   UNL     1       4.766   4.612  16.196  0.00  0.00    +0.000 A 
ATOM     17  N   UNL     1       4.353   3.465  16.761  0.00  0.00    +0.000 NA
ATOM     18  O   UNL     1       3.410   3.866  17.695  0.00  0.00    +0.000 OA
BRANCH  16  19
ATOM     19  C   UNL     1       5.662   4.651  15.037  0.00  0.00    +0.000 A 
ATOM     20  C   UNL     1       5.473   3.837  13.927  0.00  0.00    +0.000 A 
ATOM     21  C   UNL     1       6.423   3.863  12.904  0.00  0.00    +0.000 A 
ATOM     22  C   UNL     1       7.513   4.700  13.038  0.00  0.00    +0.000 A 
ATOM     23  N   UNL     1       7.675   5.495  14.111  0.00  0.00    +0.000 NA
ATOM     24  N   UNL     1       6.742   5.468  15.118  0.00  0.00    +0.000 NA
ENDBRANCH  16  19
ENDBRANCH  13  14
ENDBRANCH   1  13
TORSDOF 5
ENDMDL
MODEL 9
REMARK VINA RESULT:      -6.8      5.429      8.919
REMARK  Name = 
REMARK  9 active torsions:
REMARK  status: ('A' for Active; 'I' for Inactive)
REMARK    1  A    between atoms: C_1  and  C_2
REMARK    2  A    between atoms: C_2  and  C_4
REMARK    3  A    between atoms: C_5  and  C_6
REMARK    4  A    between atoms: N_8  and  C_9
REMARK    5  A    between atoms: C_9  and  C_10
REMARK    6  A    between atoms: C_9  and  C_11
REMARK    7  A    between atoms: C_11  and  C_12
REMARK    8  A    between atoms: C_14  and  C_15
REMARK    9  A    between atoms: C_23  and  C_24
REMARK                            x       y       z     vdW  Elec       q    Type
REMARK                         _______ _______ _______ _____ _____    ______ ____
ROOT
ATOM      1  C   UNL     1       3.265   7.107  18.155  0.00  0.00    +0.000 C 
ATOM      2  C   UNL     1       4.500   7.082  17.248  0.00  0.00    +0.000 C 
ENDROOT
BRANCH   1   7
ATOM      3  C   UNL     1       1.861   3.933  19.293  0.00  0.00    +0.000 A 
ATOM      4  C   UNL     1       2.552   3.681  18.077  0.00  0.00    +0.000 A 
ATOM      5  C   UNL     1       2.683   2.422  17.298  0.00  0.00    +0.000 C 
ATOM      6  N   UNL     1       3.130   4.785  17.604  0.00  0.00    +0.000 NA
ATOM      7  N   UNL     1       2.784   5.759  18.457  0.00  0.00    +0.000 N 
ATOM      8  C   UNL     1       2.062   5.290  19.536  0.00  0.00    +0.000 A 
ATOM      9  C   UNL     1       1.660   6.106  20.714  0.00  0.00    +0.000 C 
BRANCH   3  11
ATOM     10  C   UNL     1       1.616   2.641  21.500  0.00  0.00    +0.000 C 
ATOM     11  C   UNL     1       1.139   2.950  20.104  0.00  0.00    +0.000 C 
ATOM     12  O   UNL     1       0.129   2.386  19.674  0.00  0.00    +0.000 OA
ENDBRANCH   3  11
ENDBRANCH   1   7
BRANCH   1  13
ATOM     13  C   UNL     1       2.173   8.073  17.662  0.00  0.00    +0.000 C 
BRANCH  13  14
ATOM     14  C   UNL     1       1.782   9.212  18.542  0.00  0.00    +0.000 A 
ATOM     15  N   UNL     1       1.025   9.214  19.622  0.00  0.00    +0.000 NA
ATOM     16  C   UNL     1       0.751  10.568  19.795  0.00  0.00    +0.000 A 
ATOM     17  N   UNL     1       1.343  11.351  18.878  0.00  0.00    +0.000 NA
ATOM     18  O   UNL     1       1.998  10.460  18.042  0.00  0.00    +0.000 OA
BRANCH  16  19
ATOM     19  C   UNL     1      -0.184  11.084  20.799  0.00  0.00    +0.000 A 
ATOM     20  C   UNL     1      -0.172  10.646  22.117  0.00  0.00    +0.000 A 
ATOM     21  C   UNL     1      -1.155  11.113  22.990  0.00  0.00    +0.000 A 
ATOM     22  C   UNL     1      -2.100  11.997  22.508  0.00  0.00    +0.000 A 
ATOM     23  N   UNL     1      -2.090  12.425  21.232  0.00  0.00    +0.000 NA
ATOM     24  N   UNL     1      -1.125  11.964  20.373  0.00  0.00    +0.000 NA
ENDBRANCH  16  19
ENDBRANCH  13  14
ENDBRANCH   1  13
TORSDOF 5
ENDMDL
