MODEL 1
REMARK VINA RESULT:      -6.2      0.000      0.000
REMARK  Name = 
REMARK  15 active torsions:
REMARK  status: ('A' for Active; 'I' for Inactive)
REMARK    1  A    between atoms: C_1  and  C_2
REMARK    2  A    between atoms: C_5  and  C_6
REMARK    3  A    between atoms: C_7  and  C_8
REMARK    4  A    between atoms: C_8  and  N_9
REMARK    5  A    between atoms: C_10  and  C_11
REMARK    6  A    between atoms: C_11  and  C_12
REMARK    7  A    between atoms: C_12  and  C_13
REMARK    8  A    between atoms: C_12  and  C_14
REMARK    9  A    between atoms: C_19  and  O_20
REMARK   10  A    between atoms: O_20  and  C_21
REMARK   11  A    between atoms: C_21  and  C_22
REMARK   12  A    between atoms: C_22  and  C_23
REMARK   13  A    between atoms: C_23  and  C_24
REMARK   14  A    between atoms: C_24  and  C_25
REMARK   15  A    between atoms: C_25  and  O_27
REMARK                            x       y       z     vdW  Elec       q    Type
REMARK                         _______ _______ _______ _____ _____    ______ ____
ROOT
ATOM      1  C   UNL     1      -1.342  11.642  19.879  0.00  0.00    +0.000 A 
ATOM      2  C   UNL     1       0.006  11.164  19.784  0.00  0.00    +0.000 A 
ATOM      3  C   UNL     1       0.333  10.358  18.672  0.00  0.00    +0.000 A 
ATOM      4  N   UNL     1      -0.538  10.102  17.666  0.00  0.00    +0.000 NA
ATOM      5  C   UNL     1      -1.774  10.596  17.710  0.00  0.00    +0.000 A 
ATOM      6  C   UNL     1      -2.588  10.339  16.614  0.00  0.00    +0.000 A 
ATOM      7  C   UNL     1      -3.903  10.804  16.529  0.00  0.00    +0.000 A 
ATOM      8  C   UNL     1      -4.430  11.510  17.593  0.00  0.00    +0.000 A 
ATOM      9  C   UNL     1      -3.624  11.752  18.709  0.00  0.00    +0.000 A 
ATOM     10  C   UNL     1      -2.259  11.350  18.794  0.00  0.00    +0.000 A 
ENDROOT
BRANCH   1  15
ATOM     11  C   UNL     1      -3.377  14.836  24.347  0.00  0.00    +0.000 C 
ATOM     12  C   UNL     1      -2.816  14.009  23.231  0.00  0.00    +0.000 A 
ATOM     13  C   UNL     1      -2.728  12.622  23.331  0.00  0.00    +0.000 A 
ATOM     14  C   UNL     1      -2.293  11.861  22.237  0.00  0.00    +0.000 A 
ATOM     15  C   UNL     1      -1.820  12.458  21.051  0.00  0.00    +0.000 A 
ATOM     16  C   UNL     1      -1.845  13.863  21.011  0.00  0.00    +0.000 A 
ATOM     17  C   UNL     1      -2.396  14.621  22.051  0.00  0.00    +0.000 A 
ENDBRANCH   1  15
BRANCH   2  18
ATOM     18  C   UNL     1       1.084  11.383  20.837  0.00  0.00    +0.000 C 
BRANCH  18  19
ATOM     19  N   UNL     1       1.717  12.688  20.884  0.00  0.00    +0.000 NA
ATOM     20  H   UNL     1       2.122  12.925  19.979  0.00  0.00    +0.000 HD
ATOM     21  H   UNL     1       2.463  12.693  21.574  0.00  0.00    +0.000 HD
ENDBRANCH  18  19
ENDBRANCH   2  18
BRANCH   3  22
ATOM     22  C   UNL     1       1.698   9.747  18.418  0.00  0.00    +0.000 C 
BRANCH  22  23
ATOM     23  C   UNL     1       1.841   8.212  18.520  0.00  0.00    +0.000 C 
ATOM     24  C   UNL     1       3.078   7.676  17.800  0.00  0.00    +0.000 C 
ATOM     25  C   UNL     1       1.876   7.810  19.998  0.00  0.00    +0.000 C 
ENDBRANCH  22  23
ENDBRANCH   3  22
BRANCH   8  26
ATOM     26  O   UNL     1      -5.671  12.073  17.645  0.00  0.00    +0.000 OA
BRANCH  26  27
ATOM     27  C   UNL     1      -6.719  11.261  18.171  0.00  0.00    +0.000 C 
BRANCH  27  28
ATOM     28  C   UNL     1      -7.355  12.008  19.347  0.00  0.00    +0.000 C 
BRANCH  28  29
ATOM     29  C   UNL     1      -6.778  11.536  20.686  0.00  0.00    +0.000 C 
BRANCH  29  30
ATOM     30  C   UNL     1      -6.011  12.637  21.409  0.00  0.00    +0.000 C 
BRANCH  30  31
ATOM     31  C   UNL     1      -6.570  12.878  22.798  0.00  0.00    +0.000 C 
ATOM     32  O   UNL     1      -6.531  13.929  23.405  0.00  0.00    +0.000 OA
BRANCH  31  33
ATOM     33  O   UNL     1      -7.160  11.763  23.315  0.00  0.00    +0.000 OA
ATOM     34  H   UNL     1      -6.891  11.579  24.230  0.00  0.00    +0.000 HD
ENDBRANCH  31  33
ENDBRANCH  30  31
ENDBRANCH  29  30
ENDBRANCH  28  29
ENDBRANCH  27  28
ENDBRANCH  26  27
ENDBRANCH   8  26
TORSDOF 12
ENDMDL
MODEL 2
REMARK VINA RESULT:      -6.2      6.908     11.356
REMARK  Name = 
REMARK  15 active torsions:
REMARK  status: ('A' for Active; 'I' for Inactive)
REMARK    1  A    between atoms: C_1  and  C_2
REMARK    2  A    between atoms: C_5  and  C_6
REMARK    3  A    between atoms: C_7  and  C_8
REMARK    4  A    between atoms: C_8  and  N_9
REMARK    5  A    between atoms: C_10  and  C_11
REMARK    6  A    between atoms: C_11  and  C_12
REMARK    7  A    between atoms: C_12  and  C_13
REMARK    8  A    between atoms: C_12  and  C_14
REMARK    9  A    between atoms: C_19  and  O_20
REMARK   10  A    between atoms: O_20  and  C_21
REMARK   11  A    between atoms: C_21  and  C_22
REMARK   12  A    between atoms: C_22  and  C_23
REMARK   13  A    between atoms: C_23  and  C_24
REMARK   14  A    between atoms: C_24  and  C_25
REMARK   15  A    between atoms: C_25  and  O_27
REMARK                            x       y       z     vdW  Elec       q    Type
REMARK                         _______ _______ _______ _____ _____    ______ ____
ROOT
ATOM      1  C   UNL     1       3.628   6.195  18.069  0.00  0.00    +0.000 A 
ATOM      2  C   UNL     1       3.124   4.853  18.022  0.00  0.00    +0.000 A 
ATOM      3  C   UNL     1       4.009   3.842  17.591  0.00  0.00    +0.000 A 
ATOM      4  N   UNL     1       5.314   4.073  17.315  0.00  0.00    +0.000 NA
ATOM      5  C   UNL     1       5.812   5.304  17.419  0.00  0.00    +0.000 A 
ATOM      6  C   UNL     1       7.172   5.450  17.176  0.00  0.00    +0.000 A 
ATOM      7  C   UNL     1       7.822   6.684  17.259  0.00  0.00    +0.000 A 
ATOM      8  C   UNL     1       7.077   7.811  17.550  0.00  0.00    +0.000 A 
ATOM      9  C   UNL     1       5.704   7.675  17.772  0.00  0.00    +0.000 A 
ATOM     10  C   UNL     1       5.028   6.419  17.762  0.00  0.00    +0.000 A 
ENDROOT
BRANCH   1  15
ATOM     11  C   UNL     1       0.402  10.816  19.660  0.00  0.00    +0.000 C 
ATOM     12  C   UNL     1       1.189   9.619  19.225  0.00  0.00    +0.000 A 
ATOM     13  C   UNL     1       1.680   9.507  17.925  0.00  0.00    +0.000 A 
ATOM     14  C   UNL     1       2.498   8.426  17.568  0.00  0.00    +0.000 A 
ATOM     15  C   UNL     1       2.759   7.362  18.454  0.00  0.00    +0.000 A 
ATOM     16  C   UNL     1       2.182   7.463  19.732  0.00  0.00    +0.000 A 
ATOM     17  C   UNL     1       1.471   8.600  20.134  0.00  0.00    +0.000 A 
ENDBRANCH   1  15
BRANCH   2  18
ATOM     18  C   UNL     1       1.683   4.453  18.312  0.00  0.00    +0.000 C 
BRANCH  18  19
ATOM     19  N   UNL     1       0.804   4.253  17.176  0.00  0.00    +0.000 NA
ATOM     20  H   UNL     1       1.036   3.389  16.688  0.00  0.00    +0.000 HD
ATOM     21  H   UNL     1       0.897   5.022  16.518  0.00  0.00    +0.000 HD
ENDBRANCH  18  19
ENDBRANCH   2  18
BRANCH   3  22
ATOM     22  C   UNL     1       3.646   2.374  17.456  0.00  0.00    +0.000 C 
BRANCH  22  23
ATOM     23  C   UNL     1       3.513   1.534  18.746  0.00  0.00    +0.000 C 
ATOM     24  C   UNL     1       4.361   2.067  19.900  0.00  0.00    +0.000 C 
ATOM     25  C   UNL     1       2.038   1.480  19.158  0.00  0.00    +0.000 C 
ENDBRANCH  22  23
ENDBRANCH   3  22
BRANCH   8  26
ATOM     26  O   UNL     1       7.565   9.074  17.716  0.00  0.00    +0.000 OA
BRANCH  26  27
ATOM     27  C   UNL     1       8.706   9.211  18.561  0.00  0.00    +0.000 C 
BRANCH  27  28
ATOM     28  C   UNL     1       8.953  10.706  18.787  0.00  0.00    +0.000 C 
BRANCH  28  29
ATOM     29  C   UNL     1      10.043  11.239  17.851  0.00  0.00    +0.000 C 
BRANCH  29  30
ATOM     30  C   UNL     1       9.781  12.676  17.413  0.00  0.00    +0.000 C 
BRANCH  30  31
ATOM     31  C   UNL     1      11.078  13.443  17.238  0.00  0.00    +0.000 C 
ATOM     32  O   UNL     1      11.902  13.650  18.106  0.00  0.00    +0.000 OA
BRANCH  31  33
ATOM     33  O   UNL     1      11.247  13.883  15.958  0.00  0.00    +0.000 OA
ATOM     34  H   UNL     1      10.449  14.296  15.590  0.00  0.00    +0.000 HD
ENDBRANCH  31  33
ENDBRANCH  30  31
ENDBRANCH  29  30
ENDBRANCH  28  29
ENDBRANCH  27  28
ENDBRANCH  26  27
ENDBRANCH   8  26
TORSDOF 12
ENDMDL
MODEL 3
REMARK VINA RESULT:      -6.2      6.695     11.128
REMARK  Name = 
REMARK  15 active torsions:
REMARK  status: ('A' for Active; 'I' for Inactive)
REMARK    1  A    between atoms: C_1  and  C_2
REMARK    2  A    between atoms: C_5  and  C_6
REMARK    3  A    between atoms: C_7  and  C_8
REMARK    4  A    between atoms: C_8  and  N_9
REMARK    5  A    between atoms: C_10  and  C_11
REMARK    6  A    between atoms: C_11  and  C_12
REMARK    7  A    between atoms: C_12  and  C_13
REMARK    8  A    between atoms: C_12  and  C_14
REMARK    9  A    between atoms: C_19  and  O_20
REMARK   10  A    between atoms: O_20  and  C_21
REMARK   11  A    between atoms: C_21  and  C_22
REMARK   12  A    between atoms: C_22  and  C_23
REMARK   13  A    between atoms: C_23  and  C_24
REMARK   14  A    between atoms: C_24  and  C_25
REMARK   15  A    between atoms: C_25  and  O_27
REMARK                            x       y       z     vdW  Elec       q    Type
REMARK                         _______ _______ _______ _____ _____    ______ ____
ROOT
ATOM      1  C   UNL     1       3.427   6.154  18.046  0.00  0.00    +0.000 A 
ATOM      2  C   UNL     1       2.861   4.837  18.050  0.00  0.00    +0.000 A 
ATOM      3  C   UNL     1       3.670   3.781  17.579  0.00  0.00    +0.000 A 
ATOM      4  N   UNL     1       4.964   3.948  17.219  0.00  0.00    +0.000 NA
ATOM      5  C   UNL     1       5.523   5.156  17.274  0.00  0.00    +0.000 A 
ATOM      6  C   UNL     1       6.870   5.236  16.944  0.00  0.00    +0.000 A 
ATOM      7  C   UNL     1       7.579   6.440  16.967  0.00  0.00    +0.000 A 
ATOM      8  C   UNL     1       6.907   7.603  17.287  0.00  0.00    +0.000 A 
ATOM      9  C   UNL     1       5.545   7.533  17.597  0.00  0.00    +0.000 A 
ATOM     10  C   UNL     1       4.814   6.310  17.649  0.00  0.00    +0.000 A 
ENDROOT
BRANCH   1  15
ATOM     11  C   UNL     1       0.194  10.780  19.611  0.00  0.00    +0.000 C 
ATOM     12  C   UNL     1       1.059   9.617  19.235  0.00  0.00    +0.000 A 
ATOM     13  C   UNL     1       1.453   8.672  20.180  0.00  0.00    +0.000 A 
ATOM     14  C   UNL     1       2.179   7.539  19.788  0.00  0.00    +0.000 A 
ATOM     15  C   UNL     1       2.638   7.365  18.467  0.00  0.00    +0.000 A 
ATOM     16  C   UNL     1       2.294   8.376  17.553  0.00  0.00    +0.000 A 
ATOM     17  C   UNL     1       1.463   9.444  17.911  0.00  0.00    +0.000 A 
ENDBRANCH   1  15
BRANCH   2  18
ATOM     18  C   UNL     1       1.425   4.508  18.436  0.00  0.00    +0.000 C 
BRANCH  18  19
ATOM     19  N   UNL     1       1.138   4.322  19.846  0.00  0.00    +0.000 NA
ATOM     20  H   UNL     1       1.830   3.711  20.277  0.00  0.00    +0.000 HD
ATOM     21  H   UNL     1       0.222   3.897  19.966  0.00  0.00    +0.000 HD
ENDBRANCH  18  19
ENDBRANCH   2  18
BRANCH   3  22
ATOM     22  C   UNL     1       3.232   2.330  17.490  0.00  0.00    +0.000 C 
BRANCH  22  23
ATOM     23  C   UNL     1       3.381   1.444  18.747  0.00  0.00    +0.000 C 
ATOM     24  C   UNL     1       4.349   2.022  19.778  0.00  0.00    +0.000 C 
ATOM     25  C   UNL     1       2.000   1.238  19.379  0.00  0.00    +0.000 C 
ENDBRANCH  22  23
ENDBRANCH   3  22
BRANCH   8  26
ATOM     26  O   UNL     1       7.461   8.844  17.404  0.00  0.00    +0.000 OA
BRANCH  26  27
ATOM     27  C   UNL     1       8.545   8.975  18.322  0.00  0.00    +0.000 C 
BRANCH  27  28
ATOM     28  C   UNL     1       8.769  10.468  18.582  0.00  0.00    +0.000 C 
BRANCH  28  29
ATOM     29  C   UNL     1      10.115  10.937  18.018  0.00  0.00    +0.000 C 
BRANCH  29  30
ATOM     30  C   UNL     1      10.493  12.332  18.501  0.00  0.00    +0.000 C 
BRANCH  30  31
ATOM     31  C   UNL     1      10.491  13.330  17.358  0.00  0.00    +0.000 C 
ATOM     32  O   UNL     1      11.292  13.364  16.445  0.00  0.00    +0.000 OA
BRANCH  31  33
ATOM     33  O   UNL     1       9.455  14.211  17.446  0.00  0.00    +0.000 OA
ATOM     34  H   UNL     1       9.027  14.209  18.318  0.00  0.00    +0.000 HD
ENDBRANCH  31  33
ENDBRANCH  30  31
ENDBRANCH  29  30
ENDBRANCH  28  29
ENDBRANCH  27  28
ENDBRANCH  26  27
ENDBRANCH   8  26
TORSDOF 12
ENDMDL
MODEL 4
REMARK VINA RESULT:      -6.1      6.608     10.808
REMARK  Name = 
REMARK  15 active torsions:
REMARK  status: ('A' for Active; 'I' for Inactive)
REMARK    1  A    between atoms: C_1  and  C_2
REMARK    2  A    between atoms: C_5  and  C_6
REMARK    3  A    between atoms: C_7  and  C_8
REMARK    4  A    between atoms: C_8  and  N_9
REMARK    5  A    between atoms: C_10  and  C_11
REMARK    6  A    between atoms: C_11  and  C_12
REMARK    7  A    between atoms: C_12  and  C_13
REMARK    8  A    between atoms: C_12  and  C_14
REMARK    9  A    between atoms: C_19  and  O_20
REMARK   10  A    between atoms: O_20  and  C_21
REMARK   11  A    between atoms: C_21  and  C_22
REMARK   12  A    between atoms: C_22  and  C_23
REMARK   13  A    between atoms: C_23  and  C_24
REMARK   14  A    between atoms: C_24  and  C_25
REMARK   15  A    between atoms: C_25  and  O_27
REMARK                            x       y       z     vdW  Elec       q    Type
REMARK                         _______ _______ _______ _____ _____    ______ ____
ROOT
ATOM      1  C   UNL     1       3.470   6.242  18.051  0.00  0.00    +0.000 A 
ATOM      2  C   UNL     1       2.949   4.906  18.009  0.00  0.00    +0.000 A 
ATOM      3  C   UNL     1       3.812   3.887  17.552  0.00  0.00    +0.000 A 
ATOM      4  N   UNL     1       5.112   4.105  17.246  0.00  0.00    +0.000 NA
ATOM      5  C   UNL     1       5.627   5.330  17.344  0.00  0.00    +0.000 A 
ATOM      6  C   UNL     1       6.982   5.461  17.069  0.00  0.00    +0.000 A 
ATOM      7  C   UNL     1       7.648   6.687  17.141  0.00  0.00    +0.000 A 
ATOM      8  C   UNL     1       6.924   7.820  17.456  0.00  0.00    +0.000 A 
ATOM      9  C   UNL     1       5.555   7.699  17.711  0.00  0.00    +0.000 A 
ATOM     10  C   UNL     1       4.864   6.452  17.711  0.00  0.00    +0.000 A 
ENDROOT
BRANCH   1  15
ATOM     11  C   UNL     1       0.019  10.721  19.578  0.00  0.00    +0.000 C 
ATOM     12  C   UNL     1       0.939   9.597  19.212  0.00  0.00    +0.000 A 
ATOM     13  C   UNL     1       1.382   8.683  20.166  0.00  0.00    +0.000 A 
ATOM     14  C   UNL     1       2.161   7.583  19.783  0.00  0.00    +0.000 A 
ATOM     15  C   UNL     1       2.624   7.417  18.462  0.00  0.00    +0.000 A 
ATOM     16  C   UNL     1       2.227   8.400  17.538  0.00  0.00    +0.000 A 
ATOM     17  C   UNL     1       1.346   9.430  17.888  0.00  0.00    +0.000 A 
ENDBRANCH   1  15
BRANCH   2  18
ATOM     18  C   UNL     1       1.511   4.522  18.332  0.00  0.00    +0.000 C 
BRANCH  18  19
ATOM     19  N   UNL     1       1.174   4.306  19.727  0.00  0.00    +0.000 NA
ATOM     20  H   UNL     1       1.164   3.310  19.945  0.00  0.00    +0.000 HD
ATOM     21  H   UNL     1       0.253   4.684  19.929  0.00  0.00    +0.000 HD
ENDBRANCH  18  19
ENDBRANCH   2  18
BRANCH   3  22
ATOM     22  C   UNL     1       3.428   2.424  17.419  0.00  0.00    +0.000 C 
BRANCH  22  23
ATOM     23  C   UNL     1       3.518   1.529  18.675  0.00  0.00    +0.000 C 
ATOM     24  C   UNL     1       4.356   2.148  19.794  0.00  0.00    +0.000 C 
ATOM     25  C   UNL     1       2.102   1.232  19.181  0.00  0.00    +0.000 C 
ENDBRANCH  22  23
ENDBRANCH   3  22
BRANCH   8  26
ATOM     26  O   UNL     1       7.431   9.077  17.616  0.00  0.00    +0.000 OA
BRANCH  26  27
ATOM     27  C   UNL     1       8.598   9.196  18.427  0.00  0.00    +0.000 C 
BRANCH  27  28
ATOM     28  C   UNL     1       9.209  10.578  18.181  0.00  0.00    +0.000 C 
BRANCH  28  29
ATOM     29  C   UNL     1      10.152  10.982  19.319  0.00  0.00    +0.000 C 
BRANCH  29  30
ATOM     30  C   UNL     1       9.463  10.965  20.679  0.00  0.00    +0.000 C 
BRANCH  30  31
ATOM     31  C   UNL     1       9.728  12.245  21.448  0.00  0.00    +0.000 C 
ATOM     32  O   UNL     1      10.327  13.214  21.026  0.00  0.00    +0.000 OA
BRANCH  31  33
ATOM     33  O   UNL     1       9.196  12.211  22.703  0.00  0.00    +0.000 OA
ATOM     34  H   UNL     1       9.687  12.756  23.340  0.00  0.00    +0.000 HD
ENDBRANCH  31  33
ENDBRANCH  30  31
ENDBRANCH  29  30
ENDBRANCH  28  29
ENDBRANCH  27  28
ENDBRANCH  26  27
ENDBRANCH   8  26
TORSDOF 12
ENDMDL
MODEL 5
REMARK VINA RESULT:      -5.9      6.964     11.277
REMARK  Name = 
REMARK  15 active torsions:
REMARK  status: ('A' for Active; 'I' for Inactive)
REMARK    1  A    between atoms: C_1  and  C_2
REMARK    2  A    between atoms: C_5  and  C_6
REMARK    3  A    between atoms: C_7  and  C_8
REMARK    4  A    between atoms: C_8  and  N_9
REMARK    5  A    between atoms: C_10  and  C_11
REMARK    6  A    between atoms: C_11  and  C_12
REMARK    7  A    between atoms: C_12  and  C_13
REMARK    8  A    between atoms: C_12  and  C_14
REMARK    9  A    between atoms: C_19  and  O_20
REMARK   10  A    between atoms: O_20  and  C_21
REMARK   11  A    between atoms: C_21  and  C_22
REMARK   12  A    between atoms: C_22  and  C_23
REMARK   13  A    between atoms: C_23  and  C_24
REMARK   14  A    between atoms: C_24  and  C_25
REMARK   15  A    between atoms: C_25  and  O_27
REMARK                            x       y       z     vdW  Elec       q    Type
REMARK                         _______ _______ _______ _____ _____    ______ ____
ROOT
ATOM      1  C   UNL     1       3.269   6.091  18.181  0.00  0.00    +0.000 A 
ATOM      2  C   UNL     1       2.685   4.787  18.292  0.00  0.00    +0.000 A 
ATOM      3  C   UNL     1       3.470   3.687  17.883  0.00  0.00    +0.000 A 
ATOM      4  N   UNL     1       4.759   3.808  17.486  0.00  0.00    +0.000 NA
ATOM      5  C   UNL     1       5.335   5.008  17.442  0.00  0.00    +0.000 A 
ATOM      6  C   UNL     1       6.676   5.044  17.080  0.00  0.00    +0.000 A 
ATOM      7  C   UNL     1       7.401   6.235  17.001  0.00  0.00    +0.000 A 
ATOM      8  C   UNL     1       6.752   7.428  17.250  0.00  0.00    +0.000 A 
ATOM      9  C   UNL     1       5.396   7.402  17.591  0.00  0.00    +0.000 A 
ATOM     10  C   UNL     1       4.649   6.197  17.746  0.00  0.00    +0.000 A 
ENDROOT
BRANCH   1  15
ATOM     11  C   UNL     1       0.467  11.035  19.599  0.00  0.00    +0.000 C 
ATOM     12  C   UNL     1       1.143   9.755  19.214  0.00  0.00    +0.000 A 
ATOM     13  C   UNL     1       1.475   9.480  17.889  0.00  0.00    +0.000 A 
ATOM     14  C   UNL     1       2.195   8.322  17.565  0.00  0.00    +0.000 A 
ATOM     15  C   UNL     1       2.506   7.341  18.528  0.00  0.00    +0.000 A 
ATOM     16  C   UNL     1       2.086   7.608  19.843  0.00  0.00    +0.000 A 
ATOM     17  C   UNL     1       1.479   8.820  20.193  0.00  0.00    +0.000 A 
ENDBRANCH   1  15
BRANCH   2  18
ATOM     18  C   UNL     1       1.253   4.508  18.729  0.00  0.00    +0.000 C 
BRANCH  18  19
ATOM     19  N   UNL     1       1.015   4.303  20.145  0.00  0.00    +0.000 NA
ATOM     20  H   UNL     1       0.379   3.521  20.294  0.00  0.00    +0.000 HD
ATOM     21  H   UNL     1       0.596   5.133  20.556  0.00  0.00    +0.000 HD
ENDBRANCH  18  19
ENDBRANCH   2  18
BRANCH   3  22
ATOM     22  C   UNL     1       3.011   2.240  17.908  0.00  0.00    +0.000 C 
BRANCH  22  23
ATOM     23  C   UNL     1       3.405   1.370  19.122  0.00  0.00    +0.000 C 
ATOM     24  C   UNL     1       4.576   0.432  18.833  0.00  0.00    +0.000 C 
ATOM     25  C   UNL     1       3.744   2.285  20.304  0.00  0.00    +0.000 C 
ENDBRANCH  22  23
ENDBRANCH   3  22
BRANCH   8  26
ATOM     26  O   UNL     1       7.325   8.666  17.265  0.00  0.00    +0.000 OA
BRANCH  26  27
ATOM     27  C   UNL     1       8.343   8.886  18.239  0.00  0.00    +0.000 C 
BRANCH  27  28
ATOM     28  C   UNL     1       8.731  10.367  18.195  0.00  0.00    +0.000 C 
BRANCH  28  29
ATOM     29  C   UNL     1      10.036  10.625  18.958  0.00  0.00    +0.000 C 
BRANCH  29  30
ATOM     30  C   UNL     1      10.332  12.112  19.117  0.00  0.00    +0.000 C 
BRANCH  30  31
ATOM     31  C   UNL     1      11.550  12.520  18.309  0.00  0.00    +0.000 C 
ATOM     32  O   UNL     1      12.067  13.618  18.313  0.00  0.00    +0.000 OA
BRANCH  31  33
ATOM     33  O   UNL     1      12.038  11.491  17.560  0.00  0.00    +0.000 OA
ATOM     34  H   UNL     1      12.997  11.369  17.659  0.00  0.00    +0.000 HD
ENDBRANCH  31  33
ENDBRANCH  30  31
ENDBRANCH  29  30
ENDBRANCH  28  29
ENDBRANCH  27  28
ENDBRANCH  26  27
ENDBRANCH   8  26
TORSDOF 12
ENDMDL
MODEL 6
REMARK VINA RESULT:      -5.9      6.937     11.306
REMARK  Name = 
REMARK  15 active torsions:
REMARK  status: ('A' for Active; 'I' for Inactive)
REMARK    1  A    between atoms: C_1  and  C_2
REMARK    2  A    between atoms: C_5  and  C_6
REMARK    3  A    between atoms: C_7  and  C_8
REMARK    4  A    between atoms: C_8  and  N_9
REMARK    5  A    between atoms: C_10  and  C_11
REMARK    6  A    between atoms: C_11  and  C_12
REMARK    7  A    between atoms: C_12  and  C_13
REMARK    8  A    between atoms: C_12  and  C_14
REMARK    9  A    between atoms: C_19  and  O_20
REMARK   10  A    between atoms: O_20  and  C_21
REMARK   11  A    between atoms: C_21  and  C_22
REMARK   12  A    between atoms: C_22  and  C_23
REMARK   13  A    between atoms: C_23  and  C_24
REMARK   14  A    between atoms: C_24  and  C_25
REMARK   15  A    between atoms: C_25  and  O_27
REMARK                            x       y       z     vdW  Elec       q    Type
REMARK                         _______ _______ _______ _____ _____    ______ ____
ROOT
ATOM      1  C   UNL     1       3.571   6.137  18.801  0.00  0.00    +0.000 A 
ATOM      2  C   UNL     1       3.068   4.868  19.239  0.00  0.00    +0.000 A 
ATOM      3  C   UNL     1       3.928   3.754  19.126  0.00  0.00    +0.000 A 
ATOM      4  N   UNL     1       5.214   3.855  18.715  0.00  0.00    +0.000 NA
ATOM      5  C   UNL     1       5.715   5.040  18.368  0.00  0.00    +0.000 A 
ATOM      6  C   UNL     1       7.058   5.071  18.013  0.00  0.00    +0.000 A 
ATOM      7  C   UNL     1       7.708   6.248  17.636  0.00  0.00    +0.000 A 
ATOM      8  C   UNL     1       6.980   7.420  17.571  0.00  0.00    +0.000 A 
ATOM      9  C   UNL     1       5.623   7.392  17.903  0.00  0.00    +0.000 A 
ATOM     10  C   UNL     1       4.950   6.219  18.357  0.00  0.00    +0.000 A 
ENDROOT
BRANCH   1  15
ATOM     11  C   UNL     1       0.127  10.874  18.780  0.00  0.00    +0.000 C 
ATOM     12  C   UNL     1       1.041   9.688  18.812  0.00  0.00    +0.000 A 
ATOM     13  C   UNL     1       1.262   8.974  19.988  0.00  0.00    +0.000 A 
ATOM     14  C   UNL     1       2.042   7.810  19.973  0.00  0.00    +0.000 A 
ATOM     15  C   UNL     1       2.724   7.381  18.817  0.00  0.00    +0.000 A 
ATOM     16  C   UNL     1       2.547   8.168  17.665  0.00  0.00    +0.000 A 
ATOM     17  C   UNL     1       1.669   9.258  17.643  0.00  0.00    +0.000 A 
ENDBRANCH   1  15
BRANCH   2  18
ATOM     18  C   UNL     1       1.648   4.616  19.728  0.00  0.00    +0.000 C 
BRANCH  18  19
ATOM     19  N   UNL     1       1.455   4.434  21.155  0.00  0.00    +0.000 NA
ATOM     20  H   UNL     1       1.901   3.574  21.472  0.00  0.00    +0.000 HD
ATOM     21  H   UNL     1       0.464   4.374  21.372  0.00  0.00    +0.000 HD
ENDBRANCH  18  19
ENDBRANCH   2  18
BRANCH   3  22
ATOM     22  C   UNL     1       3.560   2.334  19.517  0.00  0.00    +0.000 C 
BRANCH  22  23
ATOM     23  C   UNL     1       2.663   1.522  18.557  0.00  0.00    +0.000 C 
ATOM     24  C   UNL     1       1.181   1.583  18.924  0.00  0.00    +0.000 C 
ATOM     25  C   UNL     1       2.873   2.031  17.126  0.00  0.00    +0.000 C 
ENDBRANCH  22  23
ENDBRANCH   3  22
BRANCH   8  26
ATOM     26  O   UNL     1       7.474   8.656  17.272  0.00  0.00    +0.000 OA
BRANCH  26  27
ATOM     27  C   UNL     1       8.501   9.156  18.126  0.00  0.00    +0.000 C 
BRANCH  27  28
ATOM     28  C   UNL     1       8.407  10.685  18.137  0.00  0.00    +0.000 C 
BRANCH  28  29
ATOM     29  C   UNL     1       9.797  11.329  18.152  0.00  0.00    +0.000 C 
BRANCH  29  30
ATOM     30  C   UNL     1       9.812  12.696  17.475  0.00  0.00    +0.000 C 
BRANCH  30  31
ATOM     31  C   UNL     1      11.214  13.084  17.048  0.00  0.00    +0.000 C 
ATOM     32  O   UNL     1      12.243  12.728  17.586  0.00  0.00    +0.000 OA
BRANCH  31  33
ATOM     33  O   UNL     1      11.212  13.890  15.949  0.00  0.00    +0.000 OA
ATOM     34  H   UNL     1      11.029  13.410  15.125  0.00  0.00    +0.000 HD
ENDBRANCH  31  33
ENDBRANCH  30  31
ENDBRANCH  29  30
ENDBRANCH  28  29
ENDBRANCH  27  28
ENDBRANCH  26  27
ENDBRANCH   8  26
TORSDOF 12
ENDMDL
MODEL 7
REMARK VINA RESULT:      -5.8      4.458      8.267
REMARK  Name = 
REMARK  15 active torsions:
REMARK  status: ('A' for Active; 'I' for Inactive)
REMARK    1  A    between atoms: C_1  and  C_2
REMARK    2  A    between atoms: C_5  and  C_6
REMARK    3  A    between atoms: C_7  and  C_8
REMARK    4  A    between atoms: C_8  and  N_9
REMARK    5  A    between atoms: C_10  and  C_11
REMARK    6  A    between atoms: C_11  and  C_12
REMARK    7  A    between atoms: C_12  and  C_13
REMARK    8  A    between atoms: C_12  and  C_14
REMARK    9  A    between atoms: C_19  and  O_20
REMARK   10  A    between atoms: O_20  and  C_21
REMARK   11  A    between atoms: C_21  and  C_22
REMARK   12  A    between atoms: C_22  and  C_23
REMARK   13  A    between atoms: C_23  and  C_24
REMARK   14  A    between atoms: C_24  and  C_25
REMARK   15  A    between atoms: C_25  and  O_27
REMARK                            x       y       z     vdW  Elec       q    Type
REMARK                         _______ _______ _______ _____ _____    ______ ____
ROOT
ATOM      1  C   UNL     1       0.500  12.452  21.159  0.00  0.00    +0.000 A 
ATOM      2  C   UNL     1      -0.402  13.159  22.021  0.00  0.00    +0.000 A 
ATOM      3  C   UNL     1      -1.324  12.392  22.765  0.00  0.00    +0.000 A 
ATOM      4  N   UNL     1      -1.327  11.038  22.765  0.00  0.00    +0.000 NA
ATOM      5  C   UNL     1      -0.449  10.367  22.020  0.00  0.00    +0.000 A 
ATOM      6  C   UNL     1      -0.476   8.982  22.118  0.00  0.00    +0.000 A 
ATOM      7  C   UNL     1       0.393   8.160  21.397  0.00  0.00    +0.000 A 
ATOM      8  C   UNL     1       1.286   8.744  20.519  0.00  0.00    +0.000 A 
ATOM      9  C   UNL     1       1.302  10.136  20.397  0.00  0.00    +0.000 A 
ATOM     10  C   UNL     1       0.475  11.001  21.170  0.00  0.00    +0.000 A 
ENDROOT
BRANCH   1  15
ATOM     11  C   UNL     1       4.440  15.070  17.708  0.00  0.00    +0.000 C 
ATOM     12  C   UNL     1       3.403  14.440  18.585  0.00  0.00    +0.000 A 
ATOM     13  C   UNL     1       2.199  13.973  18.063  0.00  0.00    +0.000 A 
ATOM     14  C   UNL     1       1.286  13.298  18.884  0.00  0.00    +0.000 A 
ATOM     15  C   UNL     1       1.484  13.167  20.273  0.00  0.00    +0.000 A 
ATOM     16  C   UNL     1       2.672  13.720  20.785  0.00  0.00    +0.000 A 
ATOM     17  C   UNL     1       3.644  14.283  19.950  0.00  0.00    +0.000 A 
ENDBRANCH   1  15
BRANCH   2  18
ATOM     18  C   UNL     1      -0.501  14.675  22.123  0.00  0.00    +0.000 C 
BRANCH  18  19
ATOM     19  N   UNL     1       0.363  15.338  23.081  0.00  0.00    +0.000 NA
ATOM     20  H   UNL     1       0.291  14.897  23.997  0.00  0.00    +0.000 HD
ATOM     21  H   UNL     1       0.097  16.314  23.178  0.00  0.00    +0.000 HD
ENDBRANCH  18  19
ENDBRANCH   2  18
BRANCH   3  22
ATOM     22  C   UNL     1      -2.366  12.967  23.708  0.00  0.00    +0.000 C 
BRANCH  22  23
ATOM     23  C   UNL     1      -3.808  12.420  23.624  0.00  0.00    +0.000 C 
ATOM     24  C   UNL     1      -4.540  12.450  24.965  0.00  0.00    +0.000 C 
ATOM     25  C   UNL     1      -4.588  13.225  22.579  0.00  0.00    +0.000 C 
ENDBRANCH  22  23
ENDBRANCH   3  22
BRANCH   8  26
ATOM     26  O   UNL     1       2.231   8.090  19.783  0.00  0.00    +0.000 OA
BRANCH  26  27
ATOM     27  C   UNL     1       2.176   6.665  19.795  0.00  0.00    +0.000 C 
BRANCH  27  28
ATOM     28  C   UNL     1       2.371   6.169  18.359  0.00  0.00    +0.000 C 
BRANCH  28  29
ATOM     29  C   UNL     1       2.875   4.722  18.333  0.00  0.00    +0.000 C 
BRANCH  29  30
ATOM     30  C   UNL     1       1.845   3.758  17.755  0.00  0.00    +0.000 C 
BRANCH  30  31
ATOM     31  C   UNL     1       1.224   2.900  18.840  0.00  0.00    +0.000 C 
ATOM     32  O   UNL     1       0.665   3.312  19.836  0.00  0.00    +0.000 OA
BRANCH  31  33
ATOM     33  O   UNL     1       1.342   1.568  18.573  0.00  0.00    +0.000 OA
ATOM     34  H   UNL     1       0.531   1.180  18.205  0.00  0.00    +0.000 HD
ENDBRANCH  31  33
ENDBRANCH  30  31
ENDBRANCH  29  30
ENDBRANCH  28  29
ENDBRANCH  27  28
ENDBRANCH  26  27
ENDBRANCH   8  26
TORSDOF 12
ENDMDL
MODEL 8
REMARK VINA RESULT:      -5.8      6.795     11.034
REMARK  Name = 
REMARK  15 active torsions:
REMARK  status: ('A' for Active; 'I' for Inactive)
REMARK    1  A    between atoms: C_1  and  C_2
REMARK    2  A    between atoms: C_5  and  C_6
REMARK    3  A    between atoms: C_7  and  C_8
REMARK    4  A    between atoms: C_8  and  N_9
REMARK    5  A    between atoms: C_10  and  C_11
REMARK    6  A    between atoms: C_11  and  C_12
REMARK    7  A    between atoms: C_12  and  C_13
REMARK    8  A    between atoms: C_12  and  C_14
REMARK    9  A    between atoms: C_19  and  O_20
REMARK   10  A    between atoms: O_20  and  C_21
REMARK   11  A    between atoms: C_21  and  C_22
REMARK   12  A    between atoms: C_22  and  C_23
REMARK   13  A    between atoms: C_23  and  C_24
REMARK   14  A    between atoms: C_24  and  C_25
REMARK   15  A    between atoms: C_25  and  O_27
REMARK                            x       y       z     vdW  Elec       q    Type
REMARK                         _______ _______ _______ _____ _____    ______ ____
ROOT
ATOM      1  C   UNL     1       3.439   6.184  18.067  0.00  0.00    +0.000 A 
ATOM      2  C   UNL     1       2.904   4.855  18.008  0.00  0.00    +0.000 A 
ATOM      3  C   UNL     1       3.755   3.833  17.534  0.00  0.00    +0.000 A 
ATOM      4  N   UNL     1       5.057   4.041  17.227  0.00  0.00    +0.000 NA
ATOM      5  C   UNL     1       5.585   5.259  17.341  0.00  0.00    +0.000 A 
ATOM      6  C   UNL     1       6.941   5.381  17.064  0.00  0.00    +0.000 A 
ATOM      7  C   UNL     1       7.619   6.599  17.151  0.00  0.00    +0.000 A 
ATOM      8  C   UNL     1       6.908   7.735  17.484  0.00  0.00    +0.000 A 
ATOM      9  C   UNL     1       5.538   7.625  17.741  0.00  0.00    +0.000 A 
ATOM     10  C   UNL     1       4.835   6.384  17.726  0.00  0.00    +0.000 A 
ENDROOT
BRANCH   1  15
ATOM     11  C   UNL     1       0.364  10.854  19.810  0.00  0.00    +0.000 C 
ATOM     12  C   UNL     1       1.110   9.643  19.341  0.00  0.00    +0.000 A 
ATOM     13  C   UNL     1       1.445   9.472  18.000  0.00  0.00    +0.000 A 
ATOM     14  C   UNL     1       2.229   8.381  17.599  0.00  0.00    +0.000 A 
ATOM     15  C   UNL     1       2.606   7.362  18.497  0.00  0.00    +0.000 A 
ATOM     16  C   UNL     1       2.183   7.521  19.828  0.00  0.00    +0.000 A 
ATOM     17  C   UNL     1       1.510   8.670  20.257  0.00  0.00    +0.000 A 
ENDBRANCH   1  15
BRANCH   2  18
ATOM     18  C   UNL     1       1.463   4.481  18.330  0.00  0.00    +0.000 C 
BRANCH  18  19
ATOM     19  N   UNL     1       1.129   4.247  19.722  0.00  0.00    +0.000 NA
ATOM     20  H   UNL     1       0.303   3.655  19.800  0.00  0.00    +0.000 HD
ATOM     21  H   UNL     1       0.931   5.127  20.190  0.00  0.00    +0.000 HD
ENDBRANCH  18  19
ENDBRANCH   2  18
BRANCH   3  22
ATOM     22  C   UNL     1       3.356   2.376  17.382  0.00  0.00    +0.000 C 
BRANCH  22  23
ATOM     23  C   UNL     1       3.504   1.448  18.608  0.00  0.00    +0.000 C 
ATOM     24  C   UNL     1       4.380   2.043  19.709  0.00  0.00    +0.000 C 
ATOM     25  C   UNL     1       2.111   1.123  19.161  0.00  0.00    +0.000 C 
ENDBRANCH  22  23
ENDBRANCH   3  22
BRANCH   8  26
ATOM     26  O   UNL     1       7.428   8.984  17.660  0.00  0.00    +0.000 OA
BRANCH  26  27
ATOM     27  C   UNL     1       8.799   9.056  18.047  0.00  0.00    +0.000 C 
BRANCH  27  28
ATOM     28  C   UNL     1       8.952  10.208  19.044  0.00  0.00    +0.000 C 
BRANCH  28  29
ATOM     29  C   UNL     1       9.212  11.537  18.326  0.00  0.00    +0.000 C 
BRANCH  29  30
ATOM     30  C   UNL     1       9.895  12.560  19.226  0.00  0.00    +0.000 C 
BRANCH  30  31
ATOM     31  C   UNL     1      10.778  11.884  20.258  0.00  0.00    +0.000 C 
ATOM     32  O   UNL     1      11.940  11.567  20.099  0.00  0.00    +0.000 OA
BRANCH  31  33
ATOM     33  O   UNL     1      10.123  11.671  21.435  0.00  0.00    +0.000 OA
ATOM     34  H   UNL     1       9.709  10.794  21.487  0.00  0.00    +0.000 HD
ENDBRANCH  31  33
ENDBRANCH  30  31
ENDBRANCH  29  30
ENDBRANCH  28  29
ENDBRANCH  27  28
ENDBRANCH  26  27
ENDBRANCH   8  26
TORSDOF 12
ENDMDL
MODEL 9
REMARK VINA RESULT:      -5.7      4.524      8.102
REMARK  Name = 
REMARK  15 active torsions:
REMARK  status: ('A' for Active; 'I' for Inactive)
REMARK    1  A    between atoms: C_1  and  C_2
REMARK    2  A    between atoms: C_5  and  C_6
REMARK    3  A    between atoms: C_7  and  C_8
REMARK    4  A    between atoms: C_8  and  N_9
REMARK    5  A    between atoms: C_10  and  C_11
REMARK    6  A    between atoms: C_11  and  C_12
REMARK    7  A    between atoms: C_12  and  C_13
REMARK    8  A    between atoms: C_12  and  C_14
REMARK    9  A    between atoms: C_19  and  O_20
REMARK   10  A    between atoms: O_20  and  C_21
REMARK   11  A    between atoms: C_21  and  C_22
REMARK   12  A    between atoms: C_22  and  C_23
REMARK   13  A    between atoms: C_23  and  C_24
REMARK   14  A    between atoms: C_24  and  C_25
REMARK   15  A    between atoms: C_25  and  O_27
REMARK                            x       y       z     vdW  Elec       q    Type
REMARK                         _______ _______ _______ _____ _____    ______ ____
ROOT
ATOM      1  C   UNL     1       0.341  12.619  21.267  0.00  0.00    +0.000 A 
ATOM      2  C   UNL     1      -0.467  13.340  22.207  0.00  0.00    +0.000 A 
ATOM      3  C   UNL     1      -1.330  12.587  23.032  0.00  0.00    +0.000 A 
ATOM      4  N   UNL     1      -1.354  11.233  23.033  0.00  0.00    +0.000 NA
ATOM      5  C   UNL     1      -0.559  10.549  22.211  0.00  0.00    +0.000 A 
ATOM      6  C   UNL     1      -0.599   9.165  22.312  0.00  0.00    +0.000 A 
ATOM      7  C   UNL     1       0.187   8.330  21.515  0.00  0.00    +0.000 A 
ATOM      8  C   UNL     1       1.005   8.899  20.559  0.00  0.00    +0.000 A 
ATOM      9  C   UNL     1       1.033  10.291  20.435  0.00  0.00    +0.000 A 
ATOM     10  C   UNL     1       0.294  11.169  21.281  0.00  0.00    +0.000 A 
ENDROOT
BRANCH   1  15
ATOM     11  C   UNL     1       3.799  15.515  17.531  0.00  0.00    +0.000 C 
ATOM     12  C   UNL     1       2.942  14.734  18.478  0.00  0.00    +0.000 A 
ATOM     13  C   UNL     1       3.426  14.312  19.715  0.00  0.00    +0.000 A 
ATOM     14  C   UNL     1       2.577  13.669  20.626  0.00  0.00    +0.000 A 
ATOM     15  C   UNL     1       1.252  13.320  20.294  0.00  0.00    +0.000 A 
ATOM     16  C   UNL     1       0.818  13.686  19.008  0.00  0.00    +0.000 A 
ATOM     17  C   UNL     1       1.621  14.439  18.144  0.00  0.00    +0.000 A 
ENDBRANCH   1  15
BRANCH   2  18
ATOM     18  C   UNL     1      -0.531  14.857  22.316  0.00  0.00    +0.000 C 
BRANCH  18  19
ATOM     19  N   UNL     1       0.474  15.512  23.132  0.00  0.00    +0.000 NA
ATOM     20  H   UNL     1       0.486  15.119  24.073  0.00  0.00    +0.000 HD
ATOM     21  H   UNL     1       0.274  16.505  23.207  0.00  0.00    +0.000 HD
ENDBRANCH  18  19
ENDBRANCH   2  18
BRANCH   3  22
ATOM     22  C   UNL     1      -2.271  13.178  24.066  0.00  0.00    +0.000 C 
BRANCH  22  23
ATOM     23  C   UNL     1      -3.772  13.277  23.713  0.00  0.00    +0.000 C 
ATOM     24  C   UNL     1      -4.076  12.887  22.268  0.00  0.00    +0.000 C 
ATOM     25  C   UNL     1      -4.571  12.391  24.677  0.00  0.00    +0.000 C 
ENDBRANCH  22  23
ENDBRANCH   3  22
BRANCH   8  26
ATOM     26  O   UNL     1       1.869   8.231  19.740  0.00  0.00    +0.000 OA
BRANCH  26  27
ATOM     27  C   UNL     1       2.264   6.926  20.159  0.00  0.00    +0.000 C 
BRANCH  27  28
ATOM     28  C   UNL     1       2.309   6.024  18.922  0.00  0.00    +0.000 C 
BRANCH  28  29
ATOM     29  C   UNL     1       1.995   4.568  19.283  0.00  0.00    +0.000 C 
BRANCH  29  30
ATOM     30  C   UNL     1       2.090   4.306  20.782  0.00  0.00    +0.000 C 
BRANCH  30  31
ATOM     31  C   UNL     1       1.681   2.885  21.120  0.00  0.00    +0.000 C 
ATOM     32  O   UNL     1       1.439   2.463  22.233  0.00  0.00    +0.000 OA
BRANCH  31  33
ATOM     33  O   UNL     1       1.592   2.098  20.011  0.00  0.00    +0.000 OA
ATOM     34  H   UNL     1       2.346   1.492  19.912  0.00  0.00    +0.000 HD
ENDBRANCH  31  33
ENDBRANCH  30  31
ENDBRANCH  29  30
ENDBRANCH  28  29
ENDBRANCH  27  28
ENDBRANCH  26  27
ENDBRANCH   8  26
TORSDOF 12
ENDMDL
