MODEL 1
REMARK VINA RESULT:      -7.8      0.000      0.000
REMARK  Name = 
REMARK  4 active torsions:
REMARK  status: ('A' for Active; 'I' for Inactive)
REMARK    1  A    between atoms: C_1  and  C_2
REMARK    2  A    between atoms: N_4  and  C_5
REMARK    3  A    between atoms: C_7  and  N_8
REMARK    4  A    between atoms: C_16  and  N_17
REMARK                            x       y       z     vdW  Elec       q    Type
REMARK                         _______ _______ _______ _____ _____    ______ ____
ROOT
ATOM      1  C   UNL     1       0.951   8.859  20.259  0.00  0.00    +0.000 A 
ATOM      2  C   UNL     1       0.015   9.455  19.393  0.00  0.00    +0.000 A 
ATOM      3  C   UNL     1      -0.811  10.529  19.752  0.00  0.00    +0.000 A 
ATOM      4  C   UNL     1      -0.702  10.986  21.067  0.00  0.00    +0.000 A 
ATOM      5  C   UNL     1       0.207  10.417  21.963  0.00  0.00    +0.000 A 
ATOM      6  C   UNL     1       1.019   9.341  21.586  0.00  0.00    +0.000 A 
ENDROOT
BRANCH   1  10
ATOM      7  C   UNL     1       2.175   4.329  21.058  0.00  0.00    +0.000 C 
ATOM      8  C   UNL     1       2.335   5.554  20.197  0.00  0.00    +0.000 A 
ATOM      9  N   UNL     1       1.693   6.624  20.558  0.00  0.00    +0.000 NA
ATOM     10  N   UNL     1       1.770   7.766  19.787  0.00  0.00    +0.000 N 
ATOM     11  C   UNL     1       2.517   7.837  18.599  0.00  0.00    +0.000 A 
ATOM     12  O   UNL     1       2.614   8.799  17.836  0.00  0.00    +0.000 OA
ATOM     13  C   UNL     1       3.303   6.644  18.240  0.00  0.00    +0.000 A 
ATOM     14  C   UNL     1       4.163   6.680  17.132  0.00  0.00    +0.000 A 
ATOM     15  C   UNL     1       4.920   5.559  16.798  0.00  0.00    +0.000 A 
ATOM     16  C   UNL     1       4.801   4.397  17.556  0.00  0.00    +0.000 A 
ATOM     17  C   UNL     1       3.942   4.359  18.658  0.00  0.00    +0.000 A 
ATOM     18  C   UNL     1       3.204   5.496  19.009  0.00  0.00    +0.000 A 
ENDBRANCH   1  10
BRANCH   3  19
ATOM     19  N   UNL     1      -1.674  11.098  18.836  0.00  0.00    +0.000 N 
ATOM     20  C   UNL     1      -2.495  12.264  19.183  0.00  0.00    +0.000 C 
ATOM     21  C   UNL     1      -3.974  11.915  19.011  0.00  0.00    +0.000 C 
ATOM     22  C   UNL     1      -4.259  11.343  17.623  0.00  0.00    +0.000 C 
ATOM     23  C   UNL     1      -3.334  10.166  17.310  0.00  0.00    +0.000 C 
ATOM     24  C   UNL     1      -1.869  10.549  17.498  0.00  0.00    +0.000 C 
ENDBRANCH   3  19
BRANCH   6  25
ATOM     25  N   UNL     1       2.059   8.967  22.470  0.00  0.00    +0.000 N 
ATOM     26  H   UNL     1       2.286   9.683  23.151  0.00  0.00    +0.000 HD
ATOM     27  H   UNL     1       1.803   8.073  22.899  0.00  0.00    +0.000 HD
ENDBRANCH   6  25
TORSDOF 3
ENDMDL
MODEL 2
REMARK VINA RESULT:      -7.8      2.447      4.839
REMARK  Name = 
REMARK  4 active torsions:
REMARK  status: ('A' for Active; 'I' for Inactive)
REMARK    1  A    between atoms: C_1  and  C_2
REMARK    2  A    between atoms: N_4  and  C_5
REMARK    3  A    between atoms: C_7  and  N_8
REMARK    4  A    between atoms: C_16  and  N_17
REMARK                            x       y       z     vdW  Elec       q    Type
REMARK                         _______ _______ _______ _____ _____    ______ ____
ROOT
ATOM      1  C   UNL     1       3.349   5.715  18.983  0.00  0.00    +0.000 A 
ATOM      2  C   UNL     1       2.818   6.979  19.304  0.00  0.00    +0.000 A 
ATOM      3  C   UNL     1       1.887   7.200  20.328  0.00  0.00    +0.000 A 
ATOM      4  C   UNL     1       1.450   6.074  21.026  0.00  0.00    +0.000 A 
ATOM      5  C   UNL     1       1.943   4.798  20.735  0.00  0.00    +0.000 A 
ATOM      6  C   UNL     1       2.869   4.599  19.704  0.00  0.00    +0.000 A 
ENDROOT
BRANCH   1  10
ATOM      7  C   UNL     1       7.608   7.197  17.458  0.00  0.00    +0.000 C 
ATOM      8  C   UNL     1       6.403   6.327  17.211  0.00  0.00    +0.000 A 
ATOM      9  N   UNL     1       5.432   6.396  18.071  0.00  0.00    +0.000 NA
ATOM     10  N   UNL     1       4.320   5.594  17.919  0.00  0.00    +0.000 N 
ATOM     11  C   UNL     1       4.176   4.678  16.863  0.00  0.00    +0.000 A 
ATOM     12  O   UNL     1       3.238   3.904  16.670  0.00  0.00    +0.000 OA
ATOM     13  C   UNL     1       5.247   4.664  15.851  0.00  0.00    +0.000 A 
ATOM     14  C   UNL     1       5.118   3.860  14.708  0.00  0.00    +0.000 A 
ATOM     15  C   UNL     1       6.122   3.855  13.741  0.00  0.00    +0.000 A 
ATOM     16  C   UNL     1       7.261   4.634  13.926  0.00  0.00    +0.000 A 
ATOM     17  C   UNL     1       7.391   5.432  15.066  0.00  0.00    +0.000 A 
ATOM     18  C   UNL     1       6.369   5.457  16.023  0.00  0.00    +0.000 A 
ENDBRANCH   1  10
BRANCH   3  19
ATOM     19  N   UNL     1       1.445   8.476  20.620  0.00  0.00    +0.000 N 
ATOM     20  C   UNL     1       1.263   8.920  22.007  0.00  0.00    +0.000 C 
ATOM     21  C   UNL     1      -0.192   9.335  22.223  0.00  0.00    +0.000 C 
ATOM     22  C   UNL     1      -0.648  10.352  21.179  0.00  0.00    +0.000 C 
ATOM     23  C   UNL     1      -0.383   9.844  19.761  0.00  0.00    +0.000 C 
ATOM     24  C   UNL     1       1.077   9.435  19.584  0.00  0.00    +0.000 C 
ENDBRANCH   3  19
BRANCH   6  25
ATOM     25  N   UNL     1       3.481   3.325  19.615  0.00  0.00    +0.000 N 
ATOM     26  H   UNL     1       4.483   3.348  19.768  0.00  0.00    +0.000 HD
ATOM     27  H   UNL     1       2.992   2.694  20.256  0.00  0.00    +0.000 HD
ENDBRANCH   6  25
TORSDOF 3
ENDMDL
MODEL 3
REMARK VINA RESULT:      -7.6      1.949      7.471
REMARK  Name = 
REMARK  4 active torsions:
REMARK  status: ('A' for Active; 'I' for Inactive)
REMARK    1  A    between atoms: C_1  and  C_2
REMARK    2  A    between atoms: N_4  and  C_5
REMARK    3  A    between atoms: C_7  and  N_8
REMARK    4  A    between atoms: C_16  and  N_17
REMARK                            x       y       z     vdW  Elec       q    Type
REMARK                         _______ _______ _______ _____ _____    ______ ____
ROOT
ATOM      1  C   UNL     1       2.594   6.744  19.399  0.00  0.00    +0.000 A 
ATOM      2  C   UNL     1       3.672   6.826  18.496  0.00  0.00    +0.000 A 
ATOM      3  C   UNL     1       4.474   5.735  18.133  0.00  0.00    +0.000 A 
ATOM      4  C   UNL     1       4.184   4.517  18.750  0.00  0.00    +0.000 A 
ATOM      5  C   UNL     1       3.130   4.392  19.659  0.00  0.00    +0.000 A 
ATOM      6  C   UNL     1       2.345   5.496  20.013  0.00  0.00    +0.000 A 
ENDROOT
BRANCH   1  10
ATOM      7  C   UNL     1       0.622   9.288  22.906  0.00  0.00    +0.000 C 
ATOM      8  C   UNL     1       0.878   9.148  21.428  0.00  0.00    +0.000 A 
ATOM      9  N   UNL     1       1.518   8.089  21.032  0.00  0.00    +0.000 NA
ATOM     10  N   UNL     1       1.816   7.926  19.694  0.00  0.00    +0.000 N 
ATOM     11  C   UNL     1       1.464   8.867  18.712  0.00  0.00    +0.000 A 
ATOM     12  O   UNL     1       1.717   8.817  17.508  0.00  0.00    +0.000 OA
ATOM     13  C   UNL     1       0.671  10.024  19.160  0.00  0.00    +0.000 A 
ATOM     14  C   UNL     1       0.183  10.945  18.220  0.00  0.00    +0.000 A 
ATOM     15  C   UNL     1      -0.581  12.033  18.638  0.00  0.00    +0.000 A 
ATOM     16  C   UNL     1      -0.837  12.213  19.995  0.00  0.00    +0.000 A 
ATOM     17  C   UNL     1      -0.349  11.299  20.933  0.00  0.00    +0.000 A 
ATOM     18  C   UNL     1       0.394  10.191  20.508  0.00  0.00    +0.000 A 
ENDBRANCH   1  10
BRANCH   3  19
ATOM     19  N   UNL     1       5.486   5.877  17.204  0.00  0.00    +0.000 N 
ATOM     20  C   UNL     1       5.202   6.302  15.827  0.00  0.00    +0.000 C 
ATOM     21  C   UNL     1       5.680   5.224  14.854  0.00  0.00    +0.000 C 
ATOM     22  C   UNL     1       7.140   4.849  15.101  0.00  0.00    +0.000 C 
ATOM     23  C   UNL     1       7.371   4.467  16.564  0.00  0.00    +0.000 C 
ATOM     24  C   UNL     1       6.878   5.563  17.506  0.00  0.00    +0.000 C 
ENDBRANCH   3  19
BRANCH   6  25
ATOM     25  N   UNL     1       1.170   5.248  20.762  0.00  0.00    +0.000 N 
ATOM     26  H   UNL     1       0.898   4.272  20.774  0.00  0.00    +0.000 HD
ATOM     27  H   UNL     1       1.305   5.638  21.700  0.00  0.00    +0.000 HD
ENDBRANCH   6  25
TORSDOF 3
ENDMDL
MODEL 4
REMARK VINA RESULT:      -7.6      2.056      3.135
REMARK  Name = 
REMARK  4 active torsions:
REMARK  status: ('A' for Active; 'I' for Inactive)
REMARK    1  A    between atoms: C_1  and  C_2
REMARK    2  A    between atoms: N_4  and  C_5
REMARK    3  A    between atoms: C_7  and  N_8
REMARK    4  A    between atoms: C_16  and  N_17
REMARK                            x       y       z     vdW  Elec       q    Type
REMARK                         _______ _______ _______ _____ _____    ______ ____
ROOT
ATOM      1  C   UNL     1       2.279   7.255  19.050  0.00  0.00    +0.000 A 
ATOM      2  C   UNL     1       1.907   8.506  18.522  0.00  0.00    +0.000 A 
ATOM      3  C   UNL     1       1.172   9.468  19.230  0.00  0.00    +0.000 A 
ATOM      4  C   UNL     1       0.767   9.116  20.519  0.00  0.00    +0.000 A 
ATOM      5  C   UNL     1       1.105   7.881  21.079  0.00  0.00    +0.000 A 
ATOM      6  C   UNL     1       1.835   6.933  20.353  0.00  0.00    +0.000 A 
ENDROOT
BRANCH   1  10
ATOM      7  C   UNL     1       2.510   2.783  17.435  0.00  0.00    +0.000 C 
ATOM      8  C   UNL     1       3.130   4.156  17.465  0.00  0.00    +0.000 A 
ATOM      9  N   UNL     1       2.554   5.052  18.208  0.00  0.00    +0.000 NA
ATOM     10  N   UNL     1       3.054   6.338  18.245  0.00  0.00    +0.000 N 
ATOM     11  C   UNL     1       4.174   6.746  17.500  0.00  0.00    +0.000 A 
ATOM     12  O   UNL     1       4.664   7.874  17.448  0.00  0.00    +0.000 OA
ATOM     13  C   UNL     1       4.864   5.702  16.723  0.00  0.00    +0.000 A 
ATOM     14  C   UNL     1       6.056   6.007  16.047  0.00  0.00    +0.000 A 
ATOM     15  C   UNL     1       6.721   5.019  15.323  0.00  0.00    +0.000 A 
ATOM     16  C   UNL     1       6.185   3.736  15.255  0.00  0.00    +0.000 A 
ATOM     17  C   UNL     1       4.996   3.432  15.925  0.00  0.00    +0.000 A 
ATOM     18  C   UNL     1       4.344   4.419  16.675  0.00  0.00    +0.000 A 
ENDBRANCH   1  10
BRANCH   3  19
ATOM     19  N   UNL     1       0.884  10.695  18.667  0.00  0.00    +0.000 N 
ATOM     20  C   UNL     1       1.936  11.689  18.426  0.00  0.00    +0.000 C 
ATOM     21  C   UNL     1       1.611  12.971  19.193  0.00  0.00    +0.000 C 
ATOM     22  C   UNL     1       0.201  13.470  18.883  0.00  0.00    +0.000 C 
ATOM     23  C   UNL     1      -0.836  12.368  19.108  0.00  0.00    +0.000 C 
ATOM     24  C   UNL     1      -0.476  11.104  18.332  0.00  0.00    +0.000 C 
ENDBRANCH   3  19
BRANCH   6  25
ATOM     25  N   UNL     1       2.324   5.807  21.057  0.00  0.00    +0.000 N 
ATOM     26  H   UNL     1       1.760   4.974  20.927  0.00  0.00    +0.000 HD
ATOM     27  H   UNL     1       3.305   5.671  20.796  0.00  0.00    +0.000 HD
ENDBRANCH   6  25
TORSDOF 3
ENDMDL
MODEL 5
REMARK VINA RESULT:      -7.5      1.953      7.631
REMARK  Name = 
REMARK  4 active torsions:
REMARK  status: ('A' for Active; 'I' for Inactive)
REMARK    1  A    between atoms: C_1  and  C_2
REMARK    2  A    between atoms: N_4  and  C_5
REMARK    3  A    between atoms: C_7  and  N_8
REMARK    4  A    between atoms: C_16  and  N_17
REMARK                            x       y       z     vdW  Elec       q    Type
REMARK                         _______ _______ _______ _____ _____    ______ ____
ROOT
ATOM      1  C   UNL     1       1.281   9.144  19.180  0.00  0.00    +0.000 A 
ATOM      2  C   UNL     1       1.451   7.870  19.755  0.00  0.00    +0.000 A 
ATOM      3  C   UNL     1       2.391   6.929  19.311  0.00  0.00    +0.000 A 
ATOM      4  C   UNL     1       3.162   7.294  18.207  0.00  0.00    +0.000 A 
ATOM      5  C   UNL     1       3.021   8.545  17.599  0.00  0.00    +0.000 A 
ATOM      6  C   UNL     1       2.072   9.467  18.054  0.00  0.00    +0.000 A 
ENDROOT
BRANCH   1  10
ATOM      7  C   UNL     1      -2.687  11.576  18.181  0.00  0.00    +0.000 C 
ATOM      8  C   UNL     1      -1.645  11.212  19.206  0.00  0.00    +0.000 A 
ATOM      9  N   UNL     1      -0.668  10.449  18.818  0.00  0.00    +0.000 NA
ATOM     10  N   UNL     1       0.295  10.050  19.722  0.00  0.00    +0.000 N 
ATOM     11  C   UNL     1       0.275  10.427  21.076  0.00  0.00    +0.000 A 
ATOM     12  O   UNL     1       1.071  10.092  21.954  0.00  0.00    +0.000 OA
ATOM     13  C   UNL     1      -0.792  11.355  21.487  0.00  0.00    +0.000 A 
ATOM     14  C   UNL     1      -0.808  11.867  22.794  0.00  0.00    +0.000 A 
ATOM     15  C   UNL     1      -1.807  12.758  23.184  0.00  0.00    +0.000 A 
ATOM     16  C   UNL     1      -2.800  13.118  22.277  0.00  0.00    +0.000 A 
ATOM     17  C   UNL     1      -2.786  12.607  20.976  0.00  0.00    +0.000 A 
ATOM     18  C   UNL     1      -1.766  11.734  20.578  0.00  0.00    +0.000 A 
ENDBRANCH   1  10
BRANCH   3  19
ATOM     19  N   UNL     1       2.536   5.716  19.954  0.00  0.00    +0.000 N 
ATOM     20  C   UNL     1       3.699   4.855  19.704  0.00  0.00    +0.000 C 
ATOM     21  C   UNL     1       3.225   3.501  19.175  0.00  0.00    +0.000 C 
ATOM     22  C   UNL     1       2.174   2.876  20.089  0.00  0.00    +0.000 C 
ATOM     23  C   UNL     1       1.019   3.846  20.346  0.00  0.00    +0.000 C 
ATOM     24  C   UNL     1       1.530   5.187  20.867  0.00  0.00    +0.000 C 
ENDBRANCH   3  19
BRANCH   6  25
ATOM     25  N   UNL     1       2.139  10.782  17.534  0.00  0.00    +0.000 N 
ATOM     26  H   UNL     1       2.193  10.813  16.522  0.00  0.00    +0.000 HD
ATOM     27  H   UNL     1       1.346  11.311  17.908  0.00  0.00    +0.000 HD
ENDBRANCH   6  25
TORSDOF 3
ENDMDL
MODEL 6
REMARK VINA RESULT:      -7.1      2.750      7.717
REMARK  Name = 
REMARK  4 active torsions:
REMARK  status: ('A' for Active; 'I' for Inactive)
REMARK    1  A    between atoms: C_1  and  C_2
REMARK    2  A    between atoms: N_4  and  C_5
REMARK    3  A    between atoms: C_7  and  N_8
REMARK    4  A    between atoms: C_16  and  N_17
REMARK                            x       y       z     vdW  Elec       q    Type
REMARK                         _______ _______ _______ _____ _____    ______ ____
ROOT
ATOM      1  C   UNL     1       1.579   9.003  19.488  0.00  0.00    +0.000 A 
ATOM      2  C   UNL     1       1.841   7.756  20.087  0.00  0.00    +0.000 A 
ATOM      3  C   UNL     1       2.439   6.677  19.421  0.00  0.00    +0.000 A 
ATOM      4  C   UNL     1       2.745   6.870  18.073  0.00  0.00    +0.000 A 
ATOM      5  C   UNL     1       2.493   8.089  17.435  0.00  0.00    +0.000 A 
ATOM      6  C   UNL     1       1.890   9.152  18.117  0.00  0.00    +0.000 A 
ENDROOT
BRANCH   1  10
ATOM      7  C   UNL     1       1.466  13.713  20.170  0.00  0.00    +0.000 C 
ATOM      8  C   UNL     1       0.935  12.360  20.564  0.00  0.00    +0.000 A 
ATOM      9  N   UNL     1       1.449  11.323  19.974  0.00  0.00    +0.000 NA
ATOM     10  N   UNL     1       0.975  10.060  20.267  0.00  0.00    +0.000 N 
ATOM     11  C   UNL     1      -0.063   9.826  21.184  0.00  0.00    +0.000 A 
ATOM     12  O   UNL     1      -0.566   8.742  21.479  0.00  0.00    +0.000 OA
ATOM     13  C   UNL     1      -0.584  11.000  21.905  0.00  0.00    +0.000 A 
ATOM     14  C   UNL     1      -1.539  10.831  22.919  0.00  0.00    +0.000 A 
ATOM     15  C   UNL     1      -2.023  11.938  23.615  0.00  0.00    +0.000 A 
ATOM     16  C   UNL     1      -1.572  13.212  23.281  0.00  0.00    +0.000 A 
ATOM     17  C   UNL     1      -0.624  13.382  22.268  0.00  0.00    +0.000 A 
ATOM     18  C   UNL     1      -0.117  12.266  21.591  0.00  0.00    +0.000 A 
ENDBRANCH   1  10
BRANCH   3  19
ATOM     19  N   UNL     1       2.711   5.497  20.085  0.00  0.00    +0.000 N 
ATOM     20  C   UNL     1       3.881   4.681  19.740  0.00  0.00    +0.000 C 
ATOM     21  C   UNL     1       3.422   3.287  19.312  0.00  0.00    +0.000 C 
ATOM     22  C   UNL     1       2.505   2.652  20.355  0.00  0.00    +0.000 C 
ATOM     23  C   UNL     1       1.338   3.578  20.702  0.00  0.00    +0.000 C 
ATOM     24  C   UNL     1       1.835   4.959  21.119  0.00  0.00    +0.000 C 
ENDBRANCH   3  19
BRANCH   6  25
ATOM     25  N   UNL     1       1.870  10.412  17.473  0.00  0.00    +0.000 N 
ATOM     26  H   UNL     1       2.780  10.711  17.142  0.00  0.00    +0.000 HD
ATOM     27  H   UNL     1       1.165  10.376  16.731  0.00  0.00    +0.000 HD
ENDBRANCH   6  25
TORSDOF 3
ENDMDL
MODEL 7
REMARK VINA RESULT:      -7.0      2.429      7.455
REMARK  Name = 
REMARK  4 active torsions:
REMARK  status: ('A' for Active; 'I' for Inactive)
REMARK    1  A    between atoms: C_1  and  C_2
REMARK    2  A    between atoms: N_4  and  C_5
REMARK    3  A    between atoms: C_7  and  N_8
REMARK    4  A    between atoms: C_16  and  N_17
REMARK                            x       y       z     vdW  Elec       q    Type
REMARK                         _______ _______ _______ _____ _____    ______ ____
ROOT
ATOM      1  C   UNL     1       2.650   5.821  19.364  0.00  0.00    +0.000 A 
ATOM      2  C   UNL     1       3.805   5.656  18.576  0.00  0.00    +0.000 A 
ATOM      3  C   UNL     1       4.394   4.414  18.301  0.00  0.00    +0.000 A 
ATOM      4  C   UNL     1       3.799   3.298  18.891  0.00  0.00    +0.000 A 
ATOM      5  C   UNL     1       2.656   3.416  19.688  0.00  0.00    +0.000 A 
ATOM      6  C   UNL     1       2.087   4.667  19.955  0.00  0.00    +0.000 A 
ENDROOT
BRANCH   1  10
ATOM      7  C   UNL     1       0.527   8.664  22.538  0.00  0.00    +0.000 C 
ATOM      8  C   UNL     1       1.087   8.507  21.148  0.00  0.00    +0.000 A 
ATOM      9  N   UNL     1       1.548   7.338  20.820  0.00  0.00    +0.000 NA
ATOM     10  N   UNL     1       2.108   7.144  19.573  0.00  0.00    +0.000 N 
ATOM     11  C   UNL     1       2.217   8.168  18.617  0.00  0.00    +0.000 A 
ATOM     12  O   UNL     1       2.729   8.092  17.500  0.00  0.00    +0.000 OA
ATOM     13  C   UNL     1       1.620   9.467  18.970  0.00  0.00    +0.000 A 
ATOM     14  C   UNL     1       1.587  10.502  18.022  0.00  0.00    +0.000 A 
ATOM     15  C   UNL     1       1.009  11.728  18.346  0.00  0.00    +0.000 A 
ATOM     16  C   UNL     1       0.487  11.928  19.622  0.00  0.00    +0.000 A 
ATOM     17  C   UNL     1       0.523  10.899  20.567  0.00  0.00    +0.000 A 
ATOM     18  C   UNL     1       1.079   9.659  20.230  0.00  0.00    +0.000 A 
ENDBRANCH   1  10
BRANCH   3  19
ATOM     19  N   UNL     1       5.501   4.321  17.479  0.00  0.00    +0.000 N 
ATOM     20  C   UNL     1       6.782   4.931  17.854  0.00  0.00    +0.000 C 
ATOM     21  C   UNL     1       7.192   5.948  16.788  0.00  0.00    +0.000 C 
ATOM     22  C   UNL     1       7.180   5.333  15.390  0.00  0.00    +0.000 C 
ATOM     23  C   UNL     1       5.834   4.672  15.089  0.00  0.00    +0.000 C 
ATOM     24  C   UNL     1       5.456   3.669  16.175  0.00  0.00    +0.000 C 
ENDBRANCH   3  19
BRANCH   6  25
ATOM     25  N   UNL     1       0.818   4.686  20.581  0.00  0.00    +0.000 N 
ATOM     26  H   UNL     1       0.101   5.141  20.028  0.00  0.00    +0.000 HD
ATOM     27  H   UNL     1       0.576   3.723  20.835  0.00  0.00    +0.000 HD
ENDBRANCH   6  25
TORSDOF 3
ENDMDL
MODEL 8
REMARK VINA RESULT:      -7.0      2.779      5.018
REMARK  Name = 
REMARK  4 active torsions:
REMARK  status: ('A' for Active; 'I' for Inactive)
REMARK    1  A    between atoms: C_1  and  C_2
REMARK    2  A    between atoms: N_4  and  C_5
REMARK    3  A    between atoms: C_7  and  N_8
REMARK    4  A    between atoms: C_16  and  N_17
REMARK                            x       y       z     vdW  Elec       q    Type
REMARK                         _______ _______ _______ _____ _____    ______ ____
ROOT
ATOM      1  C   UNL     1       3.413   5.660  18.963  0.00  0.00    +0.000 A 
ATOM      2  C   UNL     1       2.633   6.824  19.113  0.00  0.00    +0.000 A 
ATOM      3  C   UNL     1       1.693   7.009  20.136  0.00  0.00    +0.000 A 
ATOM      4  C   UNL     1       1.515   5.943  21.019  0.00  0.00    +0.000 A 
ATOM      5  C   UNL     1       2.260   4.766  20.901  0.00  0.00    +0.000 A 
ATOM      6  C   UNL     1       3.190   4.599  19.868  0.00  0.00    +0.000 A 
ENDROOT
BRANCH   1  10
ATOM      7  C   UNL     1       7.557   7.343  17.334  0.00  0.00    +0.000 C 
ATOM      8  C   UNL     1       6.397   6.405  17.125  0.00  0.00    +0.000 A 
ATOM      9  N   UNL     1       5.439   6.437  18.002  0.00  0.00    +0.000 NA
ATOM     10  N   UNL     1       4.369   5.573  17.883  0.00  0.00    +0.000 N 
ATOM     11  C   UNL     1       4.258   4.632  16.846  0.00  0.00    +0.000 A 
ATOM     12  O   UNL     1       3.359   3.806  16.683  0.00  0.00    +0.000 OA
ATOM     13  C   UNL     1       5.309   4.658  15.815  0.00  0.00    +0.000 A 
ATOM     14  C   UNL     1       5.204   3.828  14.688  0.00  0.00    +0.000 A 
ATOM     15  C   UNL     1       6.189   3.860  13.702  0.00  0.00    +0.000 A 
ATOM     16  C   UNL     1       7.288   4.702  13.853  0.00  0.00    +0.000 A 
ATOM     17  C   UNL     1       7.395   5.527  14.977  0.00  0.00    +0.000 A 
ATOM     18  C   UNL     1       6.390   5.514  15.952  0.00  0.00    +0.000 A 
ENDBRANCH   1  10
BRANCH   3  19
ATOM     19  N   UNL     1       0.998   8.197  20.252  0.00  0.00    +0.000 N 
ATOM     20  C   UNL     1       1.015   9.199  19.179  0.00  0.00    +0.000 C 
ATOM     21  C   UNL     1       1.576  10.514  19.721  0.00  0.00    +0.000 C 
ATOM     22  C   UNL     1       0.839  10.964  20.980  0.00  0.00    +0.000 C 
ATOM     23  C   UNL     1       0.817   9.855  22.033  0.00  0.00    +0.000 C 
ATOM     24  C   UNL     1       0.257   8.557  21.456  0.00  0.00    +0.000 C 
ENDBRANCH   3  19
BRANCH   6  25
ATOM     25  N   UNL     1       4.054   3.480  19.944  0.00  0.00    +0.000 N 
ATOM     26  H   UNL     1       4.349   3.262  20.889  0.00  0.00    +0.000 HD
ATOM     27  H   UNL     1       3.595   2.694  19.475  0.00  0.00    +0.000 HD
ENDBRANCH   6  25
TORSDOF 3
ENDMDL
MODEL 9
REMARK VINA RESULT:      -7.0      4.680      8.964
REMARK  Name = 
REMARK  4 active torsions:
REMARK  status: ('A' for Active; 'I' for Inactive)
REMARK    1  A    between atoms: C_1  and  C_2
REMARK    2  A    between atoms: N_4  and  C_5
REMARK    3  A    between atoms: C_7  and  N_8
REMARK    4  A    between atoms: C_16  and  N_17
REMARK                            x       y       z     vdW  Elec       q    Type
REMARK                         _______ _______ _______ _____ _____    ______ ____
ROOT
ATOM      1  C   UNL     1       5.515   4.682  16.097  0.00  0.00    +0.000 A 
ATOM      2  C   UNL     1       5.265   4.257  14.778  0.00  0.00    +0.000 A 
ATOM      3  C   UNL     1       6.229   4.255  13.760  0.00  0.00    +0.000 A 
ATOM      4  C   UNL     1       7.491   4.747  14.096  0.00  0.00    +0.000 A 
ATOM      5  C   UNL     1       7.780   5.189  15.390  0.00  0.00    +0.000 A 
ATOM      6  C   UNL     1       6.802   5.187  16.391  0.00  0.00    +0.000 A 
ENDROOT
BRANCH   1  10
ATOM      7  C   UNL     1       2.449   7.313  18.615  0.00  0.00    +0.000 C 
ATOM      8  C   UNL     1       2.968   5.938  18.282  0.00  0.00    +0.000 A 
ATOM      9  N   UNL     1       3.965   5.863  17.452  0.00  0.00    +0.000 NA
ATOM     10  N   UNL     1       4.457   4.628  17.080  0.00  0.00    +0.000 N 
ATOM     11  C   UNL     1       3.924   3.418  17.554  0.00  0.00    +0.000 A 
ATOM     12  O   UNL     1       4.279   2.278  17.250  0.00  0.00    +0.000 OA
ATOM     13  C   UNL     1       2.847   3.517  18.554  0.00  0.00    +0.000 A 
ATOM     14  C   UNL     1       2.345   2.354  19.158  0.00  0.00    +0.000 A 
ATOM     15  C   UNL     1       1.336   2.444  20.116  0.00  0.00    +0.000 A 
ATOM     16  C   UNL     1       0.815   3.691  20.451  0.00  0.00    +0.000 A 
ATOM     17  C   UNL     1       1.312   4.849  19.847  0.00  0.00    +0.000 A 
ATOM     18  C   UNL     1       2.345   4.759  18.906  0.00  0.00    +0.000 A 
ENDBRANCH   1  10
BRANCH   3  19
ATOM     19  N   UNL     1       5.927   3.778  12.499  0.00  0.00    +0.000 N 
ATOM     20  C   UNL     1       4.697   4.180  11.807  0.00  0.00    +0.000 C 
ATOM     21  C   UNL     1       3.858   2.939  11.497  0.00  0.00    +0.000 C 
ATOM     22  C   UNL     1       4.672   1.881  10.756  0.00  0.00    +0.000 C 
ATOM     23  C   UNL     1       5.961   1.549  11.509  0.00  0.00    +0.000 C 
ATOM     24  C   UNL     1       6.769   2.810  11.805  0.00  0.00    +0.000 C 
ENDBRANCH   3  19
BRANCH   6  25
ATOM     25  N   UNL     1       7.225   5.439  17.718  0.00  0.00    +0.000 N 
ATOM     26  H   UNL     1       8.218   5.628  17.796  0.00  0.00    +0.000 HD
ATOM     27  H   UNL     1       6.644   6.192  18.099  0.00  0.00    +0.000 HD
ENDBRANCH   6  25
TORSDOF 3
ENDMDL
