MODEL 1
REMARK VINA RESULT:      -7.7      0.000      0.000
REMARK  Name = 
REMARK  5 active torsions:
REMARK  status: ('A' for Active; 'I' for Inactive)
REMARK    1  A    between atoms: C_1  and  C_2
REMARK    2  A    between atoms: C_6  and  C_7
REMARK    3  A    between atoms: C_7  and  O_8
REMARK    4  A    between atoms: O_8  and  C_9
REMARK    5  A    between atoms: C_9  and  C_11
REMARK                            x       y       z     vdW  Elec       q    Type
REMARK                         _______ _______ _______ _____ _____    ______ ____
ROOT
ATOM      1  C   UNL     1       6.324   3.580  12.592  0.00  0.00    +0.000 C 
ATOM      2  C   UNL     1       6.242   4.006  14.028  0.00  0.00    +0.000 A 
ATOM      3  C   UNL     1       5.442   3.316  14.945  0.00  0.00    +0.000 A 
ATOM      4  C   UNL     1       5.371   3.723  16.288  0.00  0.00    +0.000 A 
ATOM      5  C   UNL     1       6.095   4.831  16.743  0.00  0.00    +0.000 A 
ATOM      6  C   UNL     1       6.085   5.315  18.134  0.00  0.00    +0.000 A 
ATOM      7  C   UNL     1       6.812   6.403  18.432  0.00  0.00    +0.000 A 
ATOM      8  C   UNL     1       7.620   7.139  17.452  0.00  0.00    +0.000 A 
ATOM      9  O   UNL     1       8.267   8.123  17.786  0.00  0.00    +0.000 OA
ATOM     10  O   UNL     1       7.624   6.654  16.157  0.00  0.00    +0.000 OA
ATOM     11  C   UNL     1       6.873   5.515  15.807  0.00  0.00    +0.000 A 
ATOM     12  C   UNL     1       6.957   5.121  14.468  0.00  0.00    +0.000 A 
ENDROOT
BRANCH   6  13
ATOM     13  C   UNL     1       5.312   4.607  19.216  0.00  0.00    +0.000 C 
BRANCH  13  14
ATOM     14  O   UNL     1       4.583   5.539  20.021  0.00  0.00    +0.000 OA
BRANCH  14  15
ATOM     15  C   UNL     1       3.295   5.757  19.672  0.00  0.00    +0.000 C 
ATOM     16  O   UNL     1       2.868   6.703  19.032  0.00  0.00    +0.000 OA
BRANCH  15  17
ATOM     17  C   UNL     1       2.476   4.590  20.070  0.00  0.00    +0.000 A 
ATOM     18  C   UNL     1       2.571   4.191  21.414  0.00  0.00    +0.000 A 
ATOM     19  C   UNL     1       1.808   3.123  21.892  0.00  0.00    +0.000 A 
ATOM     20  C   UNL     1       0.944   2.448  21.033  0.00  0.00    +0.000 A 
ATOM     21  C   UNL     1       0.863   2.821  19.692  0.00  0.00    +0.000 A 
ATOM     22  C   UNL     1       1.637   3.879  19.199  0.00  0.00    +0.000 A 
ATOM     23 BR   UNL     1       1.536   4.194  17.326  0.00  0.00    +0.000 Br
ENDBRANCH  15  17
ENDBRANCH  14  15
ENDBRANCH  13  14
ENDBRANCH   6  13
TORSDOF 4
ENDMDL
MODEL 2
REMARK VINA RESULT:      -7.7      1.512      1.960
REMARK  Name = 
REMARK  5 active torsions:
REMARK  status: ('A' for Active; 'I' for Inactive)
REMARK    1  A    between atoms: C_1  and  C_2
REMARK    2  A    between atoms: C_6  and  C_7
REMARK    3  A    between atoms: C_7  and  O_8
REMARK    4  A    between atoms: O_8  and  C_9
REMARK    5  A    between atoms: C_9  and  C_11
REMARK                            x       y       z     vdW  Elec       q    Type
REMARK                         _______ _______ _______ _____ _____    ______ ____
ROOT
ATOM      1  C   UNL     1       7.436   4.216  11.752  0.00  0.00    +0.000 C 
ATOM      2  C   UNL     1       6.873   4.386  13.131  0.00  0.00    +0.000 A 
ATOM      3  C   UNL     1       5.684   3.756  13.513  0.00  0.00    +0.000 A 
ATOM      4  C   UNL     1       5.164   3.922  14.807  0.00  0.00    +0.000 A 
ATOM      5  C   UNL     1       5.819   4.726  15.749  0.00  0.00    +0.000 A 
ATOM      6  C   UNL     1       5.347   4.942  17.127  0.00  0.00    +0.000 A 
ATOM      7  C   UNL     1       6.063   5.753  17.922  0.00  0.00    +0.000 A 
ATOM      8  C   UNL     1       7.291   6.437  17.498  0.00  0.00    +0.000 A 
ATOM      9  O   UNL     1       7.903   7.162  18.270  0.00  0.00    +0.000 OA
ATOM     10  O   UNL     1       7.719   6.203  16.204  0.00  0.00    +0.000 OA
ATOM     11  C   UNL     1       6.995   5.358  15.340  0.00  0.00    +0.000 A 
ATOM     12  C   UNL     1       7.526   5.201  14.058  0.00  0.00    +0.000 A 
ENDROOT
BRANCH   6  13
ATOM     13  C   UNL     1       4.117   4.258  17.662  0.00  0.00    +0.000 C 
BRANCH  13  14
ATOM     14  O   UNL     1       2.947   5.047  17.426  0.00  0.00    +0.000 OA
BRANCH  14  15
ATOM     15  C   UNL     1       1.766   4.500  17.796  0.00  0.00    +0.000 C 
ATOM     16  O   UNL     1       0.809   4.283  17.073  0.00  0.00    +0.000 OA
BRANCH  15  17
ATOM     17  C   UNL     1       1.850   4.067  19.209  0.00  0.00    +0.000 A 
ATOM     18  C   UNL     1       1.707   2.690  19.449  0.00  0.00    +0.000 A 
ATOM     19  C   UNL     1       1.808   2.181  20.745  0.00  0.00    +0.000 A 
ATOM     20  C   UNL     1       2.055   3.042  21.811  0.00  0.00    +0.000 A 
ATOM     21  C   UNL     1       2.174   4.413  21.586  0.00  0.00    +0.000 A 
ATOM     22  C   UNL     1       2.056   4.935  20.292  0.00  0.00    +0.000 A 
ATOM     23 BR   UNL     1       2.099   6.830  20.142  0.00  0.00    +0.000 Br
ENDBRANCH  15  17
ENDBRANCH  14  15
ENDBRANCH  13  14
ENDBRANCH   6  13
TORSDOF 4
ENDMDL
MODEL 3
REMARK VINA RESULT:      -7.7      1.903      2.826
REMARK  Name = 
REMARK  5 active torsions:
REMARK  status: ('A' for Active; 'I' for Inactive)
REMARK    1  A    between atoms: C_1  and  C_2
REMARK    2  A    between atoms: C_6  and  C_7
REMARK    3  A    between atoms: C_7  and  O_8
REMARK    4  A    between atoms: O_8  and  C_9
REMARK    5  A    between atoms: C_9  and  C_11
REMARK                            x       y       z     vdW  Elec       q    Type
REMARK                         _______ _______ _______ _____ _____    ______ ____
ROOT
ATOM      1  C   UNL     1       7.487   4.741  11.314  0.00  0.00    +0.000 C 
ATOM      2  C   UNL     1       6.949   4.541  12.700  0.00  0.00    +0.000 A 
ATOM      3  C   UNL     1       5.898   3.652  12.950  0.00  0.00    +0.000 A 
ATOM      4  C   UNL     1       5.401   3.472  14.250  0.00  0.00    +0.000 A 
ATOM      5  C   UNL     1       5.940   4.180  15.332  0.00  0.00    +0.000 A 
ATOM      6  C   UNL     1       5.484   4.042  16.725  0.00  0.00    +0.000 A 
ATOM      7  C   UNL     1       6.076   4.796  17.664  0.00  0.00    +0.000 A 
ATOM      8  C   UNL     1       7.155   5.752  17.383  0.00  0.00    +0.000 A 
ATOM      9  O   UNL     1       7.659   6.410  18.283  0.00  0.00    +0.000 OA
ATOM     10  O   UNL     1       7.574   5.850  16.069  0.00  0.00    +0.000 OA
ATOM     11  C   UNL     1       6.976   5.075  15.056  0.00  0.00    +0.000 A 
ATOM     12  C   UNL     1       7.484   5.263  13.768  0.00  0.00    +0.000 A 
ENDROOT
BRANCH   6  13
ATOM     13  C   UNL     1       4.406   3.064  17.115  0.00  0.00    +0.000 C 
BRANCH  13  14
ATOM     14  O   UNL     1       3.683   3.526  18.260  0.00  0.00    +0.000 OA
BRANCH  14  15
ATOM     15  C   UNL     1       2.448   4.027  18.029  0.00  0.00    +0.000 C 
ATOM     16  O   UNL     1       1.561   3.501  17.379  0.00  0.00    +0.000 OA
BRANCH  15  17
ATOM     17  C   UNL     1       2.273   5.274  18.809  0.00  0.00    +0.000 A 
ATOM     18  C   UNL     1       2.521   6.476  18.127  0.00  0.00    +0.000 A 
ATOM     19  C   UNL     1       2.347   7.705  18.768  0.00  0.00    +0.000 A 
ATOM     20  C   UNL     1       1.923   7.742  20.093  0.00  0.00    +0.000 A 
ATOM     21  C   UNL     1       1.698   6.553  20.786  0.00  0.00    +0.000 A 
ATOM     22  C   UNL     1       1.887   5.315  20.158  0.00  0.00    +0.000 A 
ATOM     23 BR   UNL     1       1.682   3.774  21.253  0.00  0.00    +0.000 Br
ENDBRANCH  15  17
ENDBRANCH  14  15
ENDBRANCH  13  14
ENDBRANCH   6  13
TORSDOF 4
ENDMDL
MODEL 4
REMARK VINA RESULT:      -7.6      2.540      6.442
REMARK  Name = 
REMARK  5 active torsions:
REMARK  status: ('A' for Active; 'I' for Inactive)
REMARK    1  A    between atoms: C_1  and  C_2
REMARK    2  A    between atoms: C_6  and  C_7
REMARK    3  A    between atoms: C_7  and  O_8
REMARK    4  A    between atoms: O_8  and  C_9
REMARK    5  A    between atoms: C_9  and  C_11
REMARK                            x       y       z     vdW  Elec       q    Type
REMARK                         _______ _______ _______ _____ _____    ______ ____
ROOT
ATOM      1  C   UNL     1       1.516   9.429  19.305  0.00  0.00    +0.000 C 
ATOM      2  C   UNL     1       1.899   7.983  19.190  0.00  0.00    +0.000 A 
ATOM      3  C   UNL     1       2.389   7.455  17.991  0.00  0.00    +0.000 A 
ATOM      4  C   UNL     1       2.745   6.100  17.894  0.00  0.00    +0.000 A 
ATOM      5  C   UNL     1       2.614   5.240  18.991  0.00  0.00    +0.000 A 
ATOM      6  C   UNL     1       2.974   3.812  18.975  0.00  0.00    +0.000 A 
ATOM      7  C   UNL     1       2.780   3.097  20.094  0.00  0.00    +0.000 A 
ATOM      8  C   UNL     1       2.231   3.656  21.336  0.00  0.00    +0.000 A 
ATOM      9  O   UNL     1       2.081   2.953  22.327  0.00  0.00    +0.000 OA
ATOM     10  O   UNL     1       1.917   5.002  21.328  0.00  0.00    +0.000 OA
ATOM     11  C   UNL     1       2.106   5.785  20.172  0.00  0.00    +0.000 A 
ATOM     12  C   UNL     1       1.751   7.132  20.286  0.00  0.00    +0.000 A 
ENDROOT
BRANCH   6  13
ATOM     13  C   UNL     1       3.573   3.158  17.758  0.00  0.00    +0.000 C 
BRANCH  13  14
ATOM     14  O   UNL     1       5.002   3.228  17.788  0.00  0.00    +0.000 OA
BRANCH  14  15
ATOM     15  C   UNL     1       5.594   3.895  16.772  0.00  0.00    +0.000 C 
ATOM     16  O   UNL     1       5.445   3.682  15.581  0.00  0.00    +0.000 OA
BRANCH  15  17
ATOM     17  C   UNL     1       6.363   5.037  17.318  0.00  0.00    +0.000 A 
ATOM     18  C   UNL     1       7.154   4.772  18.448  0.00  0.00    +0.000 A 
ATOM     19  C   UNL     1       7.943   5.776  19.013  0.00  0.00    +0.000 A 
ATOM     20  C   UNL     1       7.951   7.050  18.452  0.00  0.00    +0.000 A 
ATOM     21  C   UNL     1       7.150   7.329  17.345  0.00  0.00    +0.000 A 
ATOM     22  C   UNL     1       6.341   6.333  16.783  0.00  0.00    +0.000 A 
ATOM     23 BR   UNL     1       5.195   6.880  15.367  0.00  0.00    +0.000 Br
ENDBRANCH  15  17
ENDBRANCH  14  15
ENDBRANCH  13  14
ENDBRANCH   6  13
TORSDOF 4
ENDMDL
MODEL 5
REMARK VINA RESULT:      -7.6      2.135      4.053
REMARK  Name = 
REMARK  5 active torsions:
REMARK  status: ('A' for Active; 'I' for Inactive)
REMARK    1  A    between atoms: C_1  and  C_2
REMARK    2  A    between atoms: C_6  and  C_7
REMARK    3  A    between atoms: C_7  and  O_8
REMARK    4  A    between atoms: O_8  and  C_9
REMARK    5  A    between atoms: C_9  and  C_11
REMARK                            x       y       z     vdW  Elec       q    Type
REMARK                         _______ _______ _______ _____ _____    ______ ____
ROOT
ATOM      1  C   UNL     1       8.194   8.185  18.352  0.00  0.00    +0.000 C 
ATOM      2  C   UNL     1       7.385   7.025  17.853  0.00  0.00    +0.000 A 
ATOM      3  C   UNL     1       6.463   6.373  18.679  0.00  0.00    +0.000 A 
ATOM      4  C   UNL     1       5.711   5.288  18.202  0.00  0.00    +0.000 A 
ATOM      5  C   UNL     1       5.865   4.826  16.889  0.00  0.00    +0.000 A 
ATOM      6  C   UNL     1       5.108   3.704  16.309  0.00  0.00    +0.000 A 
ATOM      7  C   UNL     1       5.368   3.352  15.040  0.00  0.00    +0.000 A 
ATOM      8  C   UNL     1       6.363   4.023  14.194  0.00  0.00    +0.000 A 
ATOM      9  O   UNL     1       6.553   3.659  13.041  0.00  0.00    +0.000 OA
ATOM     10  O   UNL     1       7.048   5.083  14.759  0.00  0.00    +0.000 OA
ATOM     11  C   UNL     1       6.802   5.481  16.088  0.00  0.00    +0.000 A 
ATOM     12  C   UNL     1       7.557   6.564  16.546  0.00  0.00    +0.000 A 
ENDROOT
BRANCH   6  13
ATOM     13  C   UNL     1       4.044   2.976  17.089  0.00  0.00    +0.000 C 
BRANCH  13  14
ATOM     14  O   UNL     1       2.749   3.525  16.827  0.00  0.00    +0.000 OA
BRANCH  14  15
ATOM     15  C   UNL     1       1.854   3.466  17.840  0.00  0.00    +0.000 C 
ATOM     16  O   UNL     1       1.144   2.518  18.125  0.00  0.00    +0.000 OA
BRANCH  15  17
ATOM     17  C   UNL     1       1.959   4.697  18.657  0.00  0.00    +0.000 A 
ATOM     18  C   UNL     1       2.262   5.881  17.965  0.00  0.00    +0.000 A 
ATOM     19  C   UNL     1       2.345   7.098  18.644  0.00  0.00    +0.000 A 
ATOM     20  C   UNL     1       2.123   7.143  20.018  0.00  0.00    +0.000 A 
ATOM     21  C   UNL     1       1.846   5.969  20.717  0.00  0.00    +0.000 A 
ATOM     22  C   UNL     1       1.779   4.740  20.048  0.00  0.00    +0.000 A 
ATOM     23 BR   UNL     1       1.532   3.201  21.137  0.00  0.00    +0.000 Br
ENDBRANCH  15  17
ENDBRANCH  14  15
ENDBRANCH  13  14
ENDBRANCH   6  13
TORSDOF 4
ENDMDL
MODEL 6
REMARK VINA RESULT:      -7.6      2.442      4.533
REMARK  Name = 
REMARK  5 active torsions:
REMARK  status: ('A' for Active; 'I' for Inactive)
REMARK    1  A    between atoms: C_1  and  C_2
REMARK    2  A    between atoms: C_6  and  C_7
REMARK    3  A    between atoms: C_7  and  O_8
REMARK    4  A    between atoms: O_8  and  C_9
REMARK    5  A    between atoms: C_9  and  C_11
REMARK                            x       y       z     vdW  Elec       q    Type
REMARK                         _______ _______ _______ _____ _____    ______ ____
ROOT
ATOM      1  C   UNL     1       0.352   9.825  18.943  0.00  0.00    +0.000 C 
ATOM      2  C   UNL     1       1.424   8.778  18.894  0.00  0.00    +0.000 A 
ATOM      3  C   UNL     1       1.705   7.973  20.003  0.00  0.00    +0.000 A 
ATOM      4  C   UNL     1       2.712   6.996  19.947  0.00  0.00    +0.000 A 
ATOM      5  C   UNL     1       3.464   6.803  18.782  0.00  0.00    +0.000 A 
ATOM      6  C   UNL     1       4.528   5.794  18.638  0.00  0.00    +0.000 A 
ATOM      7  C   UNL     1       5.185   5.728  17.470  0.00  0.00    +0.000 A 
ATOM      8  C   UNL     1       4.904   6.602  16.324  0.00  0.00    +0.000 A 
ATOM      9  O   UNL     1       5.535   6.491  15.282  0.00  0.00    +0.000 OA
ATOM     10  O   UNL     1       3.890   7.530  16.482  0.00  0.00    +0.000 OA
ATOM     11  C   UNL     1       3.178   7.629  17.694  0.00  0.00    +0.000 A 
ATOM     12  C   UNL     1       2.178   8.604  17.732  0.00  0.00    +0.000 A 
ENDROOT
BRANCH   6  13
ATOM     13  C   UNL     1       4.865   4.832  19.747  0.00  0.00    +0.000 C 
BRANCH  13  14
ATOM     14  O   UNL     1       5.233   3.552  19.222  0.00  0.00    +0.000 OA
BRANCH  14  15
ATOM     15  C   UNL     1       4.644   2.476  19.792  0.00  0.00    +0.000 C 
ATOM     16  O   UNL     1       5.208   1.493  20.241  0.00  0.00    +0.000 OA
BRANCH  15  17
ATOM     17  C   UNL     1       3.189   2.725  19.918  0.00  0.00    +0.000 A 
ATOM     18  C   UNL     1       2.674   2.759  21.225  0.00  0.00    +0.000 A 
ATOM     19  C   UNL     1       1.321   3.024  21.447  0.00  0.00    +0.000 A 
ATOM     20  C   UNL     1       0.474   3.258  20.367  0.00  0.00    +0.000 A 
ATOM     21  C   UNL     1       0.971   3.201  19.066  0.00  0.00    +0.000 A 
ATOM     22  C   UNL     1       2.323   2.919  18.832  0.00  0.00    +0.000 A 
ATOM     23 BR   UNL     1       2.841   2.733  17.012  0.00  0.00    +0.000 Br
ENDBRANCH  15  17
ENDBRANCH  14  15
ENDBRANCH  13  14
ENDBRANCH   6  13
TORSDOF 4
ENDMDL
MODEL 7
REMARK VINA RESULT:      -7.5      4.287      5.710
REMARK  Name = 
REMARK  5 active torsions:
REMARK  status: ('A' for Active; 'I' for Inactive)
REMARK    1  A    between atoms: C_1  and  C_2
REMARK    2  A    between atoms: C_6  and  C_7
REMARK    3  A    between atoms: C_7  and  O_8
REMARK    4  A    between atoms: O_8  and  C_9
REMARK    5  A    between atoms: C_9  and  C_11
REMARK                            x       y       z     vdW  Elec       q    Type
REMARK                         _______ _______ _______ _____ _____    ______ ____
ROOT
ATOM      1  C   UNL     1       7.094   4.205  16.127  0.00  0.00    +0.000 C 
ATOM      2  C   UNL     1       5.957   4.951  16.759  0.00  0.00    +0.000 A 
ATOM      3  C   UNL     1       5.488   6.154  16.219  0.00  0.00    +0.000 A 
ATOM      4  C   UNL     1       4.423   6.846  16.818  0.00  0.00    +0.000 A 
ATOM      5  C   UNL     1       3.805   6.355  17.975  0.00  0.00    +0.000 A 
ATOM      6  C   UNL     1       2.678   7.012  18.657  0.00  0.00    +0.000 A 
ATOM      7  C   UNL     1       2.191   6.442  19.770  0.00  0.00    +0.000 A 
ATOM      8  C   UNL     1       2.715   5.198  20.348  0.00  0.00    +0.000 A 
ATOM      9  O   UNL     1       2.226   4.724  21.364  0.00  0.00    +0.000 OA
ATOM     10  O   UNL     1       3.763   4.594  19.677  0.00  0.00    +0.000 OA
ATOM     11  C   UNL     1       4.301   5.163  18.506  0.00  0.00    +0.000 A 
ATOM     12  C   UNL     1       5.357   4.460  17.920  0.00  0.00    +0.000 A 
ENDROOT
BRANCH   6  13
ATOM     13  C   UNL     1       2.052   8.274  18.122  0.00  0.00    +0.000 C 
BRANCH  13  14
ATOM     14  O   UNL     1       1.709   9.168  19.185  0.00  0.00    +0.000 OA
BRANCH  14  15
ATOM     15  C   UNL     1       0.507   9.780  19.092  0.00  0.00    +0.000 C 
ATOM     16  O   UNL     1      -0.127   9.983  18.071  0.00  0.00    +0.000 OA
BRANCH  15  17
ATOM     17  C   UNL     1      -0.007  10.057  20.453  0.00  0.00    +0.000 A 
ATOM     18  C   UNL     1      -0.021   8.973  21.347  0.00  0.00    +0.000 A 
ATOM     19  C   UNL     1      -0.453   9.145  22.664  0.00  0.00    +0.000 A 
ATOM     20  C   UNL     1      -0.873  10.399  23.098  0.00  0.00    +0.000 A 
ATOM     21  C   UNL     1      -0.886  11.475  22.211  0.00  0.00    +0.000 A 
ATOM     22  C   UNL     1      -0.472  11.309  20.884  0.00  0.00    +0.000 A 
ATOM     23 BR   UNL     1      -0.670  12.819  19.745  0.00  0.00    +0.000 Br
ENDBRANCH  15  17
ENDBRANCH  14  15
ENDBRANCH  13  14
ENDBRANCH   6  13
TORSDOF 4
ENDMDL
MODEL 8
REMARK VINA RESULT:      -7.3      1.860      2.060
REMARK  Name = 
REMARK  5 active torsions:
REMARK  status: ('A' for Active; 'I' for Inactive)
REMARK    1  A    between atoms: C_1  and  C_2
REMARK    2  A    between atoms: C_6  and  C_7
REMARK    3  A    between atoms: C_7  and  O_8
REMARK    4  A    between atoms: O_8  and  C_9
REMARK    5  A    between atoms: C_9  and  C_11
REMARK                            x       y       z     vdW  Elec       q    Type
REMARK                         _______ _______ _______ _____ _____    ______ ____
ROOT
ATOM      1  C   UNL     1       6.506   3.654  12.932  0.00  0.00    +0.000 C 
ATOM      2  C   UNL     1       6.169   4.175  14.297  0.00  0.00    +0.000 A 
ATOM      3  C   UNL     1       4.892   4.665  14.593  0.00  0.00    +0.000 A 
ATOM      4  C   UNL     1       4.587   5.151  15.874  0.00  0.00    +0.000 A 
ATOM      5  C   UNL     1       5.552   5.164  16.889  0.00  0.00    +0.000 A 
ATOM      6  C   UNL     1       5.310   5.646  18.259  0.00  0.00    +0.000 A 
ATOM      7  C   UNL     1       6.331   5.620  19.130  0.00  0.00    +0.000 A 
ATOM      8  C   UNL     1       7.677   5.136  18.797  0.00  0.00    +0.000 A 
ATOM      9  O   UNL     1       8.567   5.133  19.636  0.00  0.00    +0.000 OA
ATOM     10  O   UNL     1       7.871   4.675  17.508  0.00  0.00    +0.000 OA
ATOM     11  C   UNL     1       6.824   4.687  16.566  0.00  0.00    +0.000 A 
ATOM     12  C   UNL     1       7.143   4.197  15.297  0.00  0.00    +0.000 A 
ENDROOT
BRANCH   6  13
ATOM     13  C   UNL     1       3.955   6.131  18.703  0.00  0.00    +0.000 C 
BRANCH  13  14
ATOM     14  O   UNL     1       3.704   5.778  20.067  0.00  0.00    +0.000 OA
BRANCH  14  15
ATOM     15  C   UNL     1       2.733   4.862  20.283  0.00  0.00    +0.000 C 
ATOM     16  O   UNL     1       1.673   5.049  20.856  0.00  0.00    +0.000 OA
BRANCH  15  17
ATOM     17  C   UNL     1       3.086   3.601  19.591  0.00  0.00    +0.000 A 
ATOM     18  C   UNL     1       4.097   2.827  20.184  0.00  0.00    +0.000 A 
ATOM     19  C   UNL     1       4.474   1.604  19.625  0.00  0.00    +0.000 A 
ATOM     20  C   UNL     1       3.844   1.145  18.471  0.00  0.00    +0.000 A 
ATOM     21  C   UNL     1       2.857   1.919  17.861  0.00  0.00    +0.000 A 
ATOM     22  C   UNL     1       2.485   3.155  18.405  0.00  0.00    +0.000 A 
ATOM     23 BR   UNL     1       1.230   4.172  17.401  0.00  0.00    +0.000 Br
ENDBRANCH  15  17
ENDBRANCH  14  15
ENDBRANCH  13  14
ENDBRANCH   6  13
TORSDOF 4
ENDMDL
MODEL 9
REMARK VINA RESULT:      -7.3      1.197      1.707
REMARK  Name = 
REMARK  5 active torsions:
REMARK  status: ('A' for Active; 'I' for Inactive)
REMARK    1  A    between atoms: C_1  and  C_2
REMARK    2  A    between atoms: C_6  and  C_7
REMARK    3  A    between atoms: C_7  and  O_8
REMARK    4  A    between atoms: O_8  and  C_9
REMARK    5  A    between atoms: C_9  and  C_11
REMARK                            x       y       z     vdW  Elec       q    Type
REMARK                         _______ _______ _______ _____ _____    ______ ____
ROOT
ATOM      1  C   UNL     1       6.248   3.680  12.553  0.00  0.00    +0.000 C 
ATOM      2  C   UNL     1       6.179   4.045  14.007  0.00  0.00    +0.000 A 
ATOM      3  C   UNL     1       5.373   3.329  14.898  0.00  0.00    +0.000 A 
ATOM      4  C   UNL     1       5.315   3.679  16.257  0.00  0.00    +0.000 A 
ATOM      5  C   UNL     1       6.058   4.755  16.756  0.00  0.00    +0.000 A 
ATOM      6  C   UNL     1       6.062   5.179  18.166  0.00  0.00    +0.000 A 
ATOM      7  C   UNL     1       6.808   6.241  18.507  0.00  0.00    +0.000 A 
ATOM      8  C   UNL     1       7.624   7.006  17.555  0.00  0.00    +0.000 A 
ATOM      9  O   UNL     1       8.287   7.964  17.927  0.00  0.00    +0.000 OA
ATOM     10  O   UNL     1       7.614   6.576  16.240  0.00  0.00    +0.000 OA
ATOM     11  C   UNL     1       6.843   5.466  15.845  0.00  0.00    +0.000 A 
ATOM     12  C   UNL     1       6.914   5.128  14.491  0.00  0.00    +0.000 A 
ENDROOT
BRANCH   6  13
ATOM     13  C   UNL     1       5.283   4.437  19.221  0.00  0.00    +0.000 C 
BRANCH  13  14
ATOM     14  O   UNL     1       4.484   5.336  19.996  0.00  0.00    +0.000 OA
BRANCH  14  15
ATOM     15  C   UNL     1       3.346   5.782  19.418  0.00  0.00    +0.000 C 
ATOM     16  O   UNL     1       3.094   6.933  19.108  0.00  0.00    +0.000 OA
BRANCH  15  17
ATOM     17  C   UNL     1       2.482   4.626  19.083  0.00  0.00    +0.000 A 
ATOM     18  C   UNL     1       2.090   4.510  17.739  0.00  0.00    +0.000 A 
ATOM     19  C   UNL     1       1.306   3.433  17.320  0.00  0.00    +0.000 A 
ATOM     20  C   UNL     1       0.910   2.464  18.238  0.00  0.00    +0.000 A 
ATOM     21  C   UNL     1       1.273   2.585  19.579  0.00  0.00    +0.000 A 
ATOM     22  C   UNL     1       2.044   3.671  20.013  0.00  0.00    +0.000 A 
ATOM     23 BR   UNL     1       2.352   3.791  21.886  0.00  0.00    +0.000 Br
ENDBRANCH  15  17
ENDBRANCH  14  15
ENDBRANCH  13  14
ENDBRANCH   6  13
TORSDOF 4
ENDMDL
