MODEL 1
REMARK VINA RESULT:      -7.2      0.000      0.000
REMARK  Name = 
REMARK  5 active torsions:
REMARK  status: ('A' for Active; 'I' for Inactive)
REMARK    1  A    between atoms: C_1  and  C_2
REMARK    2  A    between atoms: C_7  and  C_8
REMARK    3  A    between atoms: C_8  and  N_9
REMARK    4  A    between atoms: C_15  and  C_16
REMARK    5  A    between atoms: C_19  and  C_20
REMARK                            x       y       z     vdW  Elec       q    Type
REMARK                         _______ _______ _______ _____ _____    ______ ____
ROOT
ATOM      1  N   UNL     1       2.266   6.461  19.716  0.00  0.00    +0.000 N 
ATOM      2  C   UNL     1       1.343   5.636  20.329  0.00  0.00    +0.000 A 
ATOM      3  N   UNL     1       1.325   4.346  20.274  0.00  0.00    +0.000 NA
ATOM      4  C   UNL     1       2.286   3.810  19.484  0.00  0.00    +0.000 A 
ATOM      5  S   UNL     1       2.377   2.121  19.290  0.00  0.00    +0.000 S 
ATOM      6  C   UNL     1       3.628   2.270  18.143  0.00  0.00    +0.000 A 
ATOM      7  C   UNL     1       3.997   3.584  17.920  0.00  0.00    +0.000 A 
ATOM      8  C   UNL     1       3.250   4.488  18.758  0.00  0.00    +0.000 A 
ATOM      9  C   UNL     1       3.301   5.939  18.928  0.00  0.00    +0.000 A 
ATOM     10  O   UNL     1       4.178   6.655  18.455  0.00  0.00    +0.000 OA
ENDROOT
BRANCH   7  11
ATOM     11  C   UNL     1       5.033   3.925  16.890  0.00  0.00    +0.000 A 
ATOM     12  C   UNL     1       6.279   4.487  17.130  0.00  0.00    +0.000 A 
ATOM     13  C   UNL     1       6.937   4.600  15.881  0.00  0.00    +0.000 A 
ATOM     14  C   UNL     1       6.054   4.116  14.944  0.00  0.00    +0.000 A 
ATOM     15  C   UNL     1       6.101   3.973  13.478  0.00  0.00    +0.000 C 
ATOM     16  O   UNL     1       4.915   3.696  15.550  0.00  0.00    +0.000 OA
ENDBRANCH   7  11
BRANCH   1  17
ATOM     17  C   UNL     1       2.187   7.905  19.940  0.00  0.00    +0.000 C 
BRANCH  17  24
ATOM     18  C   UNL     1       1.134  13.331  18.410  0.00  0.00    +0.000 C 
ATOM     19  C   UNL     1       0.664  12.265  19.366  0.00  0.00    +0.000 C 
ATOM     20  O   UNL     1      -0.184  12.506  20.221  0.00  0.00    +0.000 OA
ATOM     21  N   UNL     1       1.176  10.997  19.176  0.00  0.00    +0.000 N 
ATOM     22  C   UNL     1       2.151  10.583  18.186  0.00  0.00    +0.000 C 
ATOM     23  C   UNL     1       1.635   9.220  17.769  0.00  0.00    +0.000 C 
ATOM     24  C   UNL     1       1.118   8.609  19.083  0.00  0.00    +0.000 C 
ATOM     25  C   UNL     1       0.555   9.842  19.817  0.00  0.00    +0.000 C 
ENDBRANCH  17  24
ENDBRANCH   1  17
TORSDOF 3
ENDMDL
MODEL 2
REMARK VINA RESULT:      -7.2      1.217      1.370
REMARK  Name = 
REMARK  5 active torsions:
REMARK  status: ('A' for Active; 'I' for Inactive)
REMARK    1  A    between atoms: C_1  and  C_2
REMARK    2  A    between atoms: C_7  and  C_8
REMARK    3  A    between atoms: C_8  and  N_9
REMARK    4  A    between atoms: C_15  and  C_16
REMARK    5  A    between atoms: C_19  and  C_20
REMARK                            x       y       z     vdW  Elec       q    Type
REMARK                         _______ _______ _______ _____ _____    ______ ____
ROOT
ATOM      1  N   UNL     1       2.464   7.282  19.097  0.00  0.00    +0.000 N 
ATOM      2  C   UNL     1       1.788   6.609  20.096  0.00  0.00    +0.000 A 
ATOM      3  N   UNL     1       2.013   5.397  20.481  0.00  0.00    +0.000 NA
ATOM      4  C   UNL     1       2.971   4.757  19.768  0.00  0.00    +0.000 A 
ATOM      5  S   UNL     1       3.365   3.143  20.138  0.00  0.00    +0.000 S 
ATOM      6  C   UNL     1       4.436   3.048  18.816  0.00  0.00    +0.000 A 
ATOM      7  C   UNL     1       4.519   4.233  18.108  0.00  0.00    +0.000 A 
ATOM      8  C   UNL     1       3.705   5.260  18.707  0.00  0.00    +0.000 A 
ATOM      9  C   UNL     1       3.491   6.667  18.369  0.00  0.00    +0.000 A 
ATOM     10  O   UNL     1       4.159   7.283  17.545  0.00  0.00    +0.000 OA
ENDROOT
BRANCH   7  11
ATOM     11  C   UNL     1       5.355   4.327  16.865  0.00  0.00    +0.000 A 
ATOM     12  C   UNL     1       6.658   4.797  16.784  0.00  0.00    +0.000 A 
ATOM     13  C   UNL     1       7.067   4.671  15.434  0.00  0.00    +0.000 A 
ATOM     14  C   UNL     1       5.989   4.145  14.761  0.00  0.00    +0.000 A 
ATOM     15  C   UNL     1       5.740   3.794  13.351  0.00  0.00    +0.000 C 
ATOM     16  O   UNL     1       4.964   3.924  15.622  0.00  0.00    +0.000 OA
ENDBRANCH   7  11
BRANCH   1  17
ATOM     17  C   UNL     1       2.132   8.682  18.835  0.00  0.00    +0.000 C 
BRANCH  17  24
ATOM     18  C   UNL     1      -0.426  13.349  20.975  0.00  0.00    +0.000 C 
ATOM     19  C   UNL     1       0.063  11.983  21.382  0.00  0.00    +0.000 C 
ATOM     20  O   UNL     1       0.037  11.623  22.556  0.00  0.00    +0.000 OA
ATOM     21  N   UNL     1       0.462  11.142  20.364  0.00  0.00    +0.000 N 
ATOM     22  C   UNL     1       0.506  11.439  18.945  0.00  0.00    +0.000 C 
ATOM     23  C   UNL     1       0.040  10.137  18.324  0.00  0.00    +0.000 C 
ATOM     24  C   UNL     1       0.686   9.058  19.212  0.00  0.00    +0.000 C 
ATOM     25  C   UNL     1       0.638   9.712  20.607  0.00  0.00    +0.000 C 
ENDBRANCH  17  24
ENDBRANCH   1  17
TORSDOF 3
ENDMDL
MODEL 3
REMARK VINA RESULT:      -7.1      1.395      1.678
REMARK  Name = 
REMARK  5 active torsions:
REMARK  status: ('A' for Active; 'I' for Inactive)
REMARK    1  A    between atoms: C_1  and  C_2
REMARK    2  A    between atoms: C_7  and  C_8
REMARK    3  A    between atoms: C_8  and  N_9
REMARK    4  A    between atoms: C_15  and  C_16
REMARK    5  A    between atoms: C_19  and  C_20
REMARK                            x       y       z     vdW  Elec       q    Type
REMARK                         _______ _______ _______ _____ _____    ______ ____
ROOT
ATOM      1  N   UNL     1       2.180   6.636  19.889  0.00  0.00    +0.000 N 
ATOM      2  C   UNL     1       1.523   5.818  20.787  0.00  0.00    +0.000 A 
ATOM      3  N   UNL     1       1.821   4.591  21.053  0.00  0.00    +0.000 NA
ATOM      4  C   UNL     1       2.843   4.094  20.315  0.00  0.00    +0.000 A 
ATOM      5  S   UNL     1       3.338   2.481  20.533  0.00  0.00    +0.000 S 
ATOM      6  C   UNL     1       4.453   2.597  19.249  0.00  0.00    +0.000 A 
ATOM      7  C   UNL     1       4.474   3.853  18.671  0.00  0.00    +0.000 A 
ATOM      8  C   UNL     1       3.572   4.754  19.340  0.00  0.00    +0.000 A 
ATOM      9  C   UNL     1       3.270   6.171  19.141  0.00  0.00    +0.000 A 
ATOM     10  O   UNL     1       3.918   6.914  18.411  0.00  0.00    +0.000 OA
ENDROOT
BRANCH   7  11
ATOM     11  C   UNL     1       5.340   4.133  17.477  0.00  0.00    +0.000 A 
ATOM     12  C   UNL     1       6.615   4.677  17.495  0.00  0.00    +0.000 A 
ATOM     13  C   UNL     1       7.070   4.728  16.155  0.00  0.00    +0.000 A 
ATOM     14  C   UNL     1       6.044   4.226  15.389  0.00  0.00    +0.000 A 
ATOM     15  C   UNL     1       5.857   4.025  13.940  0.00  0.00    +0.000 C 
ATOM     16  O   UNL     1       5.008   3.854  16.183  0.00  0.00    +0.000 OA
ENDBRANCH   7  11
BRANCH   1  17
ATOM     17  C   UNL     1       1.759   8.032  19.760  0.00  0.00    +0.000 C 
BRANCH  17  24
ATOM     18  C   UNL     1      -1.141  12.788  21.124  0.00  0.00    +0.000 C 
ATOM     19  C   UNL     1       0.246  12.203  21.166  0.00  0.00    +0.000 C 
ATOM     20  O   UNL     1       1.209  12.874  21.528  0.00  0.00    +0.000 OA
ATOM     21  N   UNL     1       0.360  10.863  20.856  0.00  0.00    +0.000 N 
ATOM     22  C   UNL     1      -0.701   9.962  20.449  0.00  0.00    +0.000 C 
ATOM     23  C   UNL     1      -0.331   8.677  21.163  0.00  0.00    +0.000 C 
ATOM     24  C   UNL     1       1.204   8.635  21.065  0.00  0.00    +0.000 C 
ATOM     25  C   UNL     1       1.579  10.126  21.179  0.00  0.00    +0.000 C 
ENDBRANCH  17  24
ENDBRANCH   1  17
TORSDOF 3
ENDMDL
MODEL 4
REMARK VINA RESULT:      -7.0      3.016      4.630
REMARK  Name = 
REMARK  5 active torsions:
REMARK  status: ('A' for Active; 'I' for Inactive)
REMARK    1  A    between atoms: C_1  and  C_2
REMARK    2  A    between atoms: C_7  and  C_8
REMARK    3  A    between atoms: C_8  and  N_9
REMARK    4  A    between atoms: C_15  and  C_16
REMARK    5  A    between atoms: C_19  and  C_20
REMARK                            x       y       z     vdW  Elec       q    Type
REMARK                         _______ _______ _______ _____ _____    ______ ____
ROOT
ATOM      1  N   UNL     1       4.071   3.766  18.634  0.00  0.00    +0.000 N 
ATOM      2  C   UNL     1       3.750   2.994  17.534  0.00  0.00    +0.000 A 
ATOM      3  N   UNL     1       4.375   2.987  16.404  0.00  0.00    +0.000 NA
ATOM      4  C   UNL     1       5.394   3.876  16.327  0.00  0.00    +0.000 A 
ATOM      5  S   UNL     1       6.300   4.004  14.892  0.00  0.00    +0.000 S 
ATOM      6  C   UNL     1       7.190   5.318  15.511  0.00  0.00    +0.000 A 
ATOM      7  C   UNL     1       6.827   5.649  16.803  0.00  0.00    +0.000 A 
ATOM      8  C   UNL     1       5.814   4.758  17.308  0.00  0.00    +0.000 A 
ATOM      9  C   UNL     1       5.146   4.664  18.606  0.00  0.00    +0.000 A 
ATOM     10  O   UNL     1       5.497   5.285  19.604  0.00  0.00    +0.000 OA
ENDROOT
BRANCH   7  11
ATOM     11  C   UNL     1       7.448   6.827  17.496  0.00  0.00    +0.000 A 
ATOM     12  C   UNL     1       8.166   6.800  18.682  0.00  0.00    +0.000 A 
ATOM     13  C   UNL     1       8.597   8.123  18.945  0.00  0.00    +0.000 A 
ATOM     14  C   UNL     1       8.106   8.890  17.914  0.00  0.00    +0.000 A 
ATOM     15  C   UNL     1       8.169  10.328  17.594  0.00  0.00    +0.000 C 
ATOM     16  O   UNL     1       7.428   8.110  17.034  0.00  0.00    +0.000 OA
ENDBRANCH   7  11
BRANCH   1  17
ATOM     17  C   UNL     1       3.302   3.598  19.867  0.00  0.00    +0.000 C 
BRANCH  17  24
ATOM     18  C   UNL     1       1.474   8.998  19.238  0.00  0.00    +0.000 C 
ATOM     19  C   UNL     1       1.701   7.948  20.294  0.00  0.00    +0.000 C 
ATOM     20  O   UNL     1       1.553   8.202  21.486  0.00  0.00    +0.000 OA
ATOM     21  N   UNL     1       2.002   6.677  19.846  0.00  0.00    +0.000 N 
ATOM     22  C   UNL     1       2.169   6.248  18.471  0.00  0.00    +0.000 C 
ATOM     23  C   UNL     1       1.520   4.877  18.475  0.00  0.00    +0.000 C 
ATOM     24  C   UNL     1       1.924   4.288  19.837  0.00  0.00    +0.000 C 
ATOM     25  C   UNL     1       1.917   5.532  20.747  0.00  0.00    +0.000 C 
ENDBRANCH  17  24
ENDBRANCH   1  17
TORSDOF 3
ENDMDL
MODEL 5
REMARK VINA RESULT:      -6.9      1.344      1.474
REMARK  Name = 
REMARK  5 active torsions:
REMARK  status: ('A' for Active; 'I' for Inactive)
REMARK    1  A    between atoms: C_1  and  C_2
REMARK    2  A    between atoms: C_7  and  C_8
REMARK    3  A    between atoms: C_8  and  N_9
REMARK    4  A    between atoms: C_15  and  C_16
REMARK    5  A    between atoms: C_19  and  C_20
REMARK                            x       y       z     vdW  Elec       q    Type
REMARK                         _______ _______ _______ _____ _____    ______ ____
ROOT
ATOM      1  N   UNL     1       2.364   6.553  19.233  0.00  0.00    +0.000 N 
ATOM      2  C   UNL     1       1.476   5.740  19.911  0.00  0.00    +0.000 A 
ATOM      3  N   UNL     1       1.493   4.449  19.929  0.00  0.00    +0.000 NA
ATOM      4  C   UNL     1       2.454   3.894  19.151  0.00  0.00    +0.000 A 
ATOM      5  S   UNL     1       2.588   2.201  19.051  0.00  0.00    +0.000 S 
ATOM      6  C   UNL     1       3.813   2.318  17.871  0.00  0.00    +0.000 A 
ATOM      7  C   UNL     1       4.140   3.626  17.568  0.00  0.00    +0.000 A 
ATOM      8  C   UNL     1       3.385   4.556  18.369  0.00  0.00    +0.000 A 
ATOM      9  C   UNL     1       3.398   6.015  18.455  0.00  0.00    +0.000 A 
ATOM     10  O   UNL     1       4.246   6.726  17.925  0.00  0.00    +0.000 OA
ENDROOT
BRANCH   7  11
ATOM     11  C   UNL     1       5.147   3.936  16.499  0.00  0.00    +0.000 A 
ATOM     12  C   UNL     1       6.385   4.536  16.682  0.00  0.00    +0.000 A 
ATOM     13  C   UNL     1       7.014   4.599  15.415  0.00  0.00    +0.000 A 
ATOM     14  C   UNL     1       6.123   4.048  14.524  0.00  0.00    +0.000 A 
ATOM     15  C   UNL     1       6.143   3.831  13.066  0.00  0.00    +0.000 C 
ATOM     16  O   UNL     1       5.006   3.636  15.176  0.00  0.00    +0.000 OA
ENDBRANCH   7  11
BRANCH   1  17
ATOM     17  C   UNL     1       2.249   8.004  19.378  0.00  0.00    +0.000 C 
BRANCH  17  24
ATOM     18  C   UNL     1      -1.611  12.010  17.982  0.00  0.00    +0.000 C 
ATOM     19  C   UNL     1      -1.376  10.524  17.904  0.00  0.00    +0.000 C 
ATOM     20  O   UNL     1      -2.245   9.763  17.485  0.00  0.00    +0.000 OA
ATOM     21  N   UNL     1      -0.116  10.079  18.251  0.00  0.00    +0.000 N 
ATOM     22  C   UNL     1       0.997  10.878  18.726  0.00  0.00    +0.000 C 
ATOM     23  C   UNL     1       2.182  10.229  18.038  0.00  0.00    +0.000 C 
ATOM     24  C   UNL     1       1.849   8.728  18.078  0.00  0.00    +0.000 C 
ATOM     25  C   UNL     1       0.317   8.728  17.904  0.00  0.00    +0.000 C 
ENDBRANCH  17  24
ENDBRANCH   1  17
TORSDOF 3
ENDMDL
MODEL 6
REMARK VINA RESULT:      -6.7      1.804      2.252
REMARK  Name = 
REMARK  5 active torsions:
REMARK  status: ('A' for Active; 'I' for Inactive)
REMARK    1  A    between atoms: C_1  and  C_2
REMARK    2  A    between atoms: C_7  and  C_8
REMARK    3  A    between atoms: C_8  and  N_9
REMARK    4  A    between atoms: C_15  and  C_16
REMARK    5  A    between atoms: C_19  and  C_20
REMARK                            x       y       z     vdW  Elec       q    Type
REMARK                         _______ _______ _______ _____ _____    ______ ____
ROOT
ATOM      1  N   UNL     1       1.766   6.089  20.399  0.00  0.00    +0.000 N 
ATOM      2  C   UNL     1       0.830   5.098  20.623  0.00  0.00    +0.000 A 
ATOM      3  N   UNL     1       0.869   3.897  20.150  0.00  0.00    +0.000 NA
ATOM      4  C   UNL     1       1.914   3.660  19.320  0.00  0.00    +0.000 A 
ATOM      5  S   UNL     1       2.090   2.130  18.596  0.00  0.00    +0.000 S 
ATOM      6  C   UNL     1       3.425   2.661  17.680  0.00  0.00    +0.000 A 
ATOM      7  C   UNL     1       3.757   3.980  17.933  0.00  0.00    +0.000 A 
ATOM      8  C   UNL     1       2.907   4.550  18.947  0.00  0.00    +0.000 A 
ATOM      9  C   UNL     1       2.883   5.866  19.583  0.00  0.00    +0.000 A 
ATOM     10  O   UNL     1       3.767   6.707  19.452  0.00  0.00    +0.000 OA
ENDROOT
BRANCH   7  11
ATOM     11  C   UNL     1       4.861   4.652  17.169  0.00  0.00    +0.000 A 
ATOM     12  C   UNL     1       5.181   4.448  15.835  0.00  0.00    +0.000 A 
ATOM     13  C   UNL     1       6.259   5.313  15.525  0.00  0.00    +0.000 A 
ATOM     14  C   UNL     1       6.548   5.987  16.688  0.00  0.00    +0.000 A 
ATOM     15  C   UNL     1       7.556   6.999  17.056  0.00  0.00    +0.000 C 
ATOM     16  O   UNL     1       5.699   5.602  17.674  0.00  0.00    +0.000 OA
ENDBRANCH   7  11
BRANCH   1  17
ATOM     17  C   UNL     1       1.610   7.378  21.073  0.00  0.00    +0.000 C 
BRANCH  17  24
ATOM     18  C   UNL     1      -0.505  12.591  22.189  0.00  0.00    +0.000 C 
ATOM     19  C   UNL     1      -0.725  11.137  22.516  0.00  0.00    +0.000 C 
ATOM     20  O   UNL     1      -1.563  10.791  23.343  0.00  0.00    +0.000 OA
ATOM     21  N   UNL     1       0.006  10.223  21.784  0.00  0.00    +0.000 N 
ATOM     22  C   UNL     1       0.996  10.505  20.764  0.00  0.00    +0.000 C 
ATOM     23  C   UNL     1       0.726   9.423  19.737  0.00  0.00    +0.000 C 
ATOM     24  C   UNL     1       0.391   8.187  20.590  0.00  0.00    +0.000 C 
ATOM     25  C   UNL     1      -0.359   8.809  21.785  0.00  0.00    +0.000 C 
ENDBRANCH  17  24
ENDBRANCH   1  17
TORSDOF 3
ENDMDL
MODEL 7
REMARK VINA RESULT:      -6.6      2.584      7.144
REMARK  Name = 
REMARK  5 active torsions:
REMARK  status: ('A' for Active; 'I' for Inactive)
REMARK    1  A    between atoms: C_1  and  C_2
REMARK    2  A    between atoms: C_7  and  C_8
REMARK    3  A    between atoms: C_8  and  N_9
REMARK    4  A    between atoms: C_15  and  C_16
REMARK    5  A    between atoms: C_19  and  C_20
REMARK                            x       y       z     vdW  Elec       q    Type
REMARK                         _______ _______ _______ _____ _____    ______ ____
ROOT
ATOM      1  N   UNL     1       5.039   4.267  18.348  0.00  0.00    +0.000 N 
ATOM      2  C   UNL     1       4.927   2.987  18.856  0.00  0.00    +0.000 A 
ATOM      3  N   UNL     1       3.962   2.546  19.592  0.00  0.00    +0.000 NA
ATOM      4  C   UNL     1       3.034   3.479  19.911  0.00  0.00    +0.000 A 
ATOM      5  S   UNL     1       1.712   3.056  20.897  0.00  0.00    +0.000 S 
ATOM      6  C   UNL     1       1.163   4.669  20.938  0.00  0.00    +0.000 A 
ATOM      7  C   UNL     1       1.955   5.524  20.193  0.00  0.00    +0.000 A 
ATOM      8  C   UNL     1       3.020   4.812  19.535  0.00  0.00    +0.000 A 
ATOM      9  C   UNL     1       4.074   5.247  18.619  0.00  0.00    +0.000 A 
ATOM     10  O   UNL     1       4.116   6.357  18.099  0.00  0.00    +0.000 OA
ENDROOT
BRANCH   7  11
ATOM     11  C   UNL     1       1.675   6.998  20.164  0.00  0.00    +0.000 A 
ATOM     12  C   UNL     1       1.317   7.789  21.246  0.00  0.00    +0.000 A 
ATOM     13  C   UNL     1       1.190   9.118  20.772  0.00  0.00    +0.000 A 
ATOM     14  C   UNL     1       1.462   9.065  19.425  0.00  0.00    +0.000 A 
ATOM     15  C   UNL     1       1.483  10.072  18.349  0.00  0.00    +0.000 C 
ATOM     16  O   UNL     1       1.768   7.794  19.060  0.00  0.00    +0.000 OA
ENDBRANCH   7  11
BRANCH   1  17
ATOM     17  C   UNL     1       6.162   4.585  17.466  0.00  0.00    +0.000 C 
BRANCH  17  24
ATOM     18  C   UNL     1       7.492   4.249  11.897  0.00  0.00    +0.000 C 
ATOM     19  C   UNL     1       7.796   5.054  13.133  0.00  0.00    +0.000 C 
ATOM     20  O   UNL     1       8.653   5.933  13.124  0.00  0.00    +0.000 OA
ATOM     21  N   UNL     1       7.010   4.805  14.241  0.00  0.00    +0.000 N 
ATOM     22  C   UNL     1       5.952   3.822  14.363  0.00  0.00    +0.000 C 
ATOM     23  C   UNL     1       4.914   4.560  15.187  0.00  0.00    +0.000 C 
ATOM     24  C   UNL     1       5.754   5.360  16.198  0.00  0.00    +0.000 C 
ATOM     25  C   UNL     1       6.996   5.736  15.366  0.00  0.00    +0.000 C 
ENDBRANCH  17  24
ENDBRANCH   1  17
TORSDOF 3
ENDMDL
MODEL 8
REMARK VINA RESULT:      -6.6      3.353      9.170
REMARK  Name = 
REMARK  5 active torsions:
REMARK  status: ('A' for Active; 'I' for Inactive)
REMARK    1  A    between atoms: C_1  and  C_2
REMARK    2  A    between atoms: C_7  and  C_8
REMARK    3  A    between atoms: C_8  and  N_9
REMARK    4  A    between atoms: C_15  and  C_16
REMARK    5  A    between atoms: C_19  and  C_20
REMARK                            x       y       z     vdW  Elec       q    Type
REMARK                         _______ _______ _______ _____ _____    ______ ____
ROOT
ATOM      1  N   UNL     1       1.700   8.607  19.277  0.00  0.00    +0.000 N 
ATOM      2  C   UNL     1       2.321   9.129  18.160  0.00  0.00    +0.000 A 
ATOM      3  N   UNL     1       2.315  10.369  17.799  0.00  0.00    +0.000 NA
ATOM      4  C   UNL     1       1.571  11.176  18.593  0.00  0.00    +0.000 A 
ATOM      5  S   UNL     1       1.444  12.835  18.233  0.00  0.00    +0.000 S 
ATOM      6  C   UNL     1       0.323  13.074  19.495  0.00  0.00    +0.000 A 
ATOM      7  C   UNL     1       0.060  11.916  20.204  0.00  0.00    +0.000 A 
ATOM      8  C   UNL     1       0.844  10.811  19.714  0.00  0.00    +0.000 A 
ATOM      9  C   UNL     1       0.959   9.419  20.147  0.00  0.00    +0.000 A 
ATOM     10  O   UNL     1       0.481   8.984  21.190  0.00  0.00    +0.000 OA
ENDROOT
BRANCH   7  11
ATOM     11  C   UNL     1      -0.956  11.908  21.309  0.00  0.00    +0.000 A 
ATOM     12  C   UNL     1      -0.773  11.414  22.592  0.00  0.00    +0.000 A 
ATOM     13  C   UNL     1      -1.973  11.645  23.307  0.00  0.00    +0.000 A 
ATOM     14  C   UNL     1      -2.829  12.254  22.420  0.00  0.00    +0.000 A 
ATOM     15  C   UNL     1      -4.221  12.731  22.510  0.00  0.00    +0.000 C 
ATOM     16  O   UNL     1      -2.215  12.426  21.222  0.00  0.00    +0.000 OA
ENDBRANCH   7  11
BRANCH   1  17
ATOM     17  C   UNL     1       1.867   7.186  19.584  0.00  0.00    +0.000 C 
BRANCH  17  24
ATOM     18  C   UNL     1       3.723   1.791  18.996  0.00  0.00    +0.000 C 
ATOM     19  C   UNL     1       4.223   3.184  19.277  0.00  0.00    +0.000 C 
ATOM     20  O   UNL     1       5.398   3.391  19.567  0.00  0.00    +0.000 OA
ATOM     21  N   UNL     1       3.315   4.211  19.114  0.00  0.00    +0.000 N 
ATOM     22  C   UNL     1       1.917   4.096  18.745  0.00  0.00    +0.000 C 
ATOM     23  C   UNL     1       1.726   5.283  17.820  0.00  0.00    +0.000 C 
ATOM     24  C   UNL     1       2.574   6.391  18.469  0.00  0.00    +0.000 C 
ATOM     25  C   UNL     1       3.767   5.597  19.038  0.00  0.00    +0.000 C 
ENDBRANCH  17  24
ENDBRANCH   1  17
TORSDOF 3
ENDMDL
MODEL 9
REMARK VINA RESULT:      -6.6      1.310      1.746
REMARK  Name = 
REMARK  5 active torsions:
REMARK  status: ('A' for Active; 'I' for Inactive)
REMARK    1  A    between atoms: C_1  and  C_2
REMARK    2  A    between atoms: C_7  and  C_8
REMARK    3  A    between atoms: C_8  and  N_9
REMARK    4  A    between atoms: C_15  and  C_16
REMARK    5  A    between atoms: C_19  and  C_20
REMARK                            x       y       z     vdW  Elec       q    Type
REMARK                         _______ _______ _______ _____ _____    ______ ____
ROOT
ATOM      1  N   UNL     1       2.409   7.398  18.512  0.00  0.00    +0.000 N 
ATOM      2  C   UNL     1       1.867   6.795  19.630  0.00  0.00    +0.000 A 
ATOM      3  N   UNL     1       2.269   5.691  20.166  0.00  0.00    +0.000 NA
ATOM      4  C   UNL     1       3.278   5.083  19.497  0.00  0.00    +0.000 A 
ATOM      5  S   UNL     1       3.901   3.605  20.065  0.00  0.00    +0.000 S 
ATOM      6  C   UNL     1       4.926   3.459  18.711  0.00  0.00    +0.000 A 
ATOM      7  C   UNL     1       4.821   4.529  17.842  0.00  0.00    +0.000 A 
ATOM      8  C   UNL     1       3.897   5.518  18.337  0.00  0.00    +0.000 A 
ATOM      9  C   UNL     1       3.483   6.822  17.820  0.00  0.00    +0.000 A 
ATOM     10  O   UNL     1       4.030   7.394  16.883  0.00  0.00    +0.000 OA
ENDROOT
BRANCH   7  11
ATOM     11  C   UNL     1       5.591   4.550  16.554  0.00  0.00    +0.000 A 
ATOM     12  C   UNL     1       6.848   5.102  16.355  0.00  0.00    +0.000 A 
ATOM     13  C   UNL     1       7.205   4.861  15.006  0.00  0.00    +0.000 A 
ATOM     14  C   UNL     1       6.142   4.188  14.450  0.00  0.00    +0.000 A 
ATOM     15  C   UNL     1       5.859   3.670  13.099  0.00  0.00    +0.000 C 
ATOM     16  O   UNL     1       5.177   3.987  15.383  0.00  0.00    +0.000 OA
ENDBRANCH   7  11
BRANCH   1  17
ATOM     17  C   UNL     1       1.881   8.691  18.077  0.00  0.00    +0.000 C 
BRANCH  17  24
ATOM     18  C   UNL     1      -2.004  12.653  19.529  0.00  0.00    +0.000 C 
ATOM     19  C   UNL     1      -0.652  12.513  18.880  0.00  0.00    +0.000 C 
ATOM     20  O   UNL     1      -0.085  13.479  18.377  0.00  0.00    +0.000 OA
ATOM     21  N   UNL     1      -0.058  11.269  18.954  0.00  0.00    +0.000 N 
ATOM     22  C   UNL     1      -0.610  10.066  19.547  0.00  0.00    +0.000 C 
ATOM     23  C   UNL     1       0.603   9.444  20.211  0.00  0.00    +0.000 C 
ATOM     24  C   UNL     1       1.745   9.720  19.216  0.00  0.00    +0.000 C 
ATOM     25  C   UNL     1       1.363  11.105  18.658  0.00  0.00    +0.000 C 
ENDBRANCH  17  24
ENDBRANCH   1  17
TORSDOF 3
ENDMDL
