MODEL 1
REMARK VINA RESULT:      -8.1      0.000      0.000
REMARK  Name = 
REMARK  5 active torsions:
REMARK  status: ('A' for Active; 'I' for Inactive)
REMARK    1  A    between atoms: C_1  and  C_2
REMARK    2  A    between atoms: C_5  and  C_6
REMARK    3  A    between atoms: C_9  and  C_10
REMARK    4  A    between atoms: C_10  and  C_11
REMARK    5  A    between atoms: C_24  and  C_25
REMARK                            x       y       z     vdW  Elec       q    Type
REMARK                         _______ _______ _______ _____ _____    ______ ____
ROOT
ATOM      1  C   UNL     1       7.076   4.899  17.921  0.00  0.00    +0.000 C 
ATOM      2  O   UNL     1       7.858   3.952  17.816  0.00  0.00    +0.000 OA
ATOM      3  N   UNL     1       6.579   5.648  16.827  0.00  0.00    +0.000 N 
ATOM      4  C   UNL     1       7.041   5.169  15.600  0.00  0.00    +0.000 A 
ATOM      5  N   UNL     1       7.694   5.763  14.627  0.00  0.00    +0.000 NA
ATOM      6  C   UNL     1       7.375   5.024  13.494  0.00  0.00    +0.000 A 
ATOM      7  C   UNL     1       7.800   5.173  12.166  0.00  0.00    +0.000 A 
ATOM      8  C   UNL     1       7.413   4.208  11.224  0.00  0.00    +0.000 A 
ATOM      9  C   UNL     1       6.602   3.130  11.592  0.00  0.00    +0.000 A 
ATOM     10  C   UNL     1       6.066   3.030  12.881  0.00  0.00    +0.000 A 
ATOM     11  C   UNL     1       6.456   4.013  13.790  0.00  0.00    +0.000 A 
ATOM     12  N   UNL     1       6.117   4.301  15.067  0.00  0.00    +0.000 N 
ATOM     13  C   UNL     1       4.831   4.424  15.755  0.00  0.00    +0.000 C 
ATOM     14  C   UNL     1       5.093   5.658  16.670  0.00  0.00    +0.000 C 
ATOM     15  C   UNL     1       4.678   6.991  16.026  0.00  0.00    +0.000 C 
ENDROOT
BRANCH   1  16
ATOM     16  C   UNL     1       6.592   5.356  19.289  0.00  0.00    +0.000 C 
BRANCH  16  25
ATOM     17  C   UNL     1       1.505   6.922  20.784  0.00  0.00    +0.000 C 
ATOM     18  C   UNL     1       1.809   5.495  20.428  0.00  0.00    +0.000 A 
ATOM     19  N   UNL     1       0.855   4.603  20.472  0.00  0.00    +0.000 NA
ATOM     20  C   UNL     1       1.162   3.301  20.127  0.00  0.00    +0.000 A 
ATOM     21  C   UNL     1       2.375   2.884  19.724  0.00  0.00    +0.000 A 
ATOM     22  C   UNL     1       2.694   1.476  19.347  0.00  0.00    +0.000 C 
ATOM     23  N   UNL     1       3.400   3.836  19.671  0.00  0.00    +0.000 N 
ATOM     24  N   UNL     1       4.705   3.721  19.306  0.00  0.00    +0.000 NA
ATOM     25  C   UNL     1       5.176   4.964  19.538  0.00  0.00    +0.000 A 
ATOM     26  N   UNL     1       4.227   5.875  19.930  0.00  0.00    +0.000 NA
ATOM     27  C   UNL     1       3.146   5.137  20.024  0.00  0.00    +0.000 A 
ENDBRANCH  16  25
ENDBRANCH   1  16
TORSDOF 2
ENDMDL
MODEL 2
REMARK VINA RESULT:      -8.0      0.564      1.932
REMARK  Name = 
REMARK  5 active torsions:
REMARK  status: ('A' for Active; 'I' for Inactive)
REMARK    1  A    between atoms: C_1  and  C_2
REMARK    2  A    between atoms: C_5  and  C_6
REMARK    3  A    between atoms: C_9  and  C_10
REMARK    4  A    between atoms: C_10  and  C_11
REMARK    5  A    between atoms: C_24  and  C_25
REMARK                            x       y       z     vdW  Elec       q    Type
REMARK                         _______ _______ _______ _____ _____    ______ ____
ROOT
ATOM      1  C   UNL     1       7.205   4.864  17.817  0.00  0.00    +0.000 C 
ATOM      2  O   UNL     1       8.014   3.943  17.693  0.00  0.00    +0.000 OA
ATOM      3  N   UNL     1       6.656   5.595  16.736  0.00  0.00    +0.000 N 
ATOM      4  C   UNL     1       7.102   5.130  15.497  0.00  0.00    +0.000 A 
ATOM      5  N   UNL     1       7.710   5.743  14.508  0.00  0.00    +0.000 NA
ATOM      6  C   UNL     1       7.386   4.994  13.384  0.00  0.00    +0.000 A 
ATOM      7  C   UNL     1       7.773   5.154  12.046  0.00  0.00    +0.000 A 
ATOM      8  C   UNL     1       7.393   4.176  11.114  0.00  0.00    +0.000 A 
ATOM      9  C   UNL     1       6.627   3.073  11.503  0.00  0.00    +0.000 A 
ATOM     10  C   UNL     1       6.127   2.958  12.805  0.00  0.00    +0.000 A 
ATOM     11  C   UNL     1       6.508   3.953  13.704  0.00  0.00    +0.000 A 
ATOM     12  N   UNL     1       6.193   4.232  14.989  0.00  0.00    +0.000 N 
ATOM     13  C   UNL     1       4.922   4.314  15.710  0.00  0.00    +0.000 C 
ATOM     14  C   UNL     1       5.167   5.558  16.617  0.00  0.00    +0.000 C 
ATOM     15  C   UNL     1       4.694   6.876  15.983  0.00  0.00    +0.000 C 
ENDROOT
BRANCH   1  16
ATOM     16  C   UNL     1       6.741   5.307  19.197  0.00  0.00    +0.000 C 
BRANCH  16  25
ATOM     17  C   UNL     1       2.961   1.279  19.386  0.00  0.00    +0.000 C 
ATOM     18  C   UNL     1       2.603   2.700  19.709  0.00  0.00    +0.000 A 
ATOM     19  N   UNL     1       1.374   2.995  20.043  0.00  0.00    +0.000 NA
ATOM     20  C   UNL     1       1.077   4.309  20.348  0.00  0.00    +0.000 A 
ATOM     21  C   UNL     1       1.971   5.314  20.349  0.00  0.00    +0.000 A 
ATOM     22  C   UNL     1       1.641   6.729  20.687  0.00  0.00    +0.000 C 
ATOM     23  N   UNL     1       3.290   5.003  19.997  0.00  0.00    +0.000 N 
ATOM     24  N   UNL     1       4.398   5.787  19.913  0.00  0.00    +0.000 NA
ATOM     25  C   UNL     1       5.327   4.920  19.459  0.00  0.00    +0.000 A 
ATOM     26  N   UNL     1       4.896   3.621  19.349  0.00  0.00    +0.000 NA
ATOM     27  C   UNL     1       3.626   3.714  19.668  0.00  0.00    +0.000 A 
ENDBRANCH  16  25
ENDBRANCH   1  16
TORSDOF 2
ENDMDL
MODEL 3
REMARK VINA RESULT:      -7.8      5.109      8.553
REMARK  Name = 
REMARK  5 active torsions:
REMARK  status: ('A' for Active; 'I' for Inactive)
REMARK    1  A    between atoms: C_1  and  C_2
REMARK    2  A    between atoms: C_5  and  C_6
REMARK    3  A    between atoms: C_9  and  C_10
REMARK    4  A    between atoms: C_10  and  C_11
REMARK    5  A    between atoms: C_24  and  C_25
REMARK                            x       y       z     vdW  Elec       q    Type
REMARK                         _______ _______ _______ _____ _____    ______ ____
ROOT
ATOM      1  C   UNL     1       0.962   9.479  21.138  0.00  0.00    +0.000 C 
ATOM      2  O   UNL     1       1.919   9.844  21.823  0.00  0.00    +0.000 OA
ATOM      3  N   UNL     1       0.243  10.323  20.257  0.00  0.00    +0.000 N 
ATOM      4  C   UNL     1       0.765  11.617  20.215  0.00  0.00    +0.000 A 
ATOM      5  N   UNL     1       0.207  12.784  20.443  0.00  0.00    +0.000 NA
ATOM      6  C   UNL     1       0.978  13.684  19.717  0.00  0.00    +0.000 A 
ATOM      7  C   UNL     1       0.875  15.078  19.601  0.00  0.00    +0.000 A 
ATOM      8  C   UNL     1       1.865  15.768  18.885  0.00  0.00    +0.000 A 
ATOM      9  C   UNL     1       2.923  15.083  18.281  0.00  0.00    +0.000 A 
ATOM     10  C   UNL     1       2.978  13.684  18.280  0.00  0.00    +0.000 A 
ATOM     11  C   UNL     1       1.971  13.026  18.985  0.00  0.00    +0.000 A 
ATOM     12  N   UNL     1       1.640  11.726  19.160  0.00  0.00    +0.000 N 
ATOM     13  C   UNL     1       1.484  10.602  18.236  0.00  0.00    +0.000 C 
ATOM     14  C   UNL     1       0.224   9.899  18.824  0.00  0.00    +0.000 C 
ATOM     15  C   UNL     1      -1.092  10.377  18.190  0.00  0.00    +0.000 C 
ENDROOT
BRANCH   1  16
ATOM     16  C   UNL     1       0.458   8.045  21.214  0.00  0.00    +0.000 C 
BRANCH  16  25
ATOM     17  C   UNL     1       2.533   2.923  21.144  0.00  0.00    +0.000 C 
ATOM     18  C   UNL     1       3.028   3.977  20.196  0.00  0.00    +0.000 A 
ATOM     19  N   UNL     1       3.967   3.682  19.336  0.00  0.00    +0.000 NA
ATOM     20  C   UNL     1       4.392   4.669  18.469  0.00  0.00    +0.000 A 
ATOM     21  C   UNL     1       3.891   5.917  18.427  0.00  0.00    +0.000 A 
ATOM     22  C   UNL     1       4.354   6.974  17.481  0.00  0.00    +0.000 C 
ATOM     23  N   UNL     1       2.882   6.237  19.343  0.00  0.00    +0.000 N 
ATOM     24  N   UNL     1       2.189   7.391  19.538  0.00  0.00    +0.000 NA
ATOM     25  C   UNL     1       1.418   7.085  20.601  0.00  0.00    +0.000 A 
ATOM     26  N   UNL     1       1.511   5.781  21.023  0.00  0.00    +0.000 NA
ATOM     27  C   UNL     1       2.442   5.294  20.236  0.00  0.00    +0.000 A 
ENDBRANCH  16  25
ENDBRANCH   1  16
TORSDOF 2
ENDMDL
MODEL 4
REMARK VINA RESULT:      -7.7      7.940     10.911
REMARK  Name = 
REMARK  5 active torsions:
REMARK  status: ('A' for Active; 'I' for Inactive)
REMARK    1  A    between atoms: C_1  and  C_2
REMARK    2  A    between atoms: C_5  and  C_6
REMARK    3  A    between atoms: C_9  and  C_10
REMARK    4  A    between atoms: C_10  and  C_11
REMARK    5  A    between atoms: C_24  and  C_25
REMARK                            x       y       z     vdW  Elec       q    Type
REMARK                         _______ _______ _______ _____ _____    ______ ____
ROOT
ATOM      1  C   UNL     1       0.808  12.522  20.406  0.00  0.00    +0.000 C 
ATOM      2  O   UNL     1       1.906  12.451  20.963  0.00  0.00    +0.000 OA
ATOM      3  N   UNL     1       0.340  11.593  19.445  0.00  0.00    +0.000 N 
ATOM      4  C   UNL     1       1.245  10.554  19.224  0.00  0.00    +0.000 A 
ATOM      5  N   UNL     1       1.822  10.126  18.124  0.00  0.00    +0.000 NA
ATOM      6  C   UNL     1       2.121   8.794  18.386  0.00  0.00    +0.000 A 
ATOM      7  C   UNL     1       2.765   7.837  17.589  0.00  0.00    +0.000 A 
ATOM      8  C   UNL     1       3.049   6.580  18.145  0.00  0.00    +0.000 A 
ATOM      9  C   UNL     1       2.679   6.276  19.459  0.00  0.00    +0.000 A 
ATOM     10  C   UNL     1       1.927   7.171  20.228  0.00  0.00    +0.000 A 
ATOM     11  C   UNL     1       1.647   8.406  19.643  0.00  0.00    +0.000 A 
ATOM     12  N   UNL     1       0.915   9.480  20.015  0.00  0.00    +0.000 N 
ATOM     13  C   UNL     1      -0.438   9.627  20.555  0.00  0.00    +0.000 C 
ATOM     14  C   UNL     1      -0.933  10.891  19.789  0.00  0.00    +0.000 C 
ATOM     15  C   UNL     1      -1.677  10.560  18.485  0.00  0.00    +0.000 C 
ENDROOT
BRANCH   1  16
ATOM     16  C   UNL     1      -0.143  13.671  20.711  0.00  0.00    +0.000 C 
BRANCH  16  25
ATOM     17  C   UNL     1       3.504  16.471  17.643  0.00  0.00    +0.000 C 
ATOM     18  C   UNL     1       2.100  16.968  17.833  0.00  0.00    +0.000 A 
ATOM     19  N   UNL     1       1.729  18.085  17.263  0.00  0.00    +0.000 NA
ATOM     20  C   UNL     1       0.428  18.511  17.446  0.00  0.00    +0.000 A 
ATOM     21  C   UNL     1      -0.501  17.844  18.154  0.00  0.00    +0.000 A 
ATOM     22  C   UNL     1      -1.906  18.310  18.340  0.00  0.00    +0.000 C 
ATOM     23  N   UNL     1      -0.111  16.646  18.763  0.00  0.00    +0.000 N 
ATOM     24  N   UNL     1      -0.812  15.762  19.523  0.00  0.00    +0.000 NA
ATOM     25  C   UNL     1       0.134  14.862  19.860  0.00  0.00    +0.000 A 
ATOM     26  N   UNL     1       1.360  15.070  19.277  0.00  0.00    +0.000 NA
ATOM     27  C   UNL     1       1.177  16.194  18.625  0.00  0.00    +0.000 A 
ENDBRANCH  16  25
ENDBRANCH   1  16
TORSDOF 2
ENDMDL
MODEL 5
REMARK VINA RESULT:      -7.7      5.118      8.453
REMARK  Name = 
REMARK  5 active torsions:
REMARK  status: ('A' for Active; 'I' for Inactive)
REMARK    1  A    between atoms: C_1  and  C_2
REMARK    2  A    between atoms: C_5  and  C_6
REMARK    3  A    between atoms: C_9  and  C_10
REMARK    4  A    between atoms: C_10  and  C_11
REMARK    5  A    between atoms: C_24  and  C_25
REMARK                            x       y       z     vdW  Elec       q    Type
REMARK                         _______ _______ _______ _____ _____    ______ ____
ROOT
ATOM      1  C   UNL     1       0.905   9.462  21.126  0.00  0.00    +0.000 C 
ATOM      2  O   UNL     1       1.870   9.815  21.807  0.00  0.00    +0.000 OA
ATOM      3  N   UNL     1       0.194  10.315  20.247  0.00  0.00    +0.000 N 
ATOM      4  C   UNL     1       0.734  11.602  20.200  0.00  0.00    +0.000 A 
ATOM      5  N   UNL     1       0.195  12.777  20.429  0.00  0.00    +0.000 NA
ATOM      6  C   UNL     1       0.975  13.664  19.698  0.00  0.00    +0.000 A 
ATOM      7  C   UNL     1       0.892  15.059  19.579  0.00  0.00    +0.000 A 
ATOM      8  C   UNL     1       1.889  15.734  18.858  0.00  0.00    +0.000 A 
ATOM      9  C   UNL     1       2.934  15.032  18.250  0.00  0.00    +0.000 A 
ATOM     10  C   UNL     1       2.968  13.633  18.251  0.00  0.00    +0.000 A 
ATOM     11  C   UNL     1       1.956  12.991  18.963  0.00  0.00    +0.000 A 
ATOM     12  N   UNL     1       1.606  11.696  19.142  0.00  0.00    +0.000 N 
ATOM     13  C   UNL     1       1.429  10.573  18.220  0.00  0.00    +0.000 C 
ATOM     14  C   UNL     1       0.162   9.889  18.816  0.00  0.00    +0.000 C 
ATOM     15  C   UNL     1      -1.150  10.386  18.186  0.00  0.00    +0.000 C 
ENDROOT
BRANCH   1  16
ATOM     16  C   UNL     1       0.380   8.036  21.207  0.00  0.00    +0.000 C 
BRANCH  16  25
ATOM     17  C   UNL     1       4.324   7.053  17.462  0.00  0.00    +0.000 C 
ATOM     18  C   UNL     1       3.854   5.979  18.399  0.00  0.00    +0.000 A 
ATOM     19  N   UNL     1       4.385   4.786  18.332  0.00  0.00    +0.000 NA
ATOM     20  C   UNL     1       3.941   3.822  19.215  0.00  0.00    +0.000 A 
ATOM     21  C   UNL     1       3.010   4.027  20.164  0.00  0.00    +0.000 A 
ATOM     22  C   UNL     1       2.542   2.979  21.118  0.00  0.00    +0.000 C 
ATOM     23  N   UNL     1       2.441   5.303  20.244  0.00  0.00    +0.000 N 
ATOM     24  N   UNL     1       1.498   5.807  21.085  0.00  0.00    +0.000 NA
ATOM     25  C   UNL     1       1.332   7.059  20.610  0.00  0.00    +0.000 A 
ATOM     26  N   UNL     1       2.183   7.403  19.588  0.00  0.00    +0.000 NA
ATOM     27  C   UNL     1       2.837   6.287  19.374  0.00  0.00    +0.000 A 
ENDBRANCH  16  25
ENDBRANCH   1  16
TORSDOF 2
ENDMDL
MODEL 6
REMARK VINA RESULT:      -7.7      4.575      9.282
REMARK  Name = 
REMARK  5 active torsions:
REMARK  status: ('A' for Active; 'I' for Inactive)
REMARK    1  A    between atoms: C_1  and  C_2
REMARK    2  A    between atoms: C_5  and  C_6
REMARK    3  A    between atoms: C_9  and  C_10
REMARK    4  A    between atoms: C_10  and  C_11
REMARK    5  A    between atoms: C_24  and  C_25
REMARK                            x       y       z     vdW  Elec       q    Type
REMARK                         _______ _______ _______ _____ _____    ______ ____
ROOT
ATOM      1  C   UNL     1       1.501   8.804  19.663  0.00  0.00    +0.000 C 
ATOM      2  O   UNL     1       2.226   8.858  20.659  0.00  0.00    +0.000 OA
ATOM      3  N   UNL     1       0.257   9.469  19.545  0.00  0.00    +0.000 N 
ATOM      4  C   UNL     1      -0.047  10.235  20.671  0.00  0.00    +0.000 A 
ATOM      5  N   UNL     1      -1.084  10.219  21.477  0.00  0.00    +0.000 NA
ATOM      6  C   UNL     1      -1.129  11.502  22.009  0.00  0.00    +0.000 A 
ATOM      7  C   UNL     1      -2.006  12.063  22.949  0.00  0.00    +0.000 A 
ATOM      8  C   UNL     1      -1.756  13.365  23.409  0.00  0.00    +0.000 A 
ATOM      9  C   UNL     1      -0.668  14.100  22.927  0.00  0.00    +0.000 A 
ATOM     10  C   UNL     1       0.145  13.607  21.900  0.00  0.00    +0.000 A 
ATOM     11  C   UNL     1      -0.138  12.317  21.453  0.00  0.00    +0.000 A 
ATOM     12  N   UNL     1       0.352  11.534  20.465  0.00  0.00    +0.000 N 
ATOM     13  C   UNL     1       0.633  11.774  19.049  0.00  0.00    +0.000 C 
ATOM     14  C   UNL     1       0.145  10.437  18.413  0.00  0.00    +0.000 C 
ATOM     15  C   UNL     1      -1.321  10.483  17.951  0.00  0.00    +0.000 C 
ENDROOT
BRANCH   1  16
ATOM     16  C   UNL     1       1.903   7.967  18.458  0.00  0.00    +0.000 C 
BRANCH  16  25
ATOM     17  C   UNL     1       6.289   4.607  18.290  0.00  0.00    +0.000 C 
ATOM     18  C   UNL     1       5.037   4.219  19.021  0.00  0.00    +0.000 A 
ATOM     19  N   UNL     1       4.979   3.064  19.632  0.00  0.00    +0.000 NA
ATOM     20  C   UNL     1       3.819   2.740  20.307  0.00  0.00    +0.000 A 
ATOM     21  C   UNL     1       2.742   3.540  20.404  0.00  0.00    +0.000 A 
ATOM     22  C   UNL     1       1.496   3.182  21.141  0.00  0.00    +0.000 C 
ATOM     23  N   UNL     1       2.800   4.779  19.755  0.00  0.00    +0.000 N 
ATOM     24  N   UNL     1       1.891   5.788  19.677  0.00  0.00    +0.000 NA
ATOM     25  C   UNL     1       2.509   6.666  18.861  0.00  0.00    +0.000 A 
ATOM     26  N   UNL     1       3.788   6.318  18.504  0.00  0.00    +0.000 NA
ATOM     27  C   UNL     1       3.926   5.136  19.056  0.00  0.00    +0.000 A 
ENDBRANCH  16  25
ENDBRANCH   1  16
TORSDOF 2
ENDMDL
MODEL 7
REMARK VINA RESULT:      -7.5      5.208      9.350
REMARK  Name = 
REMARK  5 active torsions:
REMARK  status: ('A' for Active; 'I' for Inactive)
REMARK    1  A    between atoms: C_1  and  C_2
REMARK    2  A    between atoms: C_5  and  C_6
REMARK    3  A    between atoms: C_9  and  C_10
REMARK    4  A    between atoms: C_10  and  C_11
REMARK    5  A    between atoms: C_24  and  C_25
REMARK                            x       y       z     vdW  Elec       q    Type
REMARK                         _______ _______ _______ _____ _____    ______ ____
ROOT
ATOM      1  C   UNL     1       0.187   8.947  20.727  0.00  0.00    +0.000 C 
ATOM      2  O   UNL     1      -0.766   8.435  21.317  0.00  0.00    +0.000 OA
ATOM      3  N   UNL     1       0.063   9.908  19.694  0.00  0.00    +0.000 N 
ATOM      4  C   UNL     1      -1.267  10.249  19.441  0.00  0.00    +0.000 A 
ATOM      5  N   UNL     1      -1.979  10.204  18.338  0.00  0.00    +0.000 NA
ATOM      6  C   UNL     1      -2.971  11.158  18.527  0.00  0.00    +0.000 A 
ATOM      7  C   UNL     1      -4.036  11.535  17.696  0.00  0.00    +0.000 A 
ATOM      8  C   UNL     1      -4.975  12.458  18.183  0.00  0.00    +0.000 A 
ATOM      9  C   UNL     1      -4.844  13.009  19.461  0.00  0.00    +0.000 A 
ATOM     10  C   UNL     1      -3.725  12.741  20.257  0.00  0.00    +0.000 A 
ATOM     11  C   UNL     1      -2.801  11.833  19.740  0.00  0.00    +0.000 A 
ATOM     12  N   UNL     1      -1.596  11.378  20.152  0.00  0.00    +0.000 N 
ATOM     13  C   UNL     1      -0.394  12.048  20.652  0.00  0.00    +0.000 C 
ATOM     14  C   UNL     1       0.726  11.223  19.948  0.00  0.00    +0.000 C 
ATOM     15  C   UNL     1       1.165  11.818  18.601  0.00  0.00    +0.000 C 
ENDROOT
BRANCH   1  16
ATOM     16  C   UNL     1       1.615   8.548  21.068  0.00  0.00    +0.000 C 
BRANCH  16  25
ATOM     17  C   UNL     1       1.285   3.034  20.854  0.00  0.00    +0.000 C 
ATOM     18  C   UNL     1       2.105   3.806  19.860  0.00  0.00    +0.000 A 
ATOM     19  N   UNL     1       2.754   3.165  18.924  0.00  0.00    +0.000 NA
ATOM     20  C   UNL     1       3.489   3.902  18.017  0.00  0.00    +0.000 A 
ATOM     21  C   UNL     1       3.569   5.245  18.010  0.00  0.00    +0.000 A 
ATOM     22  C   UNL     1       4.362   6.031  17.021  0.00  0.00    +0.000 C 
ATOM     23  N   UNL     1       2.872   5.937  19.007  0.00  0.00    +0.000 N 
ATOM     24  N   UNL     1       2.758   7.269  19.253  0.00  0.00    +0.000 NA
ATOM     25  C   UNL     1       2.019   7.289  20.382  0.00  0.00    +0.000 A 
ATOM     26  N   UNL     1       1.579   6.058  20.802  0.00  0.00    +0.000 NA
ATOM     27  C   UNL     1       2.145   5.244  19.942  0.00  0.00    +0.000 A 
ENDBRANCH  16  25
ENDBRANCH   1  16
TORSDOF 2
ENDMDL
MODEL 8
REMARK VINA RESULT:      -7.5      8.013     10.886
REMARK  Name = 
REMARK  5 active torsions:
REMARK  status: ('A' for Active; 'I' for Inactive)
REMARK    1  A    between atoms: C_1  and  C_2
REMARK    2  A    between atoms: C_5  and  C_6
REMARK    3  A    between atoms: C_9  and  C_10
REMARK    4  A    between atoms: C_10  and  C_11
REMARK    5  A    between atoms: C_24  and  C_25
REMARK                            x       y       z     vdW  Elec       q    Type
REMARK                         _______ _______ _______ _____ _____    ______ ____
ROOT
ATOM      1  C   UNL     1       0.711  12.526  20.414  0.00  0.00    +0.000 C 
ATOM      2  O   UNL     1       1.812  12.487  20.966  0.00  0.00    +0.000 OA
ATOM      3  N   UNL     1       0.265  11.584  19.455  0.00  0.00    +0.000 N 
ATOM      4  C   UNL     1       1.198  10.571  19.230  0.00  0.00    +0.000 A 
ATOM      5  N   UNL     1       1.781  10.159  18.127  0.00  0.00    +0.000 NA
ATOM      6  C   UNL     1       2.119   8.836  18.388  0.00  0.00    +0.000 A 
ATOM      7  C   UNL     1       2.787   7.897  17.589  0.00  0.00    +0.000 A 
ATOM      8  C   UNL     1       3.108   6.649  18.144  0.00  0.00    +0.000 A 
ATOM      9  C   UNL     1       2.753   6.335  19.459  0.00  0.00    +0.000 A 
ATOM     10  C   UNL     1       1.980   7.209  20.231  0.00  0.00    +0.000 A 
ATOM     11  C   UNL     1       1.663   8.435  19.647  0.00  0.00    +0.000 A 
ATOM     12  N   UNL     1       0.902   9.488  20.023  0.00  0.00    +0.000 N 
ATOM     13  C   UNL     1      -0.452   9.597  20.569  0.00  0.00    +0.000 C 
ATOM     14  C   UNL     1      -0.986  10.846  19.805  0.00  0.00    +0.000 C 
ATOM     15  C   UNL     1      -1.727  10.493  18.505  0.00  0.00    +0.000 C 
ENDROOT
BRANCH   1  16
ATOM     16  C   UNL     1      -0.271  13.647  20.722  0.00  0.00    +0.000 C 
BRANCH  16  25
ATOM     17  C   UNL     1      -2.278  18.326  18.571  0.00  0.00    +0.000 C 
ATOM     18  C   UNL     1      -0.871  17.882  18.296  0.00  0.00    +0.000 A 
ATOM     19  N   UNL     1      -0.101  18.614  17.533  0.00  0.00    +0.000 NA
ATOM     20  C   UNL     1       1.192  18.187  17.308  0.00  0.00    +0.000 A 
ATOM     21  C   UNL     1       1.733  17.075  17.839  0.00  0.00    +0.000 A 
ATOM     22  C   UNL     1       3.134  16.626  17.594  0.00  0.00    +0.000 C 
ATOM     23  N   UNL     1       0.915  16.290  18.660  0.00  0.00    +0.000 N 
ATOM     24  N   UNL     1       1.172  15.135  19.331  0.00  0.00    +0.000 NA
ATOM     25  C   UNL     1      -0.029  14.848  19.874  0.00  0.00    +0.000 A 
ATOM     26  N   UNL     1      -0.996  15.800  19.669  0.00  0.00    +0.000 NA
ATOM     27  C   UNL     1      -0.383  16.665  18.895  0.00  0.00    +0.000 A 
ENDBRANCH  16  25
ENDBRANCH   1  16
TORSDOF 2
ENDMDL
MODEL 9
REMARK VINA RESULT:      -7.5      7.346     10.463
REMARK  Name = 
REMARK  5 active torsions:
REMARK  status: ('A' for Active; 'I' for Inactive)
REMARK    1  A    between atoms: C_1  and  C_2
REMARK    2  A    between atoms: C_5  and  C_6
REMARK    3  A    between atoms: C_9  and  C_10
REMARK    4  A    between atoms: C_10  and  C_11
REMARK    5  A    between atoms: C_24  and  C_25
REMARK                            x       y       z     vdW  Elec       q    Type
REMARK                         _______ _______ _______ _____ _____    ______ ____
ROOT
ATOM      1  C   UNL     1      -1.507  11.380  19.282  0.00  0.00    +0.000 C 
ATOM      2  O   UNL     1      -2.065  10.536  18.577  0.00  0.00    +0.000 OA
ATOM      3  N   UNL     1      -0.293  11.163  19.977  0.00  0.00    +0.000 N 
ATOM      4  C   UNL     1       0.234   9.891  19.744  0.00  0.00    +0.000 A 
ATOM      5  N   UNL     1       0.564   8.925  20.570  0.00  0.00    +0.000 NA
ATOM      6  C   UNL     1       1.523   8.193  19.882  0.00  0.00    +0.000 A 
ATOM      7  C   UNL     1       2.217   7.032  20.253  0.00  0.00    +0.000 A 
ATOM      8  C   UNL     1       3.059   6.421  19.312  0.00  0.00    +0.000 A 
ATOM      9  C   UNL     1       3.223   6.966  18.035  0.00  0.00    +0.000 A 
ATOM     10  C   UNL     1       2.638   8.188  17.685  0.00  0.00    +0.000 A 
ATOM     11  C   UNL     1       1.820   8.779  18.647  0.00  0.00    +0.000 A 
ATOM     12  N   UNL     1       1.152   9.954  18.723  0.00  0.00    +0.000 N 
ATOM     13  C   UNL     1       1.537  11.339  18.452  0.00  0.00    +0.000 C 
ATOM     14  C   UNL     1       0.829  12.084  19.625  0.00  0.00    +0.000 C 
ATOM     15  C   UNL     1       1.724  12.261  20.862  0.00  0.00    +0.000 C 
ENDROOT
BRANCH   1  16
ATOM     16  C   UNL     1      -2.124  12.757  19.475  0.00  0.00    +0.000 C 
BRANCH  16  25
ATOM     17  C   UNL     1      -4.049  12.827  24.656  0.00  0.00    +0.000 C 
ATOM     18  C   UNL     1      -4.977  12.719  23.481  0.00  0.00    +0.000 A 
ATOM     19  N   UNL     1      -6.266  12.641  23.683  0.00  0.00    +0.000 NA
ATOM     20  C   UNL     1      -7.096  12.556  22.582  0.00  0.00    +0.000 A 
ATOM     21  C   UNL     1      -6.674  12.571  21.305  0.00  0.00    +0.000 A 
ATOM     22  C   UNL     1      -7.580  12.485  20.123  0.00  0.00    +0.000 C 
ATOM     23  N   UNL     1      -5.295  12.660  21.083  0.00  0.00    +0.000 N 
ATOM     24  N   UNL     1      -4.579  12.701  19.927  0.00  0.00    +0.000 NA
ATOM     25  C   UNL     1      -3.308  12.714  20.378  0.00  0.00    +0.000 A 
ATOM     26  N   UNL     1      -3.184  12.785  21.744  0.00  0.00    +0.000 NA
ATOM     27  C   UNL     1      -4.431  12.726  22.147  0.00  0.00    +0.000 A 
ENDBRANCH  16  25
ENDBRANCH   1  16
TORSDOF 2
ENDMDL
