MODEL 1
REMARK VINA RESULT:      -8.1      0.000      0.000
REMARK  Name = 
REMARK  6 active torsions:
REMARK  status: ('A' for Active; 'I' for Inactive)
REMARK    1  A    between atoms: C_1  and  O_2
REMARK    2  A    between atoms: O_2  and  C_3
REMARK    3  A    between atoms: C_3  and  C_4
REMARK    4  A    between atoms: C_11  and  C_13
REMARK    5  A    between atoms: C_16  and  C_17
REMARK    6  A    between atoms: C_19  and  N_20
REMARK                            x       y       z     vdW  Elec       q    Type
REMARK                         _______ _______ _______ _____ _____    ______ ____
ROOT
ATOM      1  C   UNL     1       2.162   6.795  19.715  0.00  0.00    +0.000 A 
ATOM      2  C   UNL     1       2.144   7.639  18.612  0.00  0.00    +0.000 A 
ATOM      3  C   UNL     1       1.725   8.962  18.711  0.00  0.00    +0.000 A 
ATOM      4  C   UNL     1       1.192   9.467  19.902  0.00  0.00    +0.000 A 
ATOM      5  C   UNL     1       1.159   8.600  21.008  0.00  0.00    +0.000 A 
ATOM      6  C   UNL     1       1.640   7.280  20.918  0.00  0.00    +0.000 A 
ENDROOT
BRANCH   1  14
ATOM      7  C   UNL     1       6.471   4.918  15.657  0.00  0.00    +0.000 C 
ATOM      8  O   UNL     1       7.380   5.752  15.733  0.00  0.00    +0.000 OA
ATOM      9  N   UNL     1       5.363   4.960  16.494  0.00  0.00    +0.000 N 
ATOM     10  C   UNL     1       4.247   4.005  16.482  0.00  0.00    +0.000 C 
ATOM     11  C   UNL     1       4.279   3.022  17.644  0.00  0.00    +0.000 C 
ATOM     12  C   UNL     1       4.234   3.612  19.054  0.00  0.00    +0.000 C 
ATOM     13  N   UNL     1       3.882   5.031  19.130  0.00  0.00    +0.000 N 
ATOM     14  C   UNL     1       2.611   5.374  19.621  0.00  0.00    +0.000 C 
ATOM     15  O   UNL     1       1.807   4.521  20.000  0.00  0.00    +0.000 OA
ATOM     16  C   UNL     1       4.975   5.953  18.786  0.00  0.00    +0.000 C 
ATOM     17  C   UNL     1       5.162   6.173  17.277  0.00  0.00    +0.000 C 
BRANCH   7  18
ATOM     18  C   UNL     1       6.539   3.825  14.583  0.00  0.00    +0.000 C 
BRANCH  18  20
ATOM     19  C   UNL     1       6.126   3.315  12.304  0.00  0.00    +0.000 C 
ATOM     20  O   UNL     1       6.624   4.268  13.234  0.00  0.00    +0.000 OA
ENDBRANCH  18  20
ENDBRANCH   7  18
ENDBRANCH   1  14
BRANCH   4  21
ATOM     21  C   UNL     1       0.674  10.847  19.953  0.00  0.00    +0.000 A 
ATOM     22  C   UNL     1       0.099  11.451  18.841  0.00  0.00    +0.000 A 
ATOM     23  C   UNL     1      -0.258  12.770  18.960  0.00  0.00    +0.000 A 
ATOM     24  N   UNL     1      -0.125  13.456  20.100  0.00  0.00    +0.000 NA
ATOM     25  C   UNL     1       0.403  12.774  21.131  0.00  0.00    +0.000 A 
ATOM     26  N   UNL     1       0.819  11.504  21.119  0.00  0.00    +0.000 NA
BRANCH  23  27
ATOM     27  N   UNL     1      -0.826  13.443  17.879  0.00  0.00    +0.000 N 
ATOM     28  H   UNL     1      -1.670  12.992  17.548  0.00  0.00    +0.000 HD
ATOM     29  H   UNL     1      -0.120  13.512  17.150  0.00  0.00    +0.000 HD
ENDBRANCH  23  27
ENDBRANCH   4  21
TORSDOF 5
ENDMDL
MODEL 2
REMARK VINA RESULT:      -8.0      0.900      1.040
REMARK  Name = 
REMARK  6 active torsions:
REMARK  status: ('A' for Active; 'I' for Inactive)
REMARK    1  A    between atoms: C_1  and  O_2
REMARK    2  A    between atoms: O_2  and  C_3
REMARK    3  A    between atoms: C_3  and  C_4
REMARK    4  A    between atoms: C_11  and  C_13
REMARK    5  A    between atoms: C_16  and  C_17
REMARK    6  A    between atoms: C_19  and  N_20
REMARK                            x       y       z     vdW  Elec       q    Type
REMARK                         _______ _______ _______ _____ _____    ______ ____
ROOT
ATOM      1  C   UNL     1       2.184   7.231  19.399  0.00  0.00    +0.000 A 
ATOM      2  C   UNL     1       2.119   7.938  18.205  0.00  0.00    +0.000 A 
ATOM      3  C   UNL     1       1.651   9.247  18.155  0.00  0.00    +0.000 A 
ATOM      4  C   UNL     1       1.113   9.869  19.287  0.00  0.00    +0.000 A 
ATOM      5  C   UNL     1       1.128   9.138  20.488  0.00  0.00    +0.000 A 
ATOM      6  C   UNL     1       1.658   7.836  20.546  0.00  0.00    +0.000 A 
ENDROOT
BRANCH   1  14
ATOM      7  C   UNL     1       6.353   4.986  15.382  0.00  0.00    +0.000 C 
ATOM      8  O   UNL     1       7.229   5.853  15.298  0.00  0.00    +0.000 OA
ATOM      9  N   UNL     1       5.289   5.099  16.268  0.00  0.00    +0.000 N 
ATOM     10  C   UNL     1       4.214   4.114  16.443  0.00  0.00    +0.000 C 
ATOM     11  C   UNL     1       4.347   3.294  17.719  0.00  0.00    +0.000 C 
ATOM     12  C   UNL     1       4.350   4.063  19.041  0.00  0.00    +0.000 C 
ATOM     13  N   UNL     1       3.944   5.465  18.951  0.00  0.00    +0.000 N 
ATOM     14  C   UNL     1       2.686   5.826  19.465  0.00  0.00    +0.000 C 
ATOM     15  O   UNL     1       1.939   5.004  19.996  0.00  0.00    +0.000 OA
ATOM     16  C   UNL     1       4.978   6.371  18.430  0.00  0.00    +0.000 C 
ATOM     17  C   UNL     1       5.078   6.397  16.897  0.00  0.00    +0.000 C 
BRANCH   7  18
ATOM     18  C   UNL     1       6.411   3.763  14.457  0.00  0.00    +0.000 C 
BRANCH  18  20
ATOM     19  C   UNL     1       5.836   3.225  12.220  0.00  0.00    +0.000 C 
ATOM     20  O   UNL     1       6.640   4.024  13.078  0.00  0.00    +0.000 OA
ENDBRANCH  18  20
ENDBRANCH   7  18
ENDBRANCH   1  14
BRANCH   4  21
ATOM     21  C   UNL     1       0.544  11.225  19.184  0.00  0.00    +0.000 A 
ATOM     22  C   UNL     1      -0.780  11.487  19.518  0.00  0.00    +0.000 A 
ATOM     23  C   UNL     1      -1.243  12.757  19.291  0.00  0.00    +0.000 A 
ATOM     24  N   UNL     1      -0.464  13.739  18.825  0.00  0.00    +0.000 NA
ATOM     25  C   UNL     1       0.811  13.400  18.571  0.00  0.00    +0.000 A 
ATOM     26  N   UNL     1       1.360  12.189  18.718  0.00  0.00    +0.000 NA
BRANCH  23  27
ATOM     27  N   UNL     1      -2.565  13.086  19.587  0.00  0.00    +0.000 N 
ATOM     28  H   UNL     1      -2.699  14.086  19.682  0.00  0.00    +0.000 HD
ATOM     29  H   UNL     1      -2.828  12.586  20.432  0.00  0.00    +0.000 HD
ENDBRANCH  23  27
ENDBRANCH   4  21
TORSDOF 5
ENDMDL
MODEL 3
REMARK VINA RESULT:      -8.0      4.725      7.159
REMARK  Name = 
REMARK  6 active torsions:
REMARK  status: ('A' for Active; 'I' for Inactive)
REMARK    1  A    between atoms: C_1  and  O_2
REMARK    2  A    between atoms: O_2  and  C_3
REMARK    3  A    between atoms: C_3  and  C_4
REMARK    4  A    between atoms: C_11  and  C_13
REMARK    5  A    between atoms: C_16  and  C_17
REMARK    6  A    between atoms: C_19  and  N_20
REMARK                            x       y       z     vdW  Elec       q    Type
REMARK                         _______ _______ _______ _____ _____    ______ ____
ROOT
ATOM      1  C   UNL     1       7.231   6.428  17.605  0.00  0.00    +0.000 A 
ATOM      2  C   UNL     1       7.086   7.630  16.924  0.00  0.00    +0.000 A 
ATOM      3  C   UNL     1       7.759   8.781  17.320  0.00  0.00    +0.000 A 
ATOM      4  C   UNL     1       8.520   8.808  18.494  0.00  0.00    +0.000 A 
ATOM      5  C   UNL     1       8.628   7.607  19.216  0.00  0.00    +0.000 A 
ATOM      6  C   UNL     1       7.993   6.430  18.778  0.00  0.00    +0.000 A 
ENDROOT
BRANCH   1  14
ATOM      7  C   UNL     1       2.146   4.369  20.515  0.00  0.00    +0.000 C 
ATOM      8  O   UNL     1       1.429   5.363  20.667  0.00  0.00    +0.000 OA
ATOM      9  N   UNL     1       3.344   4.426  19.813  0.00  0.00    +0.000 N 
ATOM     10  C   UNL     1       4.249   3.295  19.573  0.00  0.00    +0.000 C 
ATOM     11  C   UNL     1       4.187   2.761  18.149  0.00  0.00    +0.000 C 
ATOM     12  C   UNL     1       4.529   3.740  17.025  0.00  0.00    +0.000 C 
ATOM     13  N   UNL     1       5.148   4.995  17.453  0.00  0.00    +0.000 N 
ATOM     14  C   UNL     1       6.514   5.186  17.188  0.00  0.00    +0.000 C 
ATOM     15  O   UNL     1       7.187   4.341  16.596  0.00  0.00    +0.000 OA
ATOM     16  C   UNL     1       4.212   5.979  18.018  0.00  0.00    +0.000 C 
ATOM     17  C   UNL     1       3.871   5.748  19.497  0.00  0.00    +0.000 C 
BRANCH   7  18
ATOM     18  C   UNL     1       1.733   3.036  21.153  0.00  0.00    +0.000 C 
BRANCH  18  20
ATOM     19  C   UNL     1       0.648   2.607  19.088  0.00  0.00    +0.000 C 
ATOM     20  O   UNL     1       1.203   2.052  20.274  0.00  0.00    +0.000 OA
ENDBRANCH  18  20
ENDBRANCH   7  18
ENDBRANCH   1  14
BRANCH   4  21
ATOM     21  C   UNL     1       9.151  10.065  18.936  0.00  0.00    +0.000 A 
ATOM     22  C   UNL     1       9.192  10.428  20.278  0.00  0.00    +0.000 A 
ATOM     23  C   UNL     1       9.708  11.663  20.577  0.00  0.00    +0.000 A 
ATOM     24  N   UNL     1      10.211  12.482  19.647  0.00  0.00    +0.000 NA
ATOM     25  C   UNL     1      10.164  12.026  18.383  0.00  0.00    +0.000 A 
ATOM     26  N   UNL     1       9.653  10.861  17.973  0.00  0.00    +0.000 NA
BRANCH  23  27
ATOM     27  N   UNL     1       9.765  12.098  21.900  0.00  0.00    +0.000 N 
ATOM     28  H   UNL     1       9.303  12.990  22.030  0.00  0.00    +0.000 HD
ATOM     29  H   UNL     1      10.744  12.133  22.173  0.00  0.00    +0.000 HD
ENDBRANCH  23  27
ENDBRANCH   4  21
TORSDOF 5
ENDMDL
MODEL 4
REMARK VINA RESULT:      -8.0      4.693      7.140
REMARK  Name = 
REMARK  6 active torsions:
REMARK  status: ('A' for Active; 'I' for Inactive)
REMARK    1  A    between atoms: C_1  and  O_2
REMARK    2  A    between atoms: O_2  and  C_3
REMARK    3  A    between atoms: C_3  and  C_4
REMARK    4  A    between atoms: C_11  and  C_13
REMARK    5  A    between atoms: C_16  and  C_17
REMARK    6  A    between atoms: C_19  and  N_20
REMARK                            x       y       z     vdW  Elec       q    Type
REMARK                         _______ _______ _______ _____ _____    ______ ____
ROOT
ATOM      1  C   UNL     1       7.303   6.578  17.608  0.00  0.00    +0.000 A 
ATOM      2  C   UNL     1       7.131   7.793  16.956  0.00  0.00    +0.000 A 
ATOM      3  C   UNL     1       7.786   8.947  17.376  0.00  0.00    +0.000 A 
ATOM      4  C   UNL     1       8.555   8.960  18.545  0.00  0.00    +0.000 A 
ATOM      5  C   UNL     1       8.689   7.745  19.238  0.00  0.00    +0.000 A 
ATOM      6  C   UNL     1       8.073   6.566  18.776  0.00  0.00    +0.000 A 
ENDROOT
BRANCH   1  14
ATOM      7  C   UNL     1       2.205   4.425  20.424  0.00  0.00    +0.000 C 
ATOM      8  O   UNL     1       1.474   5.408  20.578  0.00  0.00    +0.000 OA
ATOM      9  N   UNL     1       3.411   4.505  19.739  0.00  0.00    +0.000 N 
ATOM     10  C   UNL     1       4.332   3.387  19.498  0.00  0.00    +0.000 C 
ATOM     11  C   UNL     1       4.295   2.870  18.066  0.00  0.00    +0.000 C 
ATOM     12  C   UNL     1       4.641   3.867  16.959  0.00  0.00    +0.000 C 
ATOM     13  N   UNL     1       5.239   5.123  17.411  0.00  0.00    +0.000 N 
ATOM     14  C   UNL     1       6.607   5.333  17.166  0.00  0.00    +0.000 C 
ATOM     15  O   UNL     1       7.297   4.503  16.573  0.00  0.00    +0.000 OA
ATOM     16  C   UNL     1       4.284   6.090  17.974  0.00  0.00    +0.000 C 
ATOM     17  C   UNL     1       3.927   5.836  19.447  0.00  0.00    +0.000 C 
BRANCH   7  18
ATOM     18  C   UNL     1       1.799   3.079  21.040  0.00  0.00    +0.000 C 
BRANCH  18  20
ATOM     19  C   UNL     1       0.680   2.476  19.037  0.00  0.00    +0.000 C 
ATOM     20  O   UNL     1       1.481   2.036  20.127  0.00  0.00    +0.000 OA
ENDBRANCH  18  20
ENDBRANCH   7  18
ENDBRANCH   1  14
BRANCH   4  21
ATOM     21  C   UNL     1       9.165  10.218  19.013  0.00  0.00    +0.000 A 
ATOM     22  C   UNL     1       9.724  11.131  18.125  0.00  0.00    +0.000 A 
ATOM     23  C   UNL     1      10.357  12.221  18.665  0.00  0.00    +0.000 A 
ATOM     24  N   UNL     1      10.401  12.454  19.981  0.00  0.00    +0.000 NA
ATOM     25  C   UNL     1       9.797  11.537  20.756  0.00  0.00    +0.000 A 
ATOM     26  N   UNL     1       9.184  10.422  20.343  0.00  0.00    +0.000 NA
BRANCH  23  27
ATOM     27  N   UNL     1      10.954  13.168  17.835  0.00  0.00    +0.000 N 
ATOM     28  H   UNL     1      10.726  14.116  18.110  0.00  0.00    +0.000 HD
ATOM     29  H   UNL     1      10.668  12.969  16.880  0.00  0.00    +0.000 HD
ENDBRANCH  23  27
ENDBRANCH   4  21
TORSDOF 5
ENDMDL
MODEL 5
REMARK VINA RESULT:      -7.8      0.975      1.142
REMARK  Name = 
REMARK  6 active torsions:
REMARK  status: ('A' for Active; 'I' for Inactive)
REMARK    1  A    between atoms: C_1  and  O_2
REMARK    2  A    between atoms: O_2  and  C_3
REMARK    3  A    between atoms: C_3  and  C_4
REMARK    4  A    between atoms: C_11  and  C_13
REMARK    5  A    between atoms: C_16  and  C_17
REMARK    6  A    between atoms: C_19  and  N_20
REMARK                            x       y       z     vdW  Elec       q    Type
REMARK                         _______ _______ _______ _____ _____    ______ ____
ROOT
ATOM      1  C   UNL     1       2.217   7.328  19.322  0.00  0.00    +0.000 A 
ATOM      2  C   UNL     1       2.201   8.037  18.127  0.00  0.00    +0.000 A 
ATOM      3  C   UNL     1       1.757   9.354  18.065  0.00  0.00    +0.000 A 
ATOM      4  C   UNL     1       1.196   9.984  19.181  0.00  0.00    +0.000 A 
ATOM      5  C   UNL     1       1.162   9.252  20.381  0.00  0.00    +0.000 A 
ATOM      6  C   UNL     1       1.668   7.941  20.453  0.00  0.00    +0.000 A 
ENDROOT
BRANCH   1  14
ATOM      7  C   UNL     1       6.395   4.986  15.370  0.00  0.00    +0.000 C 
ATOM      8  O   UNL     1       7.287   5.836  15.292  0.00  0.00    +0.000 OA
ATOM      9  N   UNL     1       5.322   5.123  16.241  0.00  0.00    +0.000 N 
ATOM     10  C   UNL     1       4.227   4.158  16.408  0.00  0.00    +0.000 C 
ATOM     11  C   UNL     1       4.329   3.343  17.689  0.00  0.00    +0.000 C 
ATOM     12  C   UNL     1       4.329   4.118  19.007  0.00  0.00    +0.000 C 
ATOM     13  N   UNL     1       3.950   5.528  18.906  0.00  0.00    +0.000 N 
ATOM     14  C   UNL     1       2.693   5.915  19.401  0.00  0.00    +0.000 C 
ATOM     15  O   UNL     1       1.924   5.109  19.927  0.00  0.00    +0.000 OA
ATOM     16  C   UNL     1       5.007   6.412  18.392  0.00  0.00    +0.000 C 
ATOM     17  C   UNL     1       5.127   6.428  16.861  0.00  0.00    +0.000 C 
BRANCH   7  18
ATOM     18  C   UNL     1       6.442   3.758  14.451  0.00  0.00    +0.000 C 
BRANCH  18  20
ATOM     19  C   UNL     1       5.735   3.247  12.246  0.00  0.00    +0.000 C 
ATOM     20  O   UNL     1       6.612   4.012  13.063  0.00  0.00    +0.000 OA
ENDBRANCH  18  20
ENDBRANCH   7  18
ENDBRANCH   1  14
BRANCH   4  21
ATOM     21  C   UNL     1       0.654  11.350  19.063  0.00  0.00    +0.000 A 
ATOM     22  C   UNL     1       1.483  12.450  18.873  0.00  0.00    +0.000 A 
ATOM     23  C   UNL     1       0.892  13.687  18.878  0.00  0.00    +0.000 A 
ATOM     24  N   UNL     1      -0.428  13.858  19.000  0.00  0.00    +0.000 NA
ATOM     25  C   UNL     1      -1.151  12.733  19.137  0.00  0.00    +0.000 A 
ATOM     26  N   UNL     1      -0.680  11.483  19.183  0.00  0.00    +0.000 NA
BRANCH  23  27
ATOM     27  N   UNL     1       1.665  14.835  18.708  0.00  0.00    +0.000 N 
ATOM     28  H   UNL     1       2.612  14.712  19.046  0.00  0.00    +0.000 HD
ATOM     29  H   UNL     1       1.190  15.601  19.178  0.00  0.00    +0.000 HD
ENDBRANCH  23  27
ENDBRANCH   4  21
TORSDOF 5
ENDMDL
MODEL 6
REMARK VINA RESULT:      -7.5      0.714      1.534
REMARK  Name = 
REMARK  6 active torsions:
REMARK  status: ('A' for Active; 'I' for Inactive)
REMARK    1  A    between atoms: C_1  and  O_2
REMARK    2  A    between atoms: O_2  and  C_3
REMARK    3  A    between atoms: C_3  and  C_4
REMARK    4  A    between atoms: C_11  and  C_13
REMARK    5  A    between atoms: C_16  and  C_17
REMARK    6  A    between atoms: C_19  and  N_20
REMARK                            x       y       z     vdW  Elec       q    Type
REMARK                         _______ _______ _______ _____ _____    ______ ____
ROOT
ATOM      1  C   UNL     1       2.012   6.803  19.683  0.00  0.00    +0.000 A 
ATOM      2  C   UNL     1       1.639   7.387  20.887  0.00  0.00    +0.000 A 
ATOM      3  C   UNL     1       1.192   8.703  20.955  0.00  0.00    +0.000 A 
ATOM      4  C   UNL     1       1.212   9.534  19.829  0.00  0.00    +0.000 A 
ATOM      5  C   UNL     1       1.640   8.963  18.618  0.00  0.00    +0.000 A 
ATOM      6  C   UNL     1       2.034   7.614  18.543  0.00  0.00    +0.000 A 
ENDROOT
BRANCH   1  14
ATOM      7  C   UNL     1       6.502   5.030  15.778  0.00  0.00    +0.000 C 
ATOM      8  O   UNL     1       7.391   5.880  15.890  0.00  0.00    +0.000 OA
ATOM      9  N   UNL     1       5.364   5.046  16.574  0.00  0.00    +0.000 N 
ATOM     10  C   UNL     1       4.267   4.071  16.517  0.00  0.00    +0.000 C 
ATOM     11  C   UNL     1       4.276   3.082  17.674  0.00  0.00    +0.000 C 
ATOM     12  C   UNL     1       4.168   3.664  19.084  0.00  0.00    +0.000 C 
ATOM     13  N   UNL     1       3.786   5.075  19.153  0.00  0.00    +0.000 N 
ATOM     14  C   UNL     1       2.492   5.392  19.599  0.00  0.00    +0.000 C 
ATOM     15  O   UNL     1       1.691   4.522  19.944  0.00  0.00    +0.000 OA
ATOM     16  C   UNL     1       4.873   6.020  18.854  0.00  0.00    +0.000 C 
ATOM     17  C   UNL     1       5.111   6.251  17.354  0.00  0.00    +0.000 C 
BRANCH   7  18
ATOM     18  C   UNL     1       6.630   3.944  14.702  0.00  0.00    +0.000 C 
BRANCH  18  20
ATOM     19  C   UNL     1       6.223   3.394  12.431  0.00  0.00    +0.000 C 
ATOM     20  O   UNL     1       6.649   4.390  13.352  0.00  0.00    +0.000 OA
ENDBRANCH  18  20
ENDBRANCH   7  18
ENDBRANCH   1  14
BRANCH   4  21
ATOM     21  C   UNL     1       0.816  10.949  19.949  0.00  0.00    +0.000 A 
ATOM     22  C   UNL     1       0.398  11.488  21.161  0.00  0.00    +0.000 A 
ATOM     23  C   UNL     1      -0.047  12.785  21.148  0.00  0.00    +0.000 A 
ATOM     24  N   UNL     1      -0.037  13.543  20.047  0.00  0.00    +0.000 NA
ATOM     25  C   UNL     1       0.423  12.946  18.934  0.00  0.00    +0.000 A 
ATOM     26  N   UNL     1       0.845  11.683  18.821  0.00  0.00    +0.000 NA
BRANCH  23  27
ATOM     27  N   UNL     1      -0.496  13.385  22.324  0.00  0.00    +0.000 N 
ATOM     28  H   UNL     1      -0.908  12.716  22.962  0.00  0.00    +0.000 HD
ATOM     29  H   UNL     1      -1.151  14.119  22.067  0.00  0.00    +0.000 HD
ENDBRANCH  23  27
ENDBRANCH   4  21
TORSDOF 5
ENDMDL
MODEL 7
REMARK VINA RESULT:      -7.3      0.814      1.314
REMARK  Name = 
REMARK  6 active torsions:
REMARK  status: ('A' for Active; 'I' for Inactive)
REMARK    1  A    between atoms: C_1  and  O_2
REMARK    2  A    between atoms: O_2  and  C_3
REMARK    3  A    between atoms: C_3  and  C_4
REMARK    4  A    between atoms: C_11  and  C_13
REMARK    5  A    between atoms: C_16  and  C_17
REMARK    6  A    between atoms: C_19  and  N_20
REMARK                            x       y       z     vdW  Elec       q    Type
REMARK                         _______ _______ _______ _____ _____    ______ ____
ROOT
ATOM      1  C   UNL     1       2.085   6.841  19.705  0.00  0.00    +0.000 A 
ATOM      2  C   UNL     1       2.036   7.684  18.602  0.00  0.00    +0.000 A 
ATOM      3  C   UNL     1       1.624   9.009  18.712  0.00  0.00    +0.000 A 
ATOM      4  C   UNL     1       1.127   9.515  19.918  0.00  0.00    +0.000 A 
ATOM      5  C   UNL     1       1.125   8.650  21.025  0.00  0.00    +0.000 A 
ATOM      6  C   UNL     1       1.599   7.328  20.923  0.00  0.00    +0.000 A 
ENDROOT
BRANCH   1  14
ATOM      7  C   UNL     1       6.608   5.030  15.855  0.00  0.00    +0.000 C 
ATOM      8  O   UNL     1       7.517   5.852  16.006  0.00  0.00    +0.000 OA
ATOM      9  N   UNL     1       5.453   5.061  16.627  0.00  0.00    +0.000 N 
ATOM     10  C   UNL     1       4.332   4.117  16.524  0.00  0.00    +0.000 C 
ATOM     11  C   UNL     1       4.288   3.104  17.659  0.00  0.00    +0.000 C 
ATOM     12  C   UNL     1       4.166   3.657  19.080  0.00  0.00    +0.000 C 
ATOM     13  N   UNL     1       3.821   5.076  19.173  0.00  0.00    +0.000 N 
ATOM     14  C   UNL     1       2.527   5.418  19.598  0.00  0.00    +0.000 C 
ATOM     15  O   UNL     1       1.695   4.564  19.907  0.00  0.00    +0.000 OA
ATOM     16  C   UNL     1       4.940   5.996  18.918  0.00  0.00    +0.000 C 
ATOM     17  C   UNL     1       5.216   6.254  17.429  0.00  0.00    +0.000 C 
BRANCH   7  18
ATOM     18  C   UNL     1       6.729   3.965  14.757  0.00  0.00    +0.000 C 
BRANCH  18  20
ATOM     19  C   UNL     1       7.525   4.882  12.720  0.00  0.00    +0.000 C 
ATOM     20  O   UNL     1       6.404   4.378  13.436  0.00  0.00    +0.000 OA
ENDBRANCH  18  20
ENDBRANCH   7  18
ENDBRANCH   1  14
BRANCH   4  21
ATOM     21  C   UNL     1       0.616  10.896  19.983  0.00  0.00    +0.000 A 
ATOM     22  C   UNL     1       0.371  11.527  21.198  0.00  0.00    +0.000 A 
ATOM     23  C   UNL     1      -0.200  12.773  21.153  0.00  0.00    +0.000 A 
ATOM     24  N   UNL     1      -0.469  13.405  20.005  0.00  0.00    +0.000 NA
ATOM     25  C   UNL     1      -0.159  12.732  18.884  0.00  0.00    +0.000 A 
ATOM     26  N   UNL     1       0.364  11.504  18.808  0.00  0.00    +0.000 NA
BRANCH  23  27
ATOM     27  N   UNL     1      -0.487  13.457  22.333  0.00  0.00    +0.000 N 
ATOM     28  H   UNL     1      -1.326  14.020  22.255  0.00  0.00    +0.000 HD
ATOM     29  H   UNL     1       0.326  14.018  22.573  0.00  0.00    +0.000 HD
ENDBRANCH  23  27
ENDBRANCH   4  21
TORSDOF 5
ENDMDL
MODEL 8
REMARK VINA RESULT:      -7.3      4.659      7.291
REMARK  Name = 
REMARK  6 active torsions:
REMARK  status: ('A' for Active; 'I' for Inactive)
REMARK    1  A    between atoms: C_1  and  O_2
REMARK    2  A    between atoms: O_2  and  C_3
REMARK    3  A    between atoms: C_3  and  C_4
REMARK    4  A    between atoms: C_11  and  C_13
REMARK    5  A    between atoms: C_16  and  C_17
REMARK    6  A    between atoms: C_19  and  N_20
REMARK                            x       y       z     vdW  Elec       q    Type
REMARK                         _______ _______ _______ _____ _____    ______ ____
ROOT
ATOM      1  C   UNL     1       7.347   6.627  17.545  0.00  0.00    +0.000 A 
ATOM      2  C   UNL     1       8.119   6.596  18.700  0.00  0.00    +0.000 A 
ATOM      3  C   UNL     1       8.660   7.754  19.249  0.00  0.00    +0.000 A 
ATOM      4  C   UNL     1       8.547   8.987  18.596  0.00  0.00    +0.000 A 
ATOM      5  C   UNL     1       7.811   9.015  17.400  0.00  0.00    +0.000 A 
ATOM      6  C   UNL     1       7.216   7.850  16.880  0.00  0.00    +0.000 A 
ENDROOT
BRANCH   1  14
ATOM      7  C   UNL     1       1.861   4.333  19.333  0.00  0.00    +0.000 C 
ATOM      8  O   UNL     1       1.099   5.304  19.383  0.00  0.00    +0.000 OA
ATOM      9  N   UNL     1       3.168   4.447  18.878  0.00  0.00    +0.000 N 
ATOM     10  C   UNL     1       4.136   3.347  18.773  0.00  0.00    +0.000 C 
ATOM     11  C   UNL     1       4.364   2.876  17.344  0.00  0.00    +0.000 C 
ATOM     12  C   UNL     1       4.887   3.912  16.347  0.00  0.00    +0.000 C 
ATOM     13  N   UNL     1       5.375   5.159  16.937  0.00  0.00    +0.000 N 
ATOM     14  C   UNL     1       6.761   5.390  16.948  0.00  0.00    +0.000 C 
ATOM     15  O   UNL     1       7.559   4.587  16.464  0.00  0.00    +0.000 OA
ATOM     16  C   UNL     1       4.320   6.097  17.348  0.00  0.00    +0.000 C 
ATOM     17  C   UNL     1       3.708   5.792  18.724  0.00  0.00    +0.000 C 
BRANCH   7  18
ATOM     18  C   UNL     1       1.371   2.965  19.825  0.00  0.00    +0.000 C 
BRANCH  18  20
ATOM     19  C   UNL     1       2.224   3.052  22.036  0.00  0.00    +0.000 C 
ATOM     20  O   UNL     1       1.081   2.858  21.212  0.00  0.00    +0.000 OA
ENDBRANCH  18  20
ENDBRANCH   7  18
ENDBRANCH   1  14
BRANCH   4  21
ATOM     21  C   UNL     1       9.205  10.181  19.157  0.00  0.00    +0.000 A 
ATOM     22  C   UNL     1       9.102  10.505  20.506  0.00  0.00    +0.000 A 
ATOM     23  C   UNL     1       9.663  11.689  20.910  0.00  0.00    +0.000 A 
ATOM     24  N   UNL     1      10.337  12.492  20.079  0.00  0.00    +0.000 NA
ATOM     25  C   UNL     1      10.418  12.074  18.804  0.00  0.00    +0.000 A 
ATOM     26  N   UNL     1       9.881  10.962  18.293  0.00  0.00    +0.000 NA
BRANCH  23  27
ATOM     27  N   UNL     1       9.584  12.084  22.244  0.00  0.00    +0.000 N 
ATOM     28  H   UNL     1       9.237  11.344  22.843  0.00  0.00    +0.000 HD
ATOM     29  H   UNL     1       8.999  12.915  22.288  0.00  0.00    +0.000 HD
ENDBRANCH  23  27
ENDBRANCH   4  21
TORSDOF 5
ENDMDL
MODEL 9
REMARK VINA RESULT:      -7.1      3.774      9.771
REMARK  Name = 
REMARK  6 active torsions:
REMARK  status: ('A' for Active; 'I' for Inactive)
REMARK    1  A    between atoms: C_1  and  O_2
REMARK    2  A    between atoms: O_2  and  C_3
REMARK    3  A    between atoms: C_3  and  C_4
REMARK    4  A    between atoms: C_11  and  C_13
REMARK    5  A    between atoms: C_16  and  C_17
REMARK    6  A    between atoms: C_19  and  N_20
REMARK                            x       y       z     vdW  Elec       q    Type
REMARK                         _______ _______ _______ _____ _____    ______ ____
ROOT
ATOM      1  C   UNL     1       0.936   9.307  18.609  0.00  0.00    +0.000 A 
ATOM      2  C   UNL     1       1.006   8.693  19.853  0.00  0.00    +0.000 A 
ATOM      3  C   UNL     1       1.864   7.625  20.095  0.00  0.00    +0.000 A 
ATOM      4  C   UNL     1       2.609   7.045  19.061  0.00  0.00    +0.000 A 
ATOM      5  C   UNL     1       2.502   7.630  17.788  0.00  0.00    +0.000 A 
ATOM      6  C   UNL     1       1.678   8.748  17.562  0.00  0.00    +0.000 A 
ENDROOT
BRANCH   1  14
ATOM      7  C   UNL     1       0.932  14.460  22.073  0.00  0.00    +0.000 C 
ATOM      8  O   UNL     1       2.121  14.761  22.217  0.00  0.00    +0.000 OA
ATOM      9  N   UNL     1       0.533  13.399  21.269  0.00  0.00    +0.000 N 
ATOM     10  C   UNL     1      -0.855  12.981  21.031  0.00  0.00    +0.000 C 
ATOM     11  C   UNL     1      -1.378  13.375  19.656  0.00  0.00    +0.000 C 
ATOM     12  C   UNL     1      -0.623  12.828  18.444  0.00  0.00    +0.000 C 
ATOM     13  N   UNL     1       0.340  11.765  18.732  0.00  0.00    +0.000 N 
ATOM     14  C   UNL     1       0.020  10.454  18.339  0.00  0.00    +0.000 C 
ATOM     15  O   UNL     1      -1.029  10.188  17.750  0.00  0.00    +0.000 OA
ATOM     16  C   UNL     1       1.612  12.229  19.305  0.00  0.00    +0.000 C 
ATOM     17  C   UNL     1       1.567  12.474  20.821  0.00  0.00    +0.000 C 
BRANCH   7  18
ATOM     18  C   UNL     1      -0.143  15.249  22.832  0.00  0.00    +0.000 C 
BRANCH  18  20
ATOM     19  C   UNL     1      -1.864  15.111  24.458  0.00  0.00    +0.000 C 
ATOM     20  O   UNL     1      -0.548  14.719  24.088  0.00  0.00    +0.000 OA
ENDBRANCH  18  20
ENDBRANCH   7  18
ENDBRANCH   1  14
BRANCH   4  21
ATOM     21  C   UNL     1       3.443   5.859  19.329  0.00  0.00    +0.000 A 
ATOM     22  C   UNL     1       4.728   5.740  18.812  0.00  0.00    +0.000 A 
ATOM     23  C   UNL     1       5.384   4.556  19.032  0.00  0.00    +0.000 A 
ATOM     24  N   UNL     1       4.860   3.562  19.757  0.00  0.00    +0.000 NA
ATOM     25  C   UNL     1       3.630   3.787  20.250  0.00  0.00    +0.000 A 
ATOM     26  N   UNL     1       2.885   4.882  20.069  0.00  0.00    +0.000 NA
BRANCH  23  27
ATOM     27  N   UNL     1       6.669   4.361  18.529  0.00  0.00    +0.000 N 
ATOM     28  H   UNL     1       7.316   4.047  19.242  0.00  0.00    +0.000 HD
ATOM     29  H   UNL     1       6.970   5.232  18.099  0.00  0.00    +0.000 HD
ENDBRANCH  23  27
ENDBRANCH   4  21
TORSDOF 5
ENDMDL
