MODEL 1
REMARK VINA RESULT:      -7.9      0.000      0.000
REMARK  Name = 
REMARK  10 active torsions:
REMARK  status: ('A' for Active; 'I' for Inactive)
REMARK    1  A    between atoms: C_1  and  C_2
REMARK    2  A    between atoms: C_5  and  C_6
REMARK    3  A    between atoms: C_6  and  N_7
REMARK    4  A    between atoms: C_15  and  N_16
REMARK    5  A    between atoms: N_16  and  S_17
REMARK    6  A    between atoms: S_17  and  C_20
REMARK    7  A    between atoms: C_23  and  C_24
REMARK    8  A    between atoms: C_24  and  C_25
REMARK    9  A    between atoms: C_24  and  C_26
REMARK   10  A    between atoms: C_24  and  C_27
REMARK                            x       y       z     vdW  Elec       q    Type
REMARK                         _______ _______ _______ _____ _____    ______ ____
ROOT
ATOM      1  N   UNL     1      -1.364  14.184  22.628  0.00  0.00    +0.000 N 
ATOM      2  C   UNL     1      -1.159  15.136  21.672  0.00  0.00    +0.000 C 
ATOM      3  O   UNL     1      -1.592  16.270  21.635  0.00  0.00    +0.000 OA
ATOM      4  C   UNL     1      -0.311  14.498  20.641  0.00  0.00    +0.000 A 
ATOM      5  C   UNL     1       0.236  14.977  19.471  0.00  0.00    +0.000 A 
ATOM      6 CL   UNL     1      -0.063  16.555  18.878  0.00  0.00    +0.000 Cl
ATOM      7  C   UNL     1       1.065  14.116  18.734  0.00  0.00    +0.000 A 
ATOM      8  C   UNL     1       1.342  12.806  19.184  0.00  0.00    +0.000 A 
ATOM      9  C   UNL     1       0.761  12.321  20.357  0.00  0.00    +0.000 A 
ATOM     10  C   UNL     1      -0.070  13.187  21.058  0.00  0.00    +0.000 A 
ATOM     11  C   UNL     1      -0.814  12.978  22.288  0.00  0.00    +0.000 C 
ATOM     12  O   UNL     1      -0.940  11.896  22.832  0.00  0.00    +0.000 OA
ENDROOT
BRANCH   9  13
ATOM     13  N   UNL     1       1.101  11.000  20.799  0.00  0.00    +0.000 N 
ATOM     14  H   UNL     1       2.094  10.793  20.900  0.00  0.00    +0.000 HD
BRANCH  13  15
ATOM     15  S   UNL     1       0.210   9.732  20.082  0.00  0.00    +0.000 S 
ATOM     16  O   UNL     1      -0.500   9.062  21.155  0.00  0.00    +0.000 OA
ATOM     17  O   UNL     1      -0.508  10.250  18.934  0.00  0.00    +0.000 OA
BRANCH  15  18
ATOM     18  C   UNL     1       1.461   8.610  19.482  0.00  0.00    +0.000 A 
ATOM     19  C   UNL     1       1.741   7.445  20.193  0.00  0.00    +0.000 A 
ATOM     20  C   UNL     1       2.628   6.496  19.660  0.00  0.00    +0.000 A 
ATOM     21  C   UNL     1       3.253   6.676  18.409  0.00  0.00    +0.000 A 
ATOM     22  C   UNL     1       2.939   7.857  17.708  0.00  0.00    +0.000 A 
ATOM     23  C   UNL     1       2.051   8.810  18.232  0.00  0.00    +0.000 A 
BRANCH  21  24
ATOM     24  C   UNL     1       4.229   5.636  17.815  0.00  0.00    +0.000 C 
ATOM     25  C   UNL     1       3.537   4.305  17.441  0.00  0.00    +0.000 C 
ATOM     26  C   UNL     1       4.898   6.182  16.533  0.00  0.00    +0.000 C 
ATOM     27  C   UNL     1       5.343   5.296  18.830  0.00  0.00    +0.000 C 
ENDBRANCH  21  24
ENDBRANCH  15  18
ENDBRANCH  13  15
ENDBRANCH   9  13
BRANCH   1  28
ATOM     28  C   UNL     1      -2.114  14.396  23.855  0.00  0.00    +0.000 C 
BRANCH  28  33
ATOM     29  C   UNL     1      -7.503  12.337  23.738  0.00  0.00    +0.000 C 
ATOM     30  C   UNL     1      -6.116  12.907  23.735  0.00  0.00    +0.000 A 
ATOM     31  C   UNL     1      -5.835  14.094  23.069  0.00  0.00    +0.000 A 
ATOM     32  C   UNL     1      -4.531  14.586  23.091  0.00  0.00    +0.000 A 
ATOM     33  C   UNL     1      -3.528  13.883  23.766  0.00  0.00    +0.000 A 
ATOM     34  C   UNL     1      -3.906  12.705  24.398  0.00  0.00    +0.000 A 
ATOM     35  N   UNL     1      -5.167  12.209  24.401  0.00  0.00    +0.000 NA
ENDBRANCH  28  33
ENDBRANCH   1  28
TORSDOF 6
ENDMDL
MODEL 2
REMARK VINA RESULT:      -7.9      4.531     11.423
REMARK  Name = 
REMARK  10 active torsions:
REMARK  status: ('A' for Active; 'I' for Inactive)
REMARK    1  A    between atoms: C_1  and  C_2
REMARK    2  A    between atoms: C_5  and  C_6
REMARK    3  A    between atoms: C_6  and  N_7
REMARK    4  A    between atoms: C_15  and  N_16
REMARK    5  A    between atoms: N_16  and  S_17
REMARK    6  A    between atoms: S_17  and  C_20
REMARK    7  A    between atoms: C_23  and  C_24
REMARK    8  A    between atoms: C_24  and  C_25
REMARK    9  A    between atoms: C_24  and  C_26
REMARK   10  A    between atoms: C_24  and  C_27
REMARK                            x       y       z     vdW  Elec       q    Type
REMARK                         _______ _______ _______ _____ _____    ______ ____
ROOT
ATOM      1  N   UNL     1       5.237   4.762  18.569  0.00  0.00    +0.000 N 
ATOM      2  C   UNL     1       4.458   3.782  19.113  0.00  0.00    +0.000 C 
ATOM      3  O   UNL     1       4.684   2.591  19.178  0.00  0.00    +0.000 OA
ATOM      4  C   UNL     1       3.234   4.459  19.594  0.00  0.00    +0.000 A 
ATOM      5  C   UNL     1       2.117   3.990  20.250  0.00  0.00    +0.000 A 
ATOM      6 CL   UNL     1       1.868   2.332  20.601  0.00  0.00    +0.000 Cl
ATOM      7  C   UNL     1       1.140   4.923  20.632  0.00  0.00    +0.000 A 
ATOM      8  C   UNL     1       1.302   6.300  20.367  0.00  0.00    +0.000 A 
ATOM      9  C   UNL     1       2.424   6.763  19.677  0.00  0.00    +0.000 A 
ATOM     10  C   UNL     1       3.367   5.817  19.294  0.00  0.00    +0.000 A 
ATOM     11  C   UNL     1       4.616   5.981  18.570  0.00  0.00    +0.000 C 
ATOM     12  O   UNL     1       4.960   7.018  18.032  0.00  0.00    +0.000 OA
ENDROOT
BRANCH   9  13
ATOM     13  N   UNL     1       2.569   8.173  19.464  0.00  0.00    +0.000 N 
ATOM     14  H   UNL     1       2.557   8.765  20.295  0.00  0.00    +0.000 HD
BRANCH  13  15
ATOM     15  S   UNL     1       1.677   8.815  18.158  0.00  0.00    +0.000 S 
ATOM     16  O   UNL     1       2.573   9.695  17.432  0.00  0.00    +0.000 OA
ATOM     17  O   UNL     1       0.994   7.734  17.476  0.00  0.00    +0.000 OA
BRANCH  15  18
ATOM     18  C   UNL     1       0.439   9.836  18.939  0.00  0.00    +0.000 A 
ATOM     19  C   UNL     1       0.656  10.320  20.227  0.00  0.00    +0.000 A 
ATOM     20  C   UNL     1      -0.252  11.227  20.796  0.00  0.00    +0.000 A 
ATOM     21  C   UNL     1      -1.391  11.681  20.101  0.00  0.00    +0.000 A 
ATOM     22  C   UNL     1      -1.575  11.186  18.796  0.00  0.00    +0.000 A 
ATOM     23  C   UNL     1      -0.671  10.279  18.217  0.00  0.00    +0.000 A 
BRANCH  21  24
ATOM     24  C   UNL     1      -2.394  12.680  20.720  0.00  0.00    +0.000 C 
ATOM     25  C   UNL     1      -2.632  12.438  22.229  0.00  0.00    +0.000 C 
ATOM     26  C   UNL     1      -1.888  14.132  20.562  0.00  0.00    +0.000 C 
ATOM     27  C   UNL     1      -3.768  12.571  20.023  0.00  0.00    +0.000 C 
ENDBRANCH  21  24
ENDBRANCH  15  18
ENDBRANCH  13  15
ENDBRANCH   9  13
BRANCH   1  28
ATOM     28  C   UNL     1       6.562   4.547  18.011  0.00  0.00    +0.000 C 
BRANCH  28  33
ATOM     29  C   UNL     1       6.775   4.369  12.248  0.00  0.00    +0.000 C 
ATOM     30  C   UNL     1       6.677   4.389  13.743  0.00  0.00    +0.000 A 
ATOM     31  C   UNL     1       5.718   3.632  14.405  0.00  0.00    +0.000 A 
ATOM     32  C   UNL     1       5.662   3.682  15.797  0.00  0.00    +0.000 A 
ATOM     33  C   UNL     1       6.554   4.492  16.505  0.00  0.00    +0.000 A 
ATOM     34  C   UNL     1       7.474   5.215  15.755  0.00  0.00    +0.000 A 
ATOM     35  N   UNL     1       7.557   5.178  14.404  0.00  0.00    +0.000 NA
ENDBRANCH  28  33
ENDBRANCH   1  28
TORSDOF 6
ENDMDL
MODEL 3
REMARK VINA RESULT:      -7.8      4.556     11.440
REMARK  Name = 
REMARK  10 active torsions:
REMARK  status: ('A' for Active; 'I' for Inactive)
REMARK    1  A    between atoms: C_1  and  C_2
REMARK    2  A    between atoms: C_5  and  C_6
REMARK    3  A    between atoms: C_6  and  N_7
REMARK    4  A    between atoms: C_15  and  N_16
REMARK    5  A    between atoms: N_16  and  S_17
REMARK    6  A    between atoms: S_17  and  C_20
REMARK    7  A    between atoms: C_23  and  C_24
REMARK    8  A    between atoms: C_24  and  C_25
REMARK    9  A    between atoms: C_24  and  C_26
REMARK   10  A    between atoms: C_24  and  C_27
REMARK                            x       y       z     vdW  Elec       q    Type
REMARK                         _______ _______ _______ _____ _____    ______ ____
ROOT
ATOM      1  N   UNL     1       5.234   4.745  18.593  0.00  0.00    +0.000 N 
ATOM      2  C   UNL     1       4.467   3.744  19.118  0.00  0.00    +0.000 C 
ATOM      3  O   UNL     1       4.712   2.557  19.168  0.00  0.00    +0.000 OA
ATOM      4  C   UNL     1       3.229   4.395  19.599  0.00  0.00    +0.000 A 
ATOM      5  C   UNL     1       2.116   3.898  20.241  0.00  0.00    +0.000 A 
ATOM      6 CL   UNL     1       1.892   2.232  20.567  0.00  0.00    +0.000 Cl
ATOM      7  C   UNL     1       1.121   4.810  20.629  0.00  0.00    +0.000 A 
ATOM      8  C   UNL     1       1.262   6.194  20.385  0.00  0.00    +0.000 A 
ATOM      9  C   UNL     1       2.382   6.685  19.709  0.00  0.00    +0.000 A 
ATOM     10  C   UNL     1       3.342   5.759  19.319  0.00  0.00    +0.000 A 
ATOM     11  C   UNL     1       4.593   5.953  18.606  0.00  0.00    +0.000 C 
ATOM     12  O   UNL     1       4.924   7.003  18.085  0.00  0.00    +0.000 OA
ENDROOT
BRANCH   9  13
ATOM     13  N   UNL     1       2.504   8.099  19.516  0.00  0.00    +0.000 N 
ATOM     14  H   UNL     1       2.409   8.684  20.347  0.00  0.00    +0.000 HD
BRANCH  13  15
ATOM     15  S   UNL     1       1.705   8.728  18.145  0.00  0.00    +0.000 S 
ATOM     16  O   UNL     1       2.705   9.429  17.363  0.00  0.00    +0.000 OA
ATOM     17  O   UNL     1       0.902   7.681  17.546  0.00  0.00    +0.000 OA
BRANCH  15  18
ATOM     18  C   UNL     1       0.593   9.952  18.816  0.00  0.00    +0.000 A 
ATOM     19  C   UNL     1      -0.620  10.205  18.179  0.00  0.00    +0.000 A 
ATOM     20  C   UNL     1      -1.555  11.069  18.771  0.00  0.00    +0.000 A 
ATOM     21  C   UNL     1      -1.312  11.698  20.009  0.00  0.00    +0.000 A 
ATOM     22  C   UNL     1      -0.084  11.412  20.635  0.00  0.00    +0.000 A 
ATOM     23  C   UNL     1       0.856  10.546  20.052  0.00  0.00    +0.000 A 
BRANCH  21  24
ATOM     24  C   UNL     1      -2.336  12.650  20.668  0.00  0.00    +0.000 C 
ATOM     25  C   UNL     1      -1.925  14.138  20.569  0.00  0.00    +0.000 C 
ATOM     26  C   UNL     1      -3.722  12.510  19.999  0.00  0.00    +0.000 C 
ATOM     27  C   UNL     1      -2.492  12.324  22.170  0.00  0.00    +0.000 C 
ENDBRANCH  21  24
ENDBRANCH  15  18
ENDBRANCH  13  15
ENDBRANCH   9  13
BRANCH   1  28
ATOM     28  C   UNL     1       6.566   4.559  18.041  0.00  0.00    +0.000 C 
BRANCH  28  33
ATOM     29  C   UNL     1       6.815   4.421  12.278  0.00  0.00    +0.000 C 
ATOM     30  C   UNL     1       6.708   4.430  13.773  0.00  0.00    +0.000 A 
ATOM     31  C   UNL     1       5.770   3.638  14.425  0.00  0.00    +0.000 A 
ATOM     32  C   UNL     1       5.706   3.679  15.818  0.00  0.00    +0.000 A 
ATOM     33  C   UNL     1       6.568   4.513  16.535  0.00  0.00    +0.000 A 
ATOM     34  C   UNL     1       7.468   5.269  15.794  0.00  0.00    +0.000 A 
ATOM     35  N   UNL     1       7.559   5.242  14.443  0.00  0.00    +0.000 NA
ENDBRANCH  28  33
ENDBRANCH   1  28
TORSDOF 6
ENDMDL
MODEL 4
REMARK VINA RESULT:      -7.7      3.650      6.897
REMARK  Name = 
REMARK  10 active torsions:
REMARK  status: ('A' for Active; 'I' for Inactive)
REMARK    1  A    between atoms: C_1  and  C_2
REMARK    2  A    between atoms: C_5  and  C_6
REMARK    3  A    between atoms: C_6  and  N_7
REMARK    4  A    between atoms: C_15  and  N_16
REMARK    5  A    between atoms: N_16  and  S_17
REMARK    6  A    between atoms: S_17  and  C_20
REMARK    7  A    between atoms: C_23  and  C_24
REMARK    8  A    between atoms: C_24  and  C_25
REMARK    9  A    between atoms: C_24  and  C_26
REMARK   10  A    between atoms: C_24  and  C_27
REMARK                            x       y       z     vdW  Elec       q    Type
REMARK                         _______ _______ _______ _____ _____    ______ ____
ROOT
ATOM      1  N   UNL     1       3.600  15.187  18.057  0.00  0.00    +0.000 N 
ATOM      2  C   UNL     1       2.872  16.265  18.470  0.00  0.00    +0.000 C 
ATOM      3  O   UNL     1       3.215  17.428  18.523  0.00  0.00    +0.000 OA
ATOM      4  C   UNL     1       1.557  15.729  18.886  0.00  0.00    +0.000 A 
ATOM      5  C   UNL     1       0.418  16.344  19.357  0.00  0.00    +0.000 A 
ATOM      6 CL   UNL     1       0.323  18.027  19.663  0.00  0.00    +0.000 Cl
ATOM      7  C   UNL     1      -0.707  15.541  19.604  0.00  0.00    +0.000 A 
ATOM      8  C   UNL     1      -0.678  14.150  19.364  0.00  0.00    +0.000 A 
ATOM      9  C   UNL     1       0.490  13.531  18.913  0.00  0.00    +0.000 A 
ATOM     10  C   UNL     1       1.594  14.346  18.694  0.00  0.00    +0.000 A 
ATOM     11  C   UNL     1       2.932  14.007  18.239  0.00  0.00    +0.000 C 
ATOM     12  O   UNL     1       3.342  12.867  18.122  0.00  0.00    +0.000 OA
ENDROOT
BRANCH   9  13
ATOM     13  N   UNL     1       0.465  12.123  18.644  0.00  0.00    +0.000 N 
ATOM     14  H   UNL     1      -0.129  11.816  17.875  0.00  0.00    +0.000 HD
BRANCH  13  15
ATOM     15  S   UNL     1       0.380  11.113  20.018  0.00  0.00    +0.000 S 
ATOM     16  O   UNL     1       1.251  11.697  21.020  0.00  0.00    +0.000 OA
ATOM     17  O   UNL     1      -1.011  10.842  20.319  0.00  0.00    +0.000 OA
BRANCH  15  18
ATOM     18  C   UNL     1       1.129   9.585  19.478  0.00  0.00    +0.000 A 
ATOM     19  C   UNL     1       1.649   9.489  18.190  0.00  0.00    +0.000 A 
ATOM     20  C   UNL     1       2.354   8.338  17.803  0.00  0.00    +0.000 A 
ATOM     21  C   UNL     1       2.566   7.260  18.686  0.00  0.00    +0.000 A 
ATOM     22  C   UNL     1       2.041   7.393  19.986  0.00  0.00    +0.000 A 
ATOM     23  C   UNL     1       1.336   8.542  20.382  0.00  0.00    +0.000 A 
BRANCH  21  24
ATOM     24  C   UNL     1       3.342   5.990  18.269  0.00  0.00    +0.000 C 
ATOM     25  C   UNL     1       2.413   4.837  17.820  0.00  0.00    +0.000 C 
ATOM     26  C   UNL     1       4.298   6.294  17.094  0.00  0.00    +0.000 C 
ATOM     27  C   UNL     1       4.183   5.457  19.449  0.00  0.00    +0.000 C 
ENDBRANCH  21  24
ENDBRANCH  15  18
ENDBRANCH  13  15
ENDBRANCH   9  13
BRANCH   1  28
ATOM     28  C   UNL     1       4.949  15.260  17.520  0.00  0.00    +0.000 C 
BRANCH  28  33
ATOM     29  C   UNL     1       8.805  14.164  21.670  0.00  0.00    +0.000 C 
ATOM     30  C   UNL     1       7.838  14.438  20.557  0.00  0.00    +0.000 A 
ATOM     31  C   UNL     1       8.163  14.135  19.240  0.00  0.00    +0.000 A 
ATOM     32  C   UNL     1       7.233  14.407  18.238  0.00  0.00    +0.000 A 
ATOM     33  C   UNL     1       6.003  14.986  18.562  0.00  0.00    +0.000 A 
ATOM     34  C   UNL     1       5.772  15.257  19.905  0.00  0.00    +0.000 A 
ATOM     35  N   UNL     1       6.652  14.993  20.900  0.00  0.00    +0.000 NA
ENDBRANCH  28  33
ENDBRANCH   1  28
TORSDOF 6
ENDMDL
MODEL 5
REMARK VINA RESULT:      -7.7      3.601      6.857
REMARK  Name = 
REMARK  10 active torsions:
REMARK  status: ('A' for Active; 'I' for Inactive)
REMARK    1  A    between atoms: C_1  and  C_2
REMARK    2  A    between atoms: C_5  and  C_6
REMARK    3  A    between atoms: C_6  and  N_7
REMARK    4  A    between atoms: C_15  and  N_16
REMARK    5  A    between atoms: N_16  and  S_17
REMARK    6  A    between atoms: S_17  and  C_20
REMARK    7  A    between atoms: C_23  and  C_24
REMARK    8  A    between atoms: C_24  and  C_25
REMARK    9  A    between atoms: C_24  and  C_26
REMARK   10  A    between atoms: C_24  and  C_27
REMARK                            x       y       z     vdW  Elec       q    Type
REMARK                         _______ _______ _______ _____ _____    ______ ____
ROOT
ATOM      1  N   UNL     1       3.419  15.171  18.054  0.00  0.00    +0.000 N 
ATOM      2  C   UNL     1       2.677  16.222  18.515  0.00  0.00    +0.000 C 
ATOM      3  O   UNL     1       2.992  17.393  18.579  0.00  0.00    +0.000 OA
ATOM      4  C   UNL     1       1.393  15.643  18.965  0.00  0.00    +0.000 A 
ATOM      5  C   UNL     1       0.255  16.218  19.489  0.00  0.00    +0.000 A 
ATOM      6 CL   UNL     1       0.128  17.891  19.832  0.00  0.00    +0.000 Cl
ATOM      7  C   UNL     1      -0.838  15.380  19.759  0.00  0.00    +0.000 A 
ATOM      8  C   UNL     1      -0.781  13.995  19.490  0.00  0.00    +0.000 A 
ATOM      9  C   UNL     1       0.386  13.417  18.986  0.00  0.00    +0.000 A 
ATOM     10  C   UNL     1       1.459  14.265  18.744  0.00  0.00    +0.000 A 
ATOM     11  C   UNL     1       2.789  13.971  18.236  0.00  0.00    +0.000 C 
ATOM     12  O   UNL     1       3.224  12.845  18.082  0.00  0.00    +0.000 OA
ENDROOT
BRANCH   9  13
ATOM     13  N   UNL     1       0.388  12.014  18.690  0.00  0.00    +0.000 N 
ATOM     14  H   UNL     1      -0.178  11.714  17.897  0.00  0.00    +0.000 HD
BRANCH  13  15
ATOM     15  S   UNL     1       0.274  10.977  20.041  0.00  0.00    +0.000 S 
ATOM     16  O   UNL     1       0.975  11.630  21.130  0.00  0.00    +0.000 OA
ATOM     17  O   UNL     1      -1.104  10.556  20.198  0.00  0.00    +0.000 OA
BRANCH  15  18
ATOM     18  C   UNL     1       1.230   9.545  19.569  0.00  0.00    +0.000 A 
ATOM     19  C   UNL     1       1.414   8.508  20.480  0.00  0.00    +0.000 A 
ATOM     20  C   UNL     1       2.051   7.324  20.074  0.00  0.00    +0.000 A 
ATOM     21  C   UNL     1       2.516   7.140  18.756  0.00  0.00    +0.000 A 
ATOM     22  C   UNL     1       2.303   8.201  17.855  0.00  0.00    +0.000 A 
ATOM     23  C   UNL     1       1.663   9.387  18.251  0.00  0.00    +0.000 A 
BRANCH  21  24
ATOM     24  C   UNL     1       3.218   5.841  18.301  0.00  0.00    +0.000 C 
ATOM     25  C   UNL     1       2.229   4.773  17.778  0.00  0.00    +0.000 C 
ATOM     26  C   UNL     1       4.224   6.131  17.164  0.00  0.00    +0.000 C 
ATOM     27  C   UNL     1       3.992   5.202  19.475  0.00  0.00    +0.000 C 
ENDBRANCH  21  24
ENDBRANCH  15  18
ENDBRANCH  13  15
ENDBRANCH   9  13
BRANCH   1  28
ATOM     28  C   UNL     1       4.745  15.291  17.472  0.00  0.00    +0.000 C 
BRANCH  28  33
ATOM     29  C   UNL     1       9.101  14.016  21.035  0.00  0.00    +0.000 C 
ATOM     30  C   UNL     1       7.940  14.357  20.150  0.00  0.00    +0.000 A 
ATOM     31  C   UNL     1       6.780  14.912  20.677  0.00  0.00    +0.000 A 
ATOM     32  C   UNL     1       5.726  15.212  19.816  0.00  0.00    +0.000 A 
ATOM     33  C   UNL     1       5.840  14.945  18.448  0.00  0.00    +0.000 A 
ATOM     34  C   UNL     1       7.036  14.386  18.017  0.00  0.00    +0.000 A 
ATOM     35  N   UNL     1       8.080  14.093  18.829  0.00  0.00    +0.000 NA
ENDBRANCH  28  33
ENDBRANCH   1  28
TORSDOF 6
ENDMDL
MODEL 6
REMARK VINA RESULT:      -7.7      2.544      4.955
REMARK  Name = 
REMARK  10 active torsions:
REMARK  status: ('A' for Active; 'I' for Inactive)
REMARK    1  A    between atoms: C_1  and  C_2
REMARK    2  A    between atoms: C_5  and  C_6
REMARK    3  A    between atoms: C_6  and  N_7
REMARK    4  A    between atoms: C_15  and  N_16
REMARK    5  A    between atoms: N_16  and  S_17
REMARK    6  A    between atoms: S_17  and  C_20
REMARK    7  A    between atoms: C_23  and  C_24
REMARK    8  A    between atoms: C_24  and  C_25
REMARK    9  A    between atoms: C_24  and  C_26
REMARK   10  A    between atoms: C_24  and  C_27
REMARK                            x       y       z     vdW  Elec       q    Type
REMARK                         _______ _______ _______ _____ _____    ______ ____
ROOT
ATOM      1  N   UNL     1       0.117  15.622  22.237  0.00  0.00    +0.000 N 
ATOM      2  C   UNL     1      -1.092  15.625  22.872  0.00  0.00    +0.000 C 
ATOM      3  O   UNL     1      -1.711  16.575  23.306  0.00  0.00    +0.000 OA
ATOM      4  C   UNL     1      -1.503  14.207  22.963  0.00  0.00    +0.000 A 
ATOM      5  C   UNL     1      -2.635  13.606  23.470  0.00  0.00    +0.000 A 
ATOM      6 CL   UNL     1      -3.885  14.477  24.252  0.00  0.00    +0.000 Cl
ATOM      7  C   UNL     1      -2.750  12.212  23.343  0.00  0.00    +0.000 A 
ATOM      8  C   UNL     1      -1.747  11.452  22.703  0.00  0.00    +0.000 A 
ATOM      9  C   UNL     1      -0.591  12.067  22.217  0.00  0.00    +0.000 A 
ATOM     10  C   UNL     1      -0.493  13.444  22.373  0.00  0.00    +0.000 A 
ATOM     11  C   UNL     1       0.569  14.356  21.985  0.00  0.00    +0.000 C 
ATOM     12  O   UNL     1       1.660  13.998  21.579  0.00  0.00    +0.000 OA
ENDROOT
BRANCH   9  13
ATOM     13  N   UNL     1       0.384  11.263  21.540  0.00  0.00    +0.000 N 
ATOM     14  H   UNL     1       1.360  11.422  21.790  0.00  0.00    +0.000 HD
BRANCH  13  15
ATOM     15  S   UNL     1       0.134  11.060  19.864  0.00  0.00    +0.000 S 
ATOM     16  O   UNL     1      -1.262  10.707  19.688  0.00  0.00    +0.000 OA
ATOM     17  O   UNL     1       0.701  12.194  19.161  0.00  0.00    +0.000 OA
BRANCH  15  18
ATOM     18  C   UNL     1       1.108   9.622  19.452  0.00  0.00    +0.000 A 
ATOM     19  C   UNL     1       1.362   8.659  20.427  0.00  0.00    +0.000 A 
ATOM     20  C   UNL     1       2.014   7.465  20.078  0.00  0.00    +0.000 A 
ATOM     21  C   UNL     1       2.423   7.196  18.757  0.00  0.00    +0.000 A 
ATOM     22  C   UNL     1       2.140   8.181  17.791  0.00  0.00    +0.000 A 
ATOM     23  C   UNL     1       1.485   9.377  18.130  0.00  0.00    +0.000 A 
BRANCH  21  24
ATOM     24  C   UNL     1       3.140   5.884  18.364  0.00  0.00    +0.000 C 
ATOM     25  C   UNL     1       4.212   6.088  17.268  0.00  0.00    +0.000 C 
ATOM     26  C   UNL     1       3.848   5.260  19.589  0.00  0.00    +0.000 C 
ATOM     27  C   UNL     1       2.127   4.854  17.818  0.00  0.00    +0.000 C 
ENDBRANCH  21  24
ENDBRANCH  15  18
ENDBRANCH  13  15
ENDBRANCH   9  13
BRANCH   1  28
ATOM     28  C   UNL     1       0.871  16.817  21.896  0.00  0.00    +0.000 C 
BRANCH  28  33
ATOM     29  C   UNL     1       0.226  18.425  16.392  0.00  0.00    +0.000 C 
ATOM     30  C   UNL     1       0.437  17.985  17.810  0.00  0.00    +0.000 A 
ATOM     31  C   UNL     1       1.647  17.431  18.211  0.00  0.00    +0.000 A 
ATOM     32  C   UNL     1       1.799  17.036  19.540  0.00  0.00    +0.000 A 
ATOM     33  C   UNL     1       0.742  17.189  20.441  0.00  0.00    +0.000 A 
ATOM     34  C   UNL     1      -0.429  17.749  19.945  0.00  0.00    +0.000 A 
ATOM     35  N   UNL     1      -0.600  18.151  18.663  0.00  0.00    +0.000 NA
ENDBRANCH  28  33
ENDBRANCH   1  28
TORSDOF 6
ENDMDL
MODEL 7
REMARK VINA RESULT:      -7.7      5.572      8.830
REMARK  Name = 
REMARK  10 active torsions:
REMARK  status: ('A' for Active; 'I' for Inactive)
REMARK    1  A    between atoms: C_1  and  C_2
REMARK    2  A    between atoms: C_5  and  C_6
REMARK    3  A    between atoms: C_6  and  N_7
REMARK    4  A    between atoms: C_15  and  N_16
REMARK    5  A    between atoms: N_16  and  S_17
REMARK    6  A    between atoms: S_17  and  C_20
REMARK    7  A    between atoms: C_23  and  C_24
REMARK    8  A    between atoms: C_24  and  C_25
REMARK    9  A    between atoms: C_24  and  C_26
REMARK   10  A    between atoms: C_24  and  C_27
REMARK                            x       y       z     vdW  Elec       q    Type
REMARK                         _______ _______ _______ _____ _____    ______ ____
ROOT
ATOM      1  N   UNL     1       2.284   6.244  19.979  0.00  0.00    +0.000 N 
ATOM      2  C   UNL     1       1.569   5.083  19.887  0.00  0.00    +0.000 C 
ATOM      3  O   UNL     1       0.598   4.746  20.532  0.00  0.00    +0.000 OA
ATOM      4  C   UNL     1       2.243   4.277  18.846  0.00  0.00    +0.000 A 
ATOM      5  C   UNL     1       1.956   3.041  18.308  0.00  0.00    +0.000 A 
ATOM      6 CL   UNL     1       0.668   2.057  18.863  0.00  0.00    +0.000 Cl
ATOM      7  C   UNL     1       2.772   2.573  17.266  0.00  0.00    +0.000 A 
ATOM      8  C   UNL     1       3.844   3.350  16.773  0.00  0.00    +0.000 A 
ATOM      9  C   UNL     1       4.143   4.589  17.342  0.00  0.00    +0.000 A 
ATOM     10  C   UNL     1       3.331   5.020  18.385  0.00  0.00    +0.000 A 
ATOM     11  C   UNL     1       3.390   6.239  19.174  0.00  0.00    +0.000 C 
ATOM     12  O   UNL     1       4.309   7.036  19.128  0.00  0.00    +0.000 OA
ENDROOT
BRANCH   9  13
ATOM     13  N   UNL     1       5.214   5.363  16.786  0.00  0.00    +0.000 N 
ATOM     14  H   UNL     1       5.234   5.451  15.770  0.00  0.00    +0.000 HD
BRANCH  13  15
ATOM     15  S   UNL     1       6.752   5.095  17.478  0.00  0.00    +0.000 S 
ATOM     16  O   UNL     1       6.531   4.402  18.733  0.00  0.00    +0.000 OA
ATOM     17  O   UNL     1       7.631   4.535  16.471  0.00  0.00    +0.000 OA
BRANCH  15  18
ATOM     18  C   UNL     1       7.343   6.734  17.866  0.00  0.00    +0.000 A 
ATOM     19  C   UNL     1       8.278   6.907  18.883  0.00  0.00    +0.000 A 
ATOM     20  C   UNL     1       8.844   8.173  19.107  0.00  0.00    +0.000 A 
ATOM     21  C   UNL     1       8.500   9.293  18.324  0.00  0.00    +0.000 A 
ATOM     22  C   UNL     1       7.563   9.084  17.294  0.00  0.00    +0.000 A 
ATOM     23  C   UNL     1       6.994   7.821  17.062  0.00  0.00    +0.000 A 
BRANCH  21  24
ATOM     24  C   UNL     1       9.118  10.690  18.562  0.00  0.00    +0.000 C 
ATOM     25  C   UNL     1       9.305  11.018  20.062  0.00  0.00    +0.000 C 
ATOM     26  C   UNL     1      10.507  10.795  17.893  0.00  0.00    +0.000 C 
ATOM     27  C   UNL     1       8.214  11.792  17.969  0.00  0.00    +0.000 C 
ENDBRANCH  21  24
ENDBRANCH  15  18
ENDBRANCH  13  15
ENDBRANCH   9  13
BRANCH   1  28
ATOM     28  C   UNL     1       1.946   7.352  20.856  0.00  0.00    +0.000 C 
BRANCH  28  33
ATOM     29  C   UNL     1      -1.031  11.621  18.364  0.00  0.00    +0.000 C 
ATOM     30  C   UNL     1      -0.237  10.501  18.966  0.00  0.00    +0.000 A 
ATOM     31  C   UNL     1       0.736   9.839  18.228  0.00  0.00    +0.000 A 
ATOM     32  C   UNL     1       1.449   8.802  18.829  0.00  0.00    +0.000 A 
ATOM     33  C   UNL     1       1.173   8.436  20.149  0.00  0.00    +0.000 A 
ATOM     34  C   UNL     1       0.180   9.154  20.804  0.00  0.00    +0.000 A 
ATOM     35  N   UNL     1      -0.521  10.171  20.248  0.00  0.00    +0.000 NA
ENDBRANCH  28  33
ENDBRANCH   1  28
TORSDOF 6
ENDMDL
MODEL 8
REMARK VINA RESULT:      -7.6      1.327      1.426
REMARK  Name = 
REMARK  10 active torsions:
REMARK  status: ('A' for Active; 'I' for Inactive)
REMARK    1  A    between atoms: C_1  and  C_2
REMARK    2  A    between atoms: C_5  and  C_6
REMARK    3  A    between atoms: C_6  and  N_7
REMARK    4  A    between atoms: C_15  and  N_16
REMARK    5  A    between atoms: N_16  and  S_17
REMARK    6  A    between atoms: S_17  and  C_20
REMARK    7  A    between atoms: C_23  and  C_24
REMARK    8  A    between atoms: C_24  and  C_25
REMARK    9  A    between atoms: C_24  and  C_26
REMARK   10  A    between atoms: C_24  and  C_27
REMARK                            x       y       z     vdW  Elec       q    Type
REMARK                         _______ _______ _______ _____ _____    ______ ____
ROOT
ATOM      1  N   UNL     1      -0.873  13.403  22.628  0.00  0.00    +0.000 N 
ATOM      2  C   UNL     1       0.008  14.290  22.077  0.00  0.00    +0.000 C 
ATOM      3  O   UNL     1       0.225  15.437  22.408  0.00  0.00    +0.000 OA
ATOM      4  C   UNL     1       0.642  13.579  20.945  0.00  0.00    +0.000 A 
ATOM      5  C   UNL     1       1.621  13.956  20.052  0.00  0.00    +0.000 A 
ATOM      6 CL   UNL     1       2.308  15.524  20.026  0.00  0.00    +0.000 Cl
ATOM      7  C   UNL     1       2.057  13.004  19.116  0.00  0.00    +0.000 A 
ATOM      8  C   UNL     1       1.522  11.697  19.100  0.00  0.00    +0.000 A 
ATOM      9  C   UNL     1       0.511  11.333  19.992  0.00  0.00    +0.000 A 
ATOM     10  C   UNL     1       0.084  12.299  20.895  0.00  0.00    +0.000 A 
ATOM     11  C   UNL     1      -0.937  12.231  21.926  0.00  0.00    +0.000 C 
ATOM     12  O   UNL     1      -1.716  11.303  22.051  0.00  0.00    +0.000 OA
ENDROOT
BRANCH   9  13
ATOM     13  N   UNL     1       0.024   9.985  19.968  0.00  0.00    +0.000 N 
ATOM     14  H   UNL     1      -0.973   9.863  19.790  0.00  0.00    +0.000 HD
BRANCH  13  15
ATOM     15  S   UNL     1       0.628   8.962  21.194  0.00  0.00    +0.000 S 
ATOM     16  O   UNL     1       1.541   9.758  21.991  0.00  0.00    +0.000 OA
ATOM     17  O   UNL     1      -0.481   8.267  21.818  0.00  0.00    +0.000 OA
BRANCH  15  18
ATOM     18  C   UNL     1       1.600   7.754  20.309  0.00  0.00    +0.000 A 
ATOM     19  C   UNL     1       1.719   6.461  20.814  0.00  0.00    +0.000 A 
ATOM     20  C   UNL     1       2.371   5.473  20.060  0.00  0.00    +0.000 A 
ATOM     21  C   UNL     1       2.914   5.741  18.787  0.00  0.00    +0.000 A 
ATOM     22  C   UNL     1       2.765   7.053  18.297  0.00  0.00    +0.000 A 
ATOM     23  C   UNL     1       2.112   8.047  19.044  0.00  0.00    +0.000 A 
BRANCH  21  24
ATOM     24  C   UNL     1       3.633   4.658  17.950  0.00  0.00    +0.000 C 
ATOM     25  C   UNL     1       2.656   3.646  17.308  0.00  0.00    +0.000 C 
ATOM     26  C   UNL     1       4.445   5.302  16.804  0.00  0.00    +0.000 C 
ATOM     27  C   UNL     1       4.607   3.848  18.833  0.00  0.00    +0.000 C 
ENDBRANCH  21  24
ENDBRANCH  15  18
ENDBRANCH  13  15
ENDBRANCH   9  13
BRANCH   1  28
ATOM     28  C   UNL     1      -1.687  13.671  23.801  0.00  0.00    +0.000 C 
BRANCH  28  33
ATOM     29  C   UNL     1      -7.355  12.899  23.046  0.00  0.00    +0.000 C 
ATOM     30  C   UNL     1      -5.881  13.126  23.200  0.00  0.00    +0.000 A 
ATOM     31  C   UNL     1      -5.205  14.005  22.362  0.00  0.00    +0.000 A 
ATOM     32  C   UNL     1      -3.834  14.185  22.541  0.00  0.00    +0.000 A 
ATOM     33  C   UNL     1      -3.159  13.479  23.541  0.00  0.00    +0.000 A 
ATOM     34  C   UNL     1      -3.921  12.621  24.325  0.00  0.00    +0.000 A 
ATOM     35  N   UNL     1      -5.255  12.435  24.180  0.00  0.00    +0.000 NA
ENDBRANCH  28  33
ENDBRANCH   1  28
TORSDOF 6
ENDMDL
MODEL 9
REMARK VINA RESULT:      -7.6      2.670      4.192
REMARK  Name = 
REMARK  10 active torsions:
REMARK  status: ('A' for Active; 'I' for Inactive)
REMARK    1  A    between atoms: C_1  and  C_2
REMARK    2  A    between atoms: C_5  and  C_6
REMARK    3  A    between atoms: C_6  and  N_7
REMARK    4  A    between atoms: C_15  and  N_16
REMARK    5  A    between atoms: N_16  and  S_17
REMARK    6  A    between atoms: S_17  and  C_20
REMARK    7  A    between atoms: C_23  and  C_24
REMARK    8  A    between atoms: C_24  and  C_25
REMARK    9  A    between atoms: C_24  and  C_26
REMARK   10  A    between atoms: C_24  and  C_27
REMARK                            x       y       z     vdW  Elec       q    Type
REMARK                         _______ _______ _______ _____ _____    ______ ____
ROOT
ATOM      1  N   UNL     1      -1.904  13.410  21.368  0.00  0.00    +0.000 N 
ATOM      2  C   UNL     1      -2.874  13.209  20.427  0.00  0.00    +0.000 C 
ATOM      3  O   UNL     1      -3.914  13.817  20.278  0.00  0.00    +0.000 OA
ATOM      4  C   UNL     1      -2.420  12.056  19.620  0.00  0.00    +0.000 A 
ATOM      5  C   UNL     1      -2.967  11.426  18.523  0.00  0.00    +0.000 A 
ATOM      6 CL   UNL     1      -4.488  11.855  17.861  0.00  0.00    +0.000 Cl
ATOM      7  C   UNL     1      -2.239  10.378  17.937  0.00  0.00    +0.000 A 
ATOM      8  C   UNL     1      -0.980   9.990  18.445  0.00  0.00    +0.000 A 
ATOM      9  C   UNL     1      -0.446  10.616  19.574  0.00  0.00    +0.000 A 
ATOM     10  C   UNL     1      -1.196  11.638  20.145  0.00  0.00    +0.000 A 
ATOM     11  C   UNL     1      -0.919  12.462  21.309  0.00  0.00    +0.000 C 
ATOM     12  O   UNL     1      -0.004  12.259  22.086  0.00  0.00    +0.000 OA
ENDROOT
BRANCH   9  13
ATOM     13  N   UNL     1       0.852  10.219  20.033  0.00  0.00    +0.000 N 
ATOM     14  H   UNL     1       1.587  10.158  19.329  0.00  0.00    +0.000 HD
BRANCH  13  15
ATOM     15  S   UNL     1       0.874   8.933  21.155  0.00  0.00    +0.000 S 
ATOM     16  O   UNL     1       1.707   9.360  22.264  0.00  0.00    +0.000 OA
ATOM     17  O   UNL     1      -0.484   8.483  21.385  0.00  0.00    +0.000 OA
BRANCH  15  18
ATOM     18  C   UNL     1       1.744   7.629  20.301  0.00  0.00    +0.000 A 
ATOM     19  C   UNL     1       1.673   6.323  20.782  0.00  0.00    +0.000 A 
ATOM     20  C   UNL     1       2.245   5.274  20.045  0.00  0.00    +0.000 A 
ATOM     21  C   UNL     1       2.893   5.493  18.812  0.00  0.00    +0.000 A 
ATOM     22  C   UNL     1       2.935   6.821  18.345  0.00  0.00    +0.000 A 
ATOM     23  C   UNL     1       2.364   7.877  19.075  0.00  0.00    +0.000 A 
BRANCH  21  24
ATOM     24  C   UNL     1       3.523   4.344  17.994  0.00  0.00    +0.000 C 
ATOM     25  C   UNL     1       2.469   3.424  17.335  0.00  0.00    +0.000 C 
ATOM     26  C   UNL     1       4.416   4.903  16.862  0.00  0.00    +0.000 C 
ATOM     27  C   UNL     1       4.399   3.450  18.899  0.00  0.00    +0.000 C 
ENDBRANCH  21  24
ENDBRANCH  15  18
ENDBRANCH  13  15
ENDBRANCH   9  13
BRANCH   1  28
ATOM     28  C   UNL     1      -1.921  14.478  22.353  0.00  0.00    +0.000 C 
BRANCH  28  33
ATOM     29  C   UNL     1       1.924  18.629  21.221  0.00  0.00    +0.000 C 
ATOM     30  C   UNL     1       0.953  17.536  21.554  0.00  0.00    +0.000 A 
ATOM     31  C   UNL     1       1.078  16.806  22.730  0.00  0.00    +0.000 A 
ATOM     32  C   UNL     1       0.153  15.798  22.999  0.00  0.00    +0.000 A 
ATOM     33  C   UNL     1      -0.872  15.527  22.088  0.00  0.00    +0.000 A 
ATOM     34  C   UNL     1      -0.912  16.308  20.939  0.00  0.00    +0.000 A 
ATOM     35  N   UNL     1      -0.033  17.299  20.658  0.00  0.00    +0.000 NA
ENDBRANCH  28  33
ENDBRANCH   1  28
TORSDOF 6
ENDMDL
