MODEL 1
REMARK VINA RESULT:      -7.1      0.000      0.000
REMARK  Name = 
REMARK  10 active torsions:
REMARK  status: ('A' for Active; 'I' for Inactive)
REMARK    1  A    between atoms: C_1  and  C_2
REMARK    2  A    between atoms: C_5  and  C_6
REMARK    3  A    between atoms: N_8  and  N_9
REMARK    4  A    between atoms: N_9  and  C_24
REMARK    5  A    between atoms: C_10  and  C_12
REMARK    6  A    between atoms: C_14  and  N_15
REMARK    7  A    between atoms: C_19  and  N_20
REMARK    8  A    between atoms: C_24  and  C_25
REMARK    9  A    between atoms: C_24  and  C_26
REMARK   10  A    between atoms: C_24  and  C_27
REMARK                            x       y       z     vdW  Elec       q    Type
REMARK                         _______ _______ _______ _____ _____    ______ ____
ROOT
ATOM      1  N   UNL     1       1.304   9.140  20.023  0.00  0.00    +0.000 N 
ATOM      2  C   UNL     1       1.006  10.445  19.519  0.00  0.00    +0.000 C 
ATOM      3  O   UNL     1       1.610  10.931  18.556  0.00  0.00    +0.000 OA
ENDROOT
BRANCH   2   4
ATOM      4  C   UNL     1      -0.014  11.389  20.140  0.00  0.00    +0.000 A 
ATOM      5  C   UNL     1       0.292  12.354  21.089  0.00  0.00    +0.000 A 
ATOM      6  C   UNL     1      -0.577  13.313  21.588  0.00  0.00    +0.000 A 
ATOM      7  C   UNL     1      -1.872  13.351  21.124  0.00  0.00    +0.000 A 
ATOM      8  C   UNL     1      -2.253  12.377  20.181  0.00  0.00    +0.000 A 
ATOM      9  C   UNL     1      -1.347  11.395  19.701  0.00  0.00    +0.000 A 
BRANCH   6  10
ATOM     10  N   UNL     1      -0.042  14.271  22.566  0.00  0.00    +0.000 N 
ATOM     11  O   UNL     1       1.053  14.798  22.337  0.00  0.00    +0.000 OA
ATOM     12  O   UNL     1      -0.743  14.500  23.575  0.00  0.00    +0.000 OA
ENDBRANCH   6  10
BRANCH   8  13
ATOM     13  N   UNL     1      -3.624  12.421  19.659  0.00  0.00    +0.000 N 
ATOM     14  O   UNL     1      -4.474  13.006  20.346  0.00  0.00    +0.000 OA
ATOM     15  O   UNL     1      -3.846  11.880  18.571  0.00  0.00    +0.000 OA
ENDBRANCH   8  13
ENDBRANCH   2   4
BRANCH   1  18
ATOM     16  C   UNL     1       2.165   7.754  18.149  0.00  0.00    +0.000 C 
ATOM     17  O   UNL     1       1.167   7.888  17.450  0.00  0.00    +0.000 OA
ATOM     18  N   UNL     1       2.371   8.417  19.358  0.00  0.00    +0.000 N 
ATOM     19  H   UNL     1       3.140   8.137  19.946  0.00  0.00    +0.000 HD
BRANCH  16  24
ATOM     20  C   UNL     1       1.598   2.023  18.853  0.00  0.00    +0.000 C 
ATOM     21  C   UNL     1       2.254   3.275  18.431  0.00  0.00    +0.000 A 
ATOM     22  C   UNL     1       1.834   4.584  18.376  0.00  0.00    +0.000 A 
ATOM     23  C   UNL     1       2.946   5.368  17.955  0.00  0.00    +0.000 A 
ATOM     24  C   UNL     1       3.216   6.746  17.764  0.00  0.00    +0.000 A 
ATOM     25  C   UNL     1       4.498   7.098  17.278  0.00  0.00    +0.000 A 
ATOM     26  C   UNL     1       5.489   6.131  17.054  0.00  0.00    +0.000 A 
ATOM     27  C   UNL     1       5.246   4.775  17.290  0.00  0.00    +0.000 A 
ATOM     28  C   UNL     1       3.967   4.446  17.731  0.00  0.00    +0.000 A 
ATOM     29  O   UNL     1       3.550   3.183  18.023  0.00  0.00    +0.000 OA
ENDBRANCH  16  24
ENDBRANCH   1  18
BRANCH   1  30
ATOM     30  C   UNL     1       0.869   8.470  21.306  0.00  0.00    +0.000 C 
ATOM     31  C   UNL     1      -0.650   8.506  21.632  0.00  0.00    +0.000 C 
ATOM     32  C   UNL     1       1.128   6.924  21.187  0.00  0.00    +0.000 C 
ATOM     33  C   UNL     1       1.458   9.256  22.524  0.00  0.00    +0.000 C 
ENDBRANCH   1  30
TORSDOF 6
ENDMDL
MODEL 2
REMARK VINA RESULT:      -7.0      2.225      4.078
REMARK  Name = 
REMARK  10 active torsions:
REMARK  status: ('A' for Active; 'I' for Inactive)
REMARK    1  A    between atoms: C_1  and  C_2
REMARK    2  A    between atoms: C_5  and  C_6
REMARK    3  A    between atoms: N_8  and  N_9
REMARK    4  A    between atoms: N_9  and  C_24
REMARK    5  A    between atoms: C_10  and  C_12
REMARK    6  A    between atoms: C_14  and  N_15
REMARK    7  A    between atoms: C_19  and  N_20
REMARK    8  A    between atoms: C_24  and  C_25
REMARK    9  A    between atoms: C_24  and  C_26
REMARK   10  A    between atoms: C_24  and  C_27
REMARK                            x       y       z     vdW  Elec       q    Type
REMARK                         _______ _______ _______ _____ _____    ______ ____
ROOT
ATOM      1  N   UNL     1      -0.103   9.700  20.725  0.00  0.00    +0.000 N 
ATOM      2  C   UNL     1      -0.592  10.085  22.013  0.00  0.00    +0.000 C 
ATOM      3  O   UNL     1      -0.729   9.271  22.933  0.00  0.00    +0.000 OA
ENDROOT
BRANCH   2   4
ATOM      4  C   UNL     1      -1.055  11.491  22.367  0.00  0.00    +0.000 A 
ATOM      5  C   UNL     1      -2.270  11.785  22.970  0.00  0.00    +0.000 A 
ATOM      6  C   UNL     1      -2.678  13.031  23.422  0.00  0.00    +0.000 A 
ATOM      7  C   UNL     1      -1.829  14.105  23.282  0.00  0.00    +0.000 A 
ATOM      8  C   UNL     1      -0.592  13.878  22.649  0.00  0.00    +0.000 A 
ATOM      9  C   UNL     1      -0.208  12.594  22.181  0.00  0.00    +0.000 A 
BRANCH   6  10
ATOM     10  N   UNL     1      -3.995  13.121  24.068  0.00  0.00    +0.000 N 
ATOM     11  O   UNL     1      -4.463  12.106  24.598  0.00  0.00    +0.000 OA
ATOM     12  O   UNL     1      -4.559  14.236  24.048  0.00  0.00    +0.000 OA
ENDBRANCH   6  10
BRANCH   8  13
ATOM     13  N   UNL     1       0.334  15.010  22.516  0.00  0.00    +0.000 N 
ATOM     14  O   UNL     1      -0.151  16.148  22.584  0.00  0.00    +0.000 OA
ATOM     15  O   UNL     1       1.532  14.760  22.352  0.00  0.00    +0.000 OA
ENDBRANCH   8  13
ENDBRANCH   2   4
BRANCH   1  18
ATOM     16  C   UNL     1       1.453   7.770  20.881  0.00  0.00    +0.000 C 
ATOM     17  O   UNL     1       2.300   8.368  21.535  0.00  0.00    +0.000 OA
ATOM     18  N   UNL     1       0.207   8.296  20.542  0.00  0.00    +0.000 N 
ATOM     19  H   UNL     1      -0.367   7.806  19.874  0.00  0.00    +0.000 HD
BRANCH  16  24
ATOM     20  C   UNL     1       4.818   6.931  16.229  0.00  0.00    +0.000 C 
ATOM     21  C   UNL     1       3.978   6.543  17.378  0.00  0.00    +0.000 A 
ATOM     22  C   UNL     1       3.422   7.252  18.418  0.00  0.00    +0.000 A 
ATOM     23  C   UNL     1       2.639   6.340  19.181  0.00  0.00    +0.000 A 
ATOM     24  C   UNL     1       1.775   6.417  20.303  0.00  0.00    +0.000 A 
ATOM     25  C   UNL     1       1.210   5.208  20.774  0.00  0.00    +0.000 A 
ATOM     26  C   UNL     1       1.439   3.987  20.124  0.00  0.00    +0.000 A 
ATOM     27  C   UNL     1       2.248   3.912  18.986  0.00  0.00    +0.000 A 
ATOM     28  C   UNL     1       2.825   5.105  18.561  0.00  0.00    +0.000 A 
ATOM     29  O   UNL     1       3.630   5.230  17.469  0.00  0.00    +0.000 OA
ENDBRANCH  16  24
ENDBRANCH   1  18
BRANCH   1  30
ATOM     30  C   UNL     1      -0.090  10.466  19.421  0.00  0.00    +0.000 C 
ATOM     31  C   UNL     1       0.159   9.639  18.129  0.00  0.00    +0.000 C 
ATOM     32  C   UNL     1      -1.528  11.042  19.153  0.00  0.00    +0.000 C 
ATOM     33  C   UNL     1       1.140  11.433  19.403  0.00  0.00    +0.000 C 
ENDBRANCH   1  30
TORSDOF 6
ENDMDL
MODEL 3
REMARK VINA RESULT:      -7.0      0.269      2.666
REMARK  Name = 
REMARK  10 active torsions:
REMARK  status: ('A' for Active; 'I' for Inactive)
REMARK    1  A    between atoms: C_1  and  C_2
REMARK    2  A    between atoms: C_5  and  C_6
REMARK    3  A    between atoms: N_8  and  N_9
REMARK    4  A    between atoms: N_9  and  C_24
REMARK    5  A    between atoms: C_10  and  C_12
REMARK    6  A    between atoms: C_14  and  N_15
REMARK    7  A    between atoms: C_19  and  N_20
REMARK    8  A    between atoms: C_24  and  C_25
REMARK    9  A    between atoms: C_24  and  C_26
REMARK   10  A    between atoms: C_24  and  C_27
REMARK                            x       y       z     vdW  Elec       q    Type
REMARK                         _______ _______ _______ _____ _____    ______ ____
ROOT
ATOM      1  N   UNL     1       1.381   9.135  19.840  0.00  0.00    +0.000 N 
ATOM      2  C   UNL     1       1.144  10.419  19.255  0.00  0.00    +0.000 C 
ATOM      3  O   UNL     1       1.790  10.826  18.284  0.00  0.00    +0.000 OA
ENDROOT
BRANCH   2   4
ATOM      4  C   UNL     1       0.144  11.432  19.794  0.00  0.00    +0.000 A 
ATOM      5  C   UNL     1      -1.196  11.473  19.434  0.00  0.00    +0.000 A 
ATOM      6  C   UNL     1      -2.166  12.293  19.990  0.00  0.00    +0.000 A 
ATOM      7  C   UNL     1      -1.813  13.162  20.997  0.00  0.00    +0.000 A 
ATOM      8  C   UNL     1      -0.460  13.190  21.386  0.00  0.00    +0.000 A 
ATOM      9  C   UNL     1       0.516  12.350  20.787  0.00  0.00    +0.000 A 
BRANCH   6  10
ATOM     10  N   UNL     1      -3.541  12.154  19.489  0.00  0.00    +0.000 N 
ATOM     11  O   UNL     1      -4.466  12.616  20.169  0.00  0.00    +0.000 OA
ATOM     12  O   UNL     1      -3.687  11.578  18.390  0.00  0.00    +0.000 OA
ENDBRANCH   6  10
BRANCH   8  13
ATOM     13  N   UNL     1      -0.073  14.093  22.477  0.00  0.00    +0.000 N 
ATOM     14  O   UNL     1      -0.934  14.347  23.333  0.00  0.00    +0.000 OA
ATOM     15  O   UNL     1       1.078  14.538  22.478  0.00  0.00    +0.000 OA
ENDBRANCH   8  13
ENDBRANCH   2   4
BRANCH   1  18
ATOM     16  C   UNL     1       2.262   7.676  18.033  0.00  0.00    +0.000 C 
ATOM     17  O   UNL     1       1.318   7.864  17.274  0.00  0.00    +0.000 OA
ATOM     18  N   UNL     1       2.437   8.338  19.247  0.00  0.00    +0.000 N 
ATOM     19  H   UNL     1       3.151   8.016  19.883  0.00  0.00    +0.000 HD
BRANCH  16  24
ATOM     20  C   UNL     1       1.308   2.004  18.801  0.00  0.00    +0.000 C 
ATOM     21  C   UNL     1       2.061   3.205  18.393  0.00  0.00    +0.000 A 
ATOM     22  C   UNL     1       1.725   4.536  18.295  0.00  0.00    +0.000 A 
ATOM     23  C   UNL     1       2.903   5.243  17.920  0.00  0.00    +0.000 A 
ATOM     24  C   UNL     1       3.267   6.598  17.720  0.00  0.00    +0.000 A 
ATOM     25  C   UNL     1       4.592   6.862  17.297  0.00  0.00    +0.000 A 
ATOM     26  C   UNL     1       5.532   5.832  17.141  0.00  0.00    +0.000 A 
ATOM     27  C   UNL     1       5.194   4.499  17.386  0.00  0.00    +0.000 A 
ATOM     28  C   UNL     1       3.876   4.256  17.764  0.00  0.00    +0.000 A 
ATOM     29  O   UNL     1       3.367   3.027  18.056  0.00  0.00    +0.000 OA
ENDBRANCH  16  24
ENDBRANCH   1  18
BRANCH   1  30
ATOM     30  C   UNL     1       0.889   8.555  21.147  0.00  0.00    +0.000 C 
ATOM     31  C   UNL     1      -0.634   8.671  21.432  0.00  0.00    +0.000 C 
ATOM     32  C   UNL     1       1.087   6.996  21.120  0.00  0.00    +0.000 C 
ATOM     33  C   UNL     1       1.483   9.384  22.335  0.00  0.00    +0.000 C 
ENDBRANCH   1  30
TORSDOF 6
ENDMDL
MODEL 4
REMARK VINA RESULT:      -7.0      2.490      3.662
REMARK  Name = 
REMARK  10 active torsions:
REMARK  status: ('A' for Active; 'I' for Inactive)
REMARK    1  A    between atoms: C_1  and  C_2
REMARK    2  A    between atoms: C_5  and  C_6
REMARK    3  A    between atoms: N_8  and  N_9
REMARK    4  A    between atoms: N_9  and  C_24
REMARK    5  A    between atoms: C_10  and  C_12
REMARK    6  A    between atoms: C_14  and  N_15
REMARK    7  A    between atoms: C_19  and  N_20
REMARK    8  A    between atoms: C_24  and  C_25
REMARK    9  A    between atoms: C_24  and  C_26
REMARK   10  A    between atoms: C_24  and  C_27
REMARK                            x       y       z     vdW  Elec       q    Type
REMARK                         _______ _______ _______ _____ _____    ______ ____
ROOT
ATOM      1  N   UNL     1      -0.618  10.926  20.712  0.00  0.00    +0.000 N 
ATOM      2  C   UNL     1      -0.961  10.834  22.097  0.00  0.00    +0.000 C 
ATOM      3  O   UNL     1      -0.781   9.801  22.750  0.00  0.00    +0.000 OA
ENDROOT
BRANCH   2   4
ATOM      4  C   UNL     1      -1.636  11.947  22.886  0.00  0.00    +0.000 A 
ATOM      5  C   UNL     1      -1.021  13.143  23.230  0.00  0.00    +0.000 A 
ATOM      6  C   UNL     1      -1.632  14.231  23.836  0.00  0.00    +0.000 A 
ATOM      7  C   UNL     1      -2.972  14.163  24.140  0.00  0.00    +0.000 A 
ATOM      8  C   UNL     1      -3.646  12.963  23.843  0.00  0.00    +0.000 A 
ATOM      9  C   UNL     1      -2.991  11.859  23.239  0.00  0.00    +0.000 A 
BRANCH   6  10
ATOM     10  N   UNL     1      -0.807  15.422  24.083  0.00  0.00    +0.000 N 
ATOM     11  O   UNL     1      -0.548  16.168  23.131  0.00  0.00    +0.000 OA
ATOM     12  O   UNL     1      -0.424  15.610  25.258  0.00  0.00    +0.000 OA
ENDBRANCH   6  10
BRANCH   8  13
ATOM     13  N   UNL     1      -5.082  12.886  24.139  0.00  0.00    +0.000 N 
ATOM     14  O   UNL     1      -5.482  11.883  24.748  0.00  0.00    +0.000 OA
ATOM     15  O   UNL     1      -5.799  13.821  23.770  0.00  0.00    +0.000 OA
ENDBRANCH   8  13
ENDBRANCH   2   4
BRANCH   1  18
ATOM     16  C   UNL     1       1.199   9.253  20.443  0.00  0.00    +0.000 C 
ATOM     17  O   UNL     1       1.851   9.648  21.403  0.00  0.00    +0.000 OA
ATOM     18  N   UNL     1      -0.064   9.733  20.101  0.00  0.00    +0.000 N 
ATOM     19  H   UNL     1      -0.465   9.471  19.213  0.00  0.00    +0.000 HD
BRANCH  16  24
ATOM     20  C   UNL     1       2.055   3.651  21.686  0.00  0.00    +0.000 C 
ATOM     21  C   UNL     1       2.056   4.866  20.849  0.00  0.00    +0.000 A 
ATOM     22  C   UNL     1       1.547   6.131  21.029  0.00  0.00    +0.000 A 
ATOM     23  C   UNL     1       1.933   6.906  19.898  0.00  0.00    +0.000 A 
ATOM     24  C   UNL     1       1.806   8.258  19.489  0.00  0.00    +0.000 A 
ATOM     25  C   UNL     1       2.324   8.605  18.218  0.00  0.00    +0.000 A 
ATOM     26  C   UNL     1       2.995   7.669  17.418  0.00  0.00    +0.000 A 
ATOM     27  C   UNL     1       3.169   6.348  17.838  0.00  0.00    +0.000 A 
ATOM     28  C   UNL     1       2.619   6.017  19.073  0.00  0.00    +0.000 A 
ATOM     29  O   UNL     1       2.698   4.785  19.651  0.00  0.00    +0.000 OA
ENDBRANCH  16  24
ENDBRANCH   1  18
BRANCH   1  30
ATOM     30  C   UNL     1      -0.969  11.984  19.690  0.00  0.00    +0.000 C 
ATOM     31  C   UNL     1      -2.366  12.651  19.828  0.00  0.00    +0.000 C 
ATOM     32  C   UNL     1      -0.012  13.216  19.882  0.00  0.00    +0.000 C 
ATOM     33  C   UNL     1      -1.090  11.318  18.279  0.00  0.00    +0.000 C 
ENDBRANCH   1  30
TORSDOF 6
ENDMDL
MODEL 5
REMARK VINA RESULT:      -6.8      2.542      3.496
REMARK  Name = 
REMARK  10 active torsions:
REMARK  status: ('A' for Active; 'I' for Inactive)
REMARK    1  A    between atoms: C_1  and  C_2
REMARK    2  A    between atoms: C_5  and  C_6
REMARK    3  A    between atoms: N_8  and  N_9
REMARK    4  A    between atoms: N_9  and  C_24
REMARK    5  A    between atoms: C_10  and  C_12
REMARK    6  A    between atoms: C_14  and  N_15
REMARK    7  A    between atoms: C_19  and  N_20
REMARK    8  A    between atoms: C_24  and  C_25
REMARK    9  A    between atoms: C_24  and  C_26
REMARK   10  A    between atoms: C_24  and  C_27
REMARK                            x       y       z     vdW  Elec       q    Type
REMARK                         _______ _______ _______ _____ _____    ______ ____
ROOT
ATOM      1  N   UNL     1       0.484  11.088  18.553  0.00  0.00    +0.000 N 
ATOM      2  C   UNL     1       1.412  12.140  18.833  0.00  0.00    +0.000 C 
ATOM      3  O   UNL     1       2.633  11.980  18.736  0.00  0.00    +0.000 OA
ENDROOT
BRANCH   2   4
ATOM      4  C   UNL     1       1.013  13.519  19.338  0.00  0.00    +0.000 A 
ATOM      5  C   UNL     1       0.708  13.808  20.661  0.00  0.00    +0.000 A 
ATOM      6  C   UNL     1       0.463  15.067  21.187  0.00  0.00    +0.000 A 
ATOM      7  C   UNL     1       0.519  16.163  20.356  0.00  0.00    +0.000 A 
ATOM      8  C   UNL     1       0.794  15.932  18.994  0.00  0.00    +0.000 A 
ATOM      9  C   UNL     1       1.024  14.629  18.481  0.00  0.00    +0.000 A 
BRANCH   6  10
ATOM     10  N   UNL     1       0.194  15.161  22.629  0.00  0.00    +0.000 N 
ATOM     11  O   UNL     1      -0.704  14.458  23.108  0.00  0.00    +0.000 OA
ATOM     12  O   UNL     1       0.907  15.949  23.287  0.00  0.00    +0.000 OA
ENDBRANCH   6  10
BRANCH   8  13
ATOM     13  N   UNL     1       0.882  17.094  18.101  0.00  0.00    +0.000 N 
ATOM     14  O   UNL     1      -0.173  17.496  17.589  0.00  0.00    +0.000 OA
ATOM     15  O   UNL     1       1.994  17.601  17.920  0.00  0.00    +0.000 OA
ENDBRANCH   8  13
ENDBRANCH   2   4
BRANCH   1  18
ATOM     16  C   UNL     1       1.534   8.907  19.112  0.00  0.00    +0.000 C 
ATOM     17  O   UNL     1       1.345   9.004  20.320  0.00  0.00    +0.000 OA
ATOM     18  N   UNL     1       1.050   9.810  18.167  0.00  0.00    +0.000 N 
ATOM     19  H   UNL     1       1.379   9.748  17.216  0.00  0.00    +0.000 HD
BRANCH  16  24
ATOM     20  C   UNL     1       2.083   3.676  21.563  0.00  0.00    +0.000 C 
ATOM     21  C   UNL     1       2.315   4.729  20.555  0.00  0.00    +0.000 A 
ATOM     22  C   UNL     1       1.750   5.964  20.340  0.00  0.00    +0.000 A 
ATOM     23  C   UNL     1       2.447   6.564  19.252  0.00  0.00    +0.000 A 
ATOM     24  C   UNL     1       2.424   7.814  18.583  0.00  0.00    +0.000 A 
ATOM     25  C   UNL     1       3.300   7.979  17.483  0.00  0.00    +0.000 A 
ATOM     26  C   UNL     1       4.203   6.975  17.105  0.00  0.00    +0.000 A 
ATOM     27  C   UNL     1       4.267   5.761  17.793  0.00  0.00    +0.000 A 
ATOM     28  C   UNL     1       3.371   5.602  18.848  0.00  0.00    +0.000 A 
ATOM     29  O   UNL     1       3.295   4.496  19.639  0.00  0.00    +0.000 OA
ENDBRANCH  16  24
ENDBRANCH   1  18
BRANCH   1  30
ATOM     30  C   UNL     1      -0.999  10.997  18.836  0.00  0.00    +0.000 C 
ATOM     31  C   UNL     1      -1.856  12.241  18.474  0.00  0.00    +0.000 C 
ATOM     32  C   UNL     1      -1.630   9.898  17.906  0.00  0.00    +0.000 C 
ATOM     33  C   UNL     1      -1.224  10.914  20.383  0.00  0.00    +0.000 C 
ENDBRANCH   1  30
TORSDOF 6
ENDMDL
MODEL 6
REMARK VINA RESULT:      -6.8      2.344      4.068
REMARK  Name = 
REMARK  10 active torsions:
REMARK  status: ('A' for Active; 'I' for Inactive)
REMARK    1  A    between atoms: C_1  and  C_2
REMARK    2  A    between atoms: C_5  and  C_6
REMARK    3  A    between atoms: N_8  and  N_9
REMARK    4  A    between atoms: N_9  and  C_24
REMARK    5  A    between atoms: C_10  and  C_12
REMARK    6  A    between atoms: C_14  and  N_15
REMARK    7  A    between atoms: C_19  and  N_20
REMARK    8  A    between atoms: C_24  and  C_25
REMARK    9  A    between atoms: C_24  and  C_26
REMARK   10  A    between atoms: C_24  and  C_27
REMARK                            x       y       z     vdW  Elec       q    Type
REMARK                         _______ _______ _______ _____ _____    ______ ____
ROOT
ATOM      1  N   UNL     1      -0.433  10.548  20.298  0.00  0.00    +0.000 N 
ATOM      2  C   UNL     1      -0.705  10.616  21.701  0.00  0.00    +0.000 C 
ATOM      3  O   UNL     1      -0.435   9.686  22.468  0.00  0.00    +0.000 OA
ENDROOT
BRANCH   2   4
ATOM      4  C   UNL     1      -1.405  11.785  22.380  0.00  0.00    +0.000 A 
ATOM      5  C   UNL     1      -2.703  11.741  22.869  0.00  0.00    +0.000 A 
ATOM      6  C   UNL     1      -3.335  12.735  23.601  0.00  0.00    +0.000 A 
ATOM      7  C   UNL     1      -2.647  13.889  23.897  0.00  0.00    +0.000 A 
ATOM      8  C   UNL     1      -1.333  14.008  23.402  0.00  0.00    +0.000 A 
ATOM      9  C   UNL     1      -0.718  12.981  22.639  0.00  0.00    +0.000 A 
BRANCH   6  10
ATOM     10  N   UNL     1      -4.707  12.473  24.058  0.00  0.00    +0.000 N 
ATOM     11  O   UNL     1      -5.641  12.696  23.279  0.00  0.00    +0.000 OA
ATOM     12  O   UNL     1      -4.841  12.027  25.218  0.00  0.00    +0.000 OA
ENDBRANCH   6  10
BRANCH   8  13
ATOM     13  N   UNL     1      -0.579  15.223  23.732  0.00  0.00    +0.000 N 
ATOM     14  O   UNL     1      -0.152  15.899  22.784  0.00  0.00    +0.000 OA
ATOM     15  O   UNL     1      -0.421  15.500  24.925  0.00  0.00    +0.000 OA
ENDBRANCH   8  13
ENDBRANCH   2   4
BRANCH   1  18
ATOM     16  C   UNL     1       1.463   8.951  20.144  0.00  0.00    +0.000 C 
ATOM     17  O   UNL     1       2.136   9.498  21.010  0.00  0.00    +0.000 OA
ATOM     18  N   UNL     1       0.160   9.317  19.812  0.00  0.00    +0.000 N 
ATOM     19  H   UNL     1      -0.266   8.924  18.987  0.00  0.00    +0.000 HD
BRANCH  16  24
ATOM     20  C   UNL     1       1.977   3.402  21.761  0.00  0.00    +0.000 C 
ATOM     21  C   UNL     1       2.087   4.563  20.857  0.00  0.00    +0.000 A 
ATOM     22  C   UNL     1       1.627   5.858  20.930  0.00  0.00    +0.000 A 
ATOM     23  C   UNL     1       2.119   6.545  19.784  0.00  0.00    +0.000 A 
ATOM     24  C   UNL     1       2.081   7.874  19.290  0.00  0.00    +0.000 A 
ATOM     25  C   UNL     1       2.694   8.121  18.038  0.00  0.00    +0.000 A 
ATOM     26  C   UNL     1       3.369   7.110  17.339  0.00  0.00    +0.000 A 
ATOM     27  C   UNL     1       3.454   5.811  17.845  0.00  0.00    +0.000 A 
ATOM     28  C   UNL     1       2.813   5.579  19.059  0.00  0.00    +0.000 A 
ATOM     29  O   UNL     1       2.797   4.383  19.710  0.00  0.00    +0.000 OA
ENDBRANCH  16  24
ENDBRANCH   1  18
BRANCH   1  30
ATOM     30  C   UNL     1      -0.892  11.447  19.173  0.00  0.00    +0.000 C 
ATOM     31  C   UNL     1      -2.260  12.161  19.363  0.00  0.00    +0.000 C 
ATOM     32  C   UNL     1       0.088  12.671  19.065  0.00  0.00    +0.000 C 
ATOM     33  C   UNL     1      -1.179  10.579  17.903  0.00  0.00    +0.000 C 
ENDBRANCH   1  30
TORSDOF 6
ENDMDL
MODEL 7
REMARK VINA RESULT:      -6.8      2.085      3.506
REMARK  Name = 
REMARK  10 active torsions:
REMARK  status: ('A' for Active; 'I' for Inactive)
REMARK    1  A    between atoms: C_1  and  C_2
REMARK    2  A    between atoms: C_5  and  C_6
REMARK    3  A    between atoms: N_8  and  N_9
REMARK    4  A    between atoms: N_9  and  C_24
REMARK    5  A    between atoms: C_10  and  C_12
REMARK    6  A    between atoms: C_14  and  N_15
REMARK    7  A    between atoms: C_19  and  N_20
REMARK    8  A    between atoms: C_24  and  C_25
REMARK    9  A    between atoms: C_24  and  C_26
REMARK   10  A    between atoms: C_24  and  C_27
REMARK                            x       y       z     vdW  Elec       q    Type
REMARK                         _______ _______ _______ _____ _____    ______ ____
ROOT
ATOM      1  N   UNL     1      -0.125   9.780  20.783  0.00  0.00    +0.000 N 
ATOM      2  C   UNL     1      -0.595  10.161  22.079  0.00  0.00    +0.000 C 
ATOM      3  O   UNL     1      -0.738   9.341  22.992  0.00  0.00    +0.000 OA
ENDROOT
BRANCH   2   4
ATOM      4  C   UNL     1      -1.030  11.572  22.449  0.00  0.00    +0.000 A 
ATOM      5  C   UNL     1      -0.222  12.694  22.334  0.00  0.00    +0.000 A 
ATOM      6  C   UNL     1      -0.614  14.008  22.540  0.00  0.00    +0.000 A 
ATOM      7  C   UNL     1      -1.918  14.272  22.890  0.00  0.00    +0.000 A 
ATOM      8  C   UNL     1      -2.782  13.171  23.053  0.00  0.00    +0.000 A 
ATOM      9  C   UNL     1      -2.348  11.835  22.853  0.00  0.00    +0.000 A 
BRANCH   6  10
ATOM     10  N   UNL     1       0.393  15.058  22.328  0.00  0.00    +0.000 N 
ATOM     11  O   UNL     1       0.009  16.227  22.205  0.00  0.00    +0.000 OA
ATOM     12  O   UNL     1       1.589  14.696  22.296  0.00  0.00    +0.000 OA
ENDBRANCH   6  10
BRANCH   8  13
ATOM     13  N   UNL     1      -4.183  13.439  23.402  0.00  0.00    +0.000 N 
ATOM     14  O   UNL     1      -4.453  14.570  23.832  0.00  0.00    +0.000 OA
ATOM     15  O   UNL     1      -5.002  12.530  23.242  0.00  0.00    +0.000 OA
ENDBRANCH   8  13
ENDBRANCH   2   4
BRANCH   1  18
ATOM     16  C   UNL     1       1.401   7.823  20.901  0.00  0.00    +0.000 C 
ATOM     17  O   UNL     1       2.267   8.401  21.548  0.00  0.00    +0.000 OA
ATOM     18  N   UNL     1       0.159   8.372  20.584  0.00  0.00    +0.000 N 
ATOM     19  H   UNL     1      -0.433   7.897  19.921  0.00  0.00    +0.000 HD
BRANCH  16  24
ATOM     20  C   UNL     1       4.796   6.954  16.276  0.00  0.00    +0.000 C 
ATOM     21  C   UNL     1       3.932   6.574  17.411  0.00  0.00    +0.000 A 
ATOM     22  C   UNL     1       3.384   7.284  18.453  0.00  0.00    +0.000 A 
ATOM     23  C   UNL     1       2.566   6.384  19.194  0.00  0.00    +0.000 A 
ATOM     24  C   UNL     1       1.692   6.470  20.307  0.00  0.00    +0.000 A 
ATOM     25  C   UNL     1       1.088   5.271  20.756  0.00  0.00    +0.000 A 
ATOM     26  C   UNL     1       1.291   4.053  20.091  0.00  0.00    +0.000 A 
ATOM     27  C   UNL     1       2.111   3.971  18.962  0.00  0.00    +0.000 A 
ATOM     28  C   UNL     1       2.726   5.153  18.560  0.00  0.00    +0.000 A 
ATOM     29  O   UNL     1       3.547   5.270  17.479  0.00  0.00    +0.000 OA
ENDBRANCH  16  24
ENDBRANCH   1  18
BRANCH   1  30
ATOM     30  C   UNL     1      -0.110  10.557  19.485  0.00  0.00    +0.000 C 
ATOM     31  C   UNL     1       0.159   9.745  18.188  0.00  0.00    +0.000 C 
ATOM     32  C   UNL     1      -1.552  11.119  19.211  0.00  0.00    +0.000 C 
ATOM     33  C   UNL     1       1.110  11.538  19.486  0.00  0.00    +0.000 C 
ENDBRANCH   1  30
TORSDOF 6
ENDMDL
MODEL 8
REMARK VINA RESULT:      -6.7      2.165      3.928
REMARK  Name = 
REMARK  10 active torsions:
REMARK  status: ('A' for Active; 'I' for Inactive)
REMARK    1  A    between atoms: C_1  and  C_2
REMARK    2  A    between atoms: C_5  and  C_6
REMARK    3  A    between atoms: N_8  and  N_9
REMARK    4  A    between atoms: N_9  and  C_24
REMARK    5  A    between atoms: C_10  and  C_12
REMARK    6  A    between atoms: C_14  and  N_15
REMARK    7  A    between atoms: C_19  and  N_20
REMARK    8  A    between atoms: C_24  and  C_25
REMARK    9  A    between atoms: C_24  and  C_26
REMARK   10  A    between atoms: C_24  and  C_27
REMARK                            x       y       z     vdW  Elec       q    Type
REMARK                         _______ _______ _______ _____ _____    ______ ____
ROOT
ATOM      1  N   UNL     1       1.423   8.664  20.020  0.00  0.00    +0.000 N 
ATOM      2  C   UNL     1       1.526   9.444  18.825  0.00  0.00    +0.000 C 
ATOM      3  O   UNL     1       2.304   9.147  17.913  0.00  0.00    +0.000 OA
ENDROOT
BRANCH   2   4
ATOM      4  C   UNL     1       0.759  10.736  18.579  0.00  0.00    +0.000 A 
ATOM      5  C   UNL     1      -0.611  10.801  18.364  0.00  0.00    +0.000 A 
ATOM      6  C   UNL     1      -1.367  11.959  18.261  0.00  0.00    +0.000 A 
ATOM      7  C   UNL     1      -0.743  13.180  18.379  0.00  0.00    +0.000 A 
ATOM      8  C   UNL     1       0.653  13.181  18.568  0.00  0.00    +0.000 A 
ATOM      9  C   UNL     1       1.404  11.979  18.652  0.00  0.00    +0.000 A 
BRANCH   6  10
ATOM     10  N   UNL     1      -2.816  11.809  18.068  0.00  0.00    +0.000 N 
ATOM     11  O   UNL     1      -3.569  12.097  19.007  0.00  0.00    +0.000 OA
ATOM     12  O   UNL     1      -3.199  11.403  16.950  0.00  0.00    +0.000 OA
ENDBRANCH   6  10
BRANCH   8  13
ATOM     13  N   UNL     1       1.328  14.476  18.721  0.00  0.00    +0.000 N 
ATOM     14  O   UNL     1       2.566  14.478  18.664  0.00  0.00    +0.000 OA
ATOM     15  O   UNL     1       0.626  15.477  18.891  0.00  0.00    +0.000 OA
ENDBRANCH   8  13
ENDBRANCH   2   4
BRANCH   1  18
ATOM     16  C   UNL     1       2.144   6.403  19.289  0.00  0.00    +0.000 C 
ATOM     17  O   UNL     1       1.426   6.377  18.296  0.00  0.00    +0.000 OA
ATOM     18  N   UNL     1       2.298   7.512  20.119  0.00  0.00    +0.000 N 
ATOM     19  H   UNL     1       2.780   7.405  20.997  0.00  0.00    +0.000 HD
BRANCH  16  24
ATOM     20  C   UNL     1       7.376   4.753  17.399  0.00  0.00    +0.000 C 
ATOM     21  C   UNL     1       6.142   4.672  18.202  0.00  0.00    +0.000 A 
ATOM     22  C   UNL     1       5.087   5.535  18.393  0.00  0.00    +0.000 A 
ATOM     23  C   UNL     1       4.141   4.869  19.224  0.00  0.00    +0.000 A 
ATOM     24  C   UNL     1       2.847   5.147  19.733  0.00  0.00    +0.000 A 
ATOM     25  C   UNL     1       2.262   4.181  20.587  0.00  0.00    +0.000 A 
ATOM     26  C   UNL     1       2.904   2.966  20.871  0.00  0.00    +0.000 A 
ATOM     27  C   UNL     1       4.156   2.664  20.330  0.00  0.00    +0.000 A 
ATOM     28  C   UNL     1       4.732   3.643  19.524  0.00  0.00    +0.000 A 
ATOM     29  O   UNL     1       5.938   3.523  18.902  0.00  0.00    +0.000 OA
ENDBRANCH  16  24
ENDBRANCH   1  18
BRANCH   1  30
ATOM     30  C   UNL     1       0.734   8.976  21.330  0.00  0.00    +0.000 C 
ATOM     31  C   UNL     1       0.201  10.425  21.511  0.00  0.00    +0.000 C 
ATOM     32  C   UNL     1      -0.594   8.140  21.419  0.00  0.00    +0.000 C 
ATOM     33  C   UNL     1       1.776   8.890  22.494  0.00  0.00    +0.000 C 
ENDBRANCH   1  30
TORSDOF 6
ENDMDL
MODEL 9
REMARK VINA RESULT:      -6.7      2.602      3.582
REMARK  Name = 
REMARK  10 active torsions:
REMARK  status: ('A' for Active; 'I' for Inactive)
REMARK    1  A    between atoms: C_1  and  C_2
REMARK    2  A    between atoms: C_5  and  C_6
REMARK    3  A    between atoms: N_8  and  N_9
REMARK    4  A    between atoms: N_9  and  C_24
REMARK    5  A    between atoms: C_10  and  C_12
REMARK    6  A    between atoms: C_14  and  N_15
REMARK    7  A    between atoms: C_19  and  N_20
REMARK    8  A    between atoms: C_24  and  C_25
REMARK    9  A    between atoms: C_24  and  C_26
REMARK   10  A    between atoms: C_24  and  C_27
REMARK                            x       y       z     vdW  Elec       q    Type
REMARK                         _______ _______ _______ _____ _____    ______ ____
ROOT
ATOM      1  N   UNL     1       0.520  11.260  18.572  0.00  0.00    +0.000 N 
ATOM      2  C   UNL     1       1.461  12.300  18.852  0.00  0.00    +0.000 C 
ATOM      3  O   UNL     1       2.680  12.130  18.740  0.00  0.00    +0.000 OA
ENDROOT
BRANCH   2   4
ATOM      4  C   UNL     1       1.081  13.679  19.372  0.00  0.00    +0.000 A 
ATOM      5  C   UNL     1       0.968  14.002  20.718  0.00  0.00    +0.000 A 
ATOM      6  C   UNL     1       0.748  15.268  21.238  0.00  0.00    +0.000 A 
ATOM      7  C   UNL     1       0.628  16.335  20.377  0.00  0.00    +0.000 A 
ATOM      8  C   UNL     1       0.703  16.068  18.997  0.00  0.00    +0.000 A 
ATOM      9  C   UNL     1       0.911  14.758  18.491  0.00  0.00    +0.000 A 
BRANCH   6  10
ATOM     10  N   UNL     1       0.697  15.402  22.701  0.00  0.00    +0.000 N 
ATOM     11  O   UNL     1      -0.250  14.887  23.307  0.00  0.00    +0.000 OA
ATOM     12  O   UNL     1       1.633  16.027  23.244  0.00  0.00    +0.000 OA
ENDBRANCH   6  10
BRANCH   8  13
ATOM     13  N   UNL     1       0.601  17.201  18.068  0.00  0.00    +0.000 N 
ATOM     14  O   UNL     1       1.624  17.877  17.886  0.00  0.00    +0.000 OA
ATOM     15  O   UNL     1      -0.488  17.406  17.523  0.00  0.00    +0.000 OA
ENDBRANCH   8  13
ENDBRANCH   2   4
BRANCH   1  18
ATOM     16  C   UNL     1       1.517   9.048  19.105  0.00  0.00    +0.000 C 
ATOM     17  O   UNL     1       1.306   9.123  20.310  0.00  0.00    +0.000 OA
ATOM     18  N   UNL     1       1.069   9.980  18.170  0.00  0.00    +0.000 N 
ATOM     19  H   UNL     1       1.416   9.932  17.225  0.00  0.00    +0.000 HD
BRANCH  16  24
ATOM     20  C   UNL     1       2.064   3.820  21.562  0.00  0.00    +0.000 C 
ATOM     21  C   UNL     1       2.292   4.869  20.550  0.00  0.00    +0.000 A 
ATOM     22  C   UNL     1       1.730   6.107  20.337  0.00  0.00    +0.000 A 
ATOM     23  C   UNL     1       2.420   6.701  19.242  0.00  0.00    +0.000 A 
ATOM     24  C   UNL     1       2.397   7.949  18.569  0.00  0.00    +0.000 A 
ATOM     25  C   UNL     1       3.263   8.108  17.461  0.00  0.00    +0.000 A 
ATOM     26  C   UNL     1       4.157   7.098  17.077  0.00  0.00    +0.000 A 
ATOM     27  C   UNL     1       4.222   5.885  17.768  0.00  0.00    +0.000 A 
ATOM     28  C   UNL     1       3.335   5.734  18.831  0.00  0.00    +0.000 A 
ATOM     29  O   UNL     1       3.261   4.629  19.625  0.00  0.00    +0.000 OA
ENDBRANCH  16  24
ENDBRANCH   1  18
BRANCH   1  30
ATOM     30  C   UNL     1      -0.960  11.181  18.870  0.00  0.00    +0.000 C 
ATOM     31  C   UNL     1      -1.691   9.879  18.439  0.00  0.00    +0.000 C 
ATOM     32  C   UNL     1      -1.166  11.155  20.429  0.00  0.00    +0.000 C 
ATOM     33  C   UNL     1      -1.716  12.251  18.014  0.00  0.00    +0.000 C 
ENDBRANCH   1  30
TORSDOF 6
ENDMDL
