MODEL 1
REMARK VINA RESULT:      -6.4      0.000      0.000
REMARK  Name = 
REMARK  7 active torsions:
REMARK  status: ('A' for Active; 'I' for Inactive)
REMARK    1  A    between atoms: C_1  and  C_2
REMARK    2  A    between atoms: N_4  and  C_5
REMARK    3  A    between atoms: C_6  and  O_7
REMARK    4  A    between atoms: C_9  and  P_10
REMARK    5  A    between atoms: P_10  and  O_12
REMARK    6  A    between atoms: P_10  and  O_13
REMARK    7  A    between atoms: C_15  and  O_16
REMARK                            x       y       z     vdW  Elec       q    Type
REMARK                         _______ _______ _______ _____ _____    ______ ____
ROOT
ATOM      1  C   UNL     1       4.973   5.129  17.402  0.00  0.00    +0.000 C 
ATOM      2  C   UNL     1       5.502   4.253  18.570  0.00  0.00    +0.000 C 
ATOM      3  C   UNL     1       4.478   3.569  19.408  0.00  0.00    +0.000 C 
ATOM      4  C   UNL     1       3.158   3.796  19.336  0.00  0.00    +0.000 C 
ATOM      5  C   UNL     1       2.561   4.826  18.424  0.00  0.00    +0.000 C 
ATOM      6  C   UNL     1       3.529   5.660  17.569  0.00  0.00    +0.000 C 
ENDROOT
BRANCH   1  10
ATOM      7  C   UNL     1       6.298   4.087  13.992  0.00  0.00    +0.000 C 
ATOM      8  C   UNL     1       6.309   4.822  15.306  0.00  0.00    +0.000 C 
ATOM      9  O   UNL     1       7.219   5.560  15.662  0.00  0.00    +0.000 OA
ATOM     10  N   UNL     1       5.199   4.557  16.071  0.00  0.00    +0.000 N 
ATOM     11  H   UNL     1       4.565   3.824  15.772  0.00  0.00    +0.000 HD
ENDBRANCH   1  10
BRANCH   2  12
ATOM     12  O   UNL     1       6.305   5.035  19.461  0.00  0.00    +0.000 OA
ATOM     13  H   UNL     1       6.261   4.618  20.338  0.00  0.00    +0.000 HD
ENDBRANCH   2  12
BRANCH   4  14
ATOM     14  P   UNL     1       1.938   2.833  20.153  0.00  0.00    +0.000 P 
ATOM     15  O   UNL     1       2.093   2.339  21.556  0.00  0.00    +0.000 OA
BRANCH  14  16
ATOM     16  O   UNL     1       0.597   3.702  19.978  0.00  0.00    +0.000 OA
ATOM     17  H   UNL     1       0.768   4.616  19.643  0.00  0.00    +0.000 HD
ENDBRANCH  14  16
BRANCH  14  18
ATOM     18  O   UNL     1       1.544   1.622  19.171  0.00  0.00    +0.000 OA
ATOM     19  H   UNL     1       2.282   0.985  19.144  0.00  0.00    +0.000 HD
ENDBRANCH  14  18
ENDBRANCH   4  14
BRANCH   6  20
ATOM     20  O   UNL     1       3.626   7.022  18.035  0.00  0.00    +0.000 OA
ATOM     21  H   UNL     1       2.929   7.192  18.692  0.00  0.00    +0.000 HD
ENDBRANCH   6  20
TORSDOF 6
ENDMDL
MODEL 2
REMARK VINA RESULT:      -6.3      2.605      5.697
REMARK  Name = 
REMARK  7 active torsions:
REMARK  status: ('A' for Active; 'I' for Inactive)
REMARK    1  A    between atoms: C_1  and  C_2
REMARK    2  A    between atoms: N_4  and  C_5
REMARK    3  A    between atoms: C_6  and  O_7
REMARK    4  A    between atoms: C_9  and  P_10
REMARK    5  A    between atoms: P_10  and  O_12
REMARK    6  A    between atoms: P_10  and  O_13
REMARK    7  A    between atoms: C_15  and  O_16
REMARK                            x       y       z     vdW  Elec       q    Type
REMARK                         _______ _______ _______ _____ _____    ______ ____
ROOT
ATOM      1  C   UNL     1       2.795   4.486  18.672  0.00  0.00    +0.000 C 
ATOM      2  C   UNL     1       3.197   3.477  17.562  0.00  0.00    +0.000 C 
ATOM      3  C   UNL     1       4.545   3.657  16.955  0.00  0.00    +0.000 C 
ATOM      4  C   UNL     1       5.344   4.713  17.168  0.00  0.00    +0.000 C 
ATOM      5  C   UNL     1       4.934   5.880  18.017  0.00  0.00    +0.000 C 
ATOM      6  C   UNL     1       3.525   5.849  18.630  0.00  0.00    +0.000 C 
ENDROOT
BRANCH   1  10
ATOM      7  C   UNL     1       1.951   2.731  21.941  0.00  0.00    +0.000 C 
ATOM      8  C   UNL     1       1.702   3.226  20.541  0.00  0.00    +0.000 C 
ATOM      9  O   UNL     1       0.664   3.019  19.924  0.00  0.00    +0.000 OA
ATOM     10  N   UNL     1       2.771   3.916  20.023  0.00  0.00    +0.000 N 
ATOM     11  H   UNL     1       3.645   3.918  20.539  0.00  0.00    +0.000 HD
ENDBRANCH   1  10
BRANCH   2  12
ATOM     12  O   UNL     1       2.255   3.512  16.486  0.00  0.00    +0.000 OA
ATOM     13  H   UNL     1       2.540   2.859  15.825  0.00  0.00    +0.000 HD
ENDBRANCH   2  12
BRANCH   4  14
ATOM     14  P   UNL     1       7.016   4.819  16.641  0.00  0.00    +0.000 P 
ATOM     15  O   UNL     1       8.147   4.181  17.382  0.00  0.00    +0.000 OA
BRANCH  14  16
ATOM     16  O   UNL     1       6.957   4.324  15.113  0.00  0.00    +0.000 OA
ATOM     17  H   UNL     1       6.049   4.368  14.725  0.00  0.00    +0.000 HD
ENDBRANCH  14  16
BRANCH  14  18
ATOM     18  O   UNL     1       7.334   6.369  16.357  0.00  0.00    +0.000 OA
ATOM     19  H   UNL     1       8.289   6.523  16.482  0.00  0.00    +0.000 HD
ENDBRANCH  14  18
ENDBRANCH   4  14
BRANCH   6  20
ATOM     20  O   UNL     1       2.637   6.790  17.991  0.00  0.00    +0.000 OA
ATOM     21  H   UNL     1       3.047   7.122  17.174  0.00  0.00    +0.000 HD
ENDBRANCH   6  20
TORSDOF 6
ENDMDL
MODEL 3
REMARK VINA RESULT:      -6.2      0.289      1.105
REMARK  Name = 
REMARK  7 active torsions:
REMARK  status: ('A' for Active; 'I' for Inactive)
REMARK    1  A    between atoms: C_1  and  C_2
REMARK    2  A    between atoms: N_4  and  C_5
REMARK    3  A    between atoms: C_6  and  O_7
REMARK    4  A    between atoms: C_9  and  P_10
REMARK    5  A    between atoms: P_10  and  O_12
REMARK    6  A    between atoms: P_10  and  O_13
REMARK    7  A    between atoms: C_15  and  O_16
REMARK                            x       y       z     vdW  Elec       q    Type
REMARK                         _______ _______ _______ _____ _____    ______ ____
ROOT
ATOM      1  C   UNL     1       5.162   5.142  17.249  0.00  0.00    +0.000 C 
ATOM      2  C   UNL     1       5.627   4.245  18.428  0.00  0.00    +0.000 C 
ATOM      3  C   UNL     1       4.556   3.638  19.267  0.00  0.00    +0.000 C 
ATOM      4  C   UNL     1       3.254   3.952  19.187  0.00  0.00    +0.000 C 
ATOM      5  C   UNL     1       2.731   5.010  18.261  0.00  0.00    +0.000 C 
ATOM      6  C   UNL     1       3.756   5.769  17.403  0.00  0.00    +0.000 C 
ENDROOT
BRANCH   1  10
ATOM      7  C   UNL     1       6.404   4.027  13.830  0.00  0.00    +0.000 C 
ATOM      8  C   UNL     1       6.448   4.788  15.128  0.00  0.00    +0.000 C 
ATOM      9  O   UNL     1       7.368   5.531  15.448  0.00  0.00    +0.000 OA
ATOM     10  N   UNL     1       5.356   4.542  15.924  0.00  0.00    +0.000 N 
ATOM     11  H   UNL     1       4.712   3.806  15.655  0.00  0.00    +0.000 HD
ENDBRANCH   1  10
BRANCH   2  12
ATOM     12  O   UNL     1       6.476   4.980  19.315  0.00  0.00    +0.000 OA
ATOM     13  H   UNL     1       6.974   4.337  19.846  0.00  0.00    +0.000 HD
ENDBRANCH   2  12
BRANCH   4  14
ATOM     14  P   UNL     1       1.969   3.080  20.007  0.00  0.00    +0.000 P 
ATOM     15  O   UNL     1       0.611   3.661  20.243  0.00  0.00    +0.000 OA
BRANCH  14  16
ATOM     16  O   UNL     1       1.885   1.692  19.200  0.00  0.00    +0.000 OA
ATOM     17  H   UNL     1       0.961   1.364  19.088  0.00  0.00    +0.000 HD
ENDBRANCH  14  16
BRANCH  14  18
ATOM     18  O   UNL     1       2.578   2.502  21.377  0.00  0.00    +0.000 OA
ATOM     19  H   UNL     1       3.123   3.194  21.797  0.00  0.00    +0.000 HD
ENDBRANCH  14  18
ENDBRANCH   4  14
BRANCH   6  20
ATOM     20  O   UNL     1       3.941   7.126  17.856  0.00  0.00    +0.000 OA
ATOM     21  H   UNL     1       3.309   7.320  18.570  0.00  0.00    +0.000 HD
ENDBRANCH   6  20
TORSDOF 6
ENDMDL
MODEL 4
REMARK VINA RESULT:      -6.2      2.619      5.675
REMARK  Name = 
REMARK  7 active torsions:
REMARK  status: ('A' for Active; 'I' for Inactive)
REMARK    1  A    between atoms: C_1  and  C_2
REMARK    2  A    between atoms: N_4  and  C_5
REMARK    3  A    between atoms: C_6  and  O_7
REMARK    4  A    between atoms: C_9  and  P_10
REMARK    5  A    between atoms: P_10  and  O_12
REMARK    6  A    between atoms: P_10  and  O_13
REMARK    7  A    between atoms: C_15  and  O_16
REMARK                            x       y       z     vdW  Elec       q    Type
REMARK                         _______ _______ _______ _____ _____    ______ ____
ROOT
ATOM      1  C   UNL     1       2.714   4.448  18.689  0.00  0.00    +0.000 C 
ATOM      2  C   UNL     1       3.190   3.457  17.592  0.00  0.00    +0.000 C 
ATOM      3  C   UNL     1       4.555   3.681  17.039  0.00  0.00    +0.000 C 
ATOM      4  C   UNL     1       5.312   4.761  17.288  0.00  0.00    +0.000 C 
ATOM      5  C   UNL     1       4.833   5.910  18.124  0.00  0.00    +0.000 C 
ATOM      6  C   UNL     1       3.402   5.833  18.681  0.00  0.00    +0.000 C 
ENDROOT
BRANCH   1  10
ATOM      7  C   UNL     1       1.804   2.641  21.912  0.00  0.00    +0.000 C 
ATOM      8  C   UNL     1       1.596   3.131  20.503  0.00  0.00    +0.000 C 
ATOM      9  O   UNL     1       0.597   2.880  19.839  0.00  0.00    +0.000 OA
ATOM     10  N   UNL     1       2.655   3.870  20.036  0.00  0.00    +0.000 N 
ATOM     11  H   UNL     1       3.504   3.909  20.591  0.00  0.00    +0.000 HD
ENDBRANCH   1  10
BRANCH   2  12
ATOM     12  O   UNL     1       2.290   3.468  16.480  0.00  0.00    +0.000 OA
ATOM     13  H   UNL     1       1.660   4.195  16.619  0.00  0.00    +0.000 HD
ENDBRANCH   2  12
BRANCH   4  14
ATOM     14  P   UNL     1       6.999   4.920  16.827  0.00  0.00    +0.000 P 
ATOM     15  O   UNL     1       7.486   4.712  15.428  0.00  0.00    +0.000 OA
BRANCH  14  16
ATOM     16  O   UNL     1       7.401   6.374  17.382  0.00  0.00    +0.000 OA
ATOM     17  H   UNL     1       7.022   7.113  16.847  0.00  0.00    +0.000 HD
ENDBRANCH  14  16
BRANCH  14  18
ATOM     18  O   UNL     1       7.865   4.044  17.859  0.00  0.00    +0.000 OA
ATOM     19  H   UNL     1       7.318   3.850  18.644  0.00  0.00    +0.000 HD
ENDBRANCH  14  18
ENDBRANCH   4  14
BRANCH   6  20
ATOM     20  O   UNL     1       2.511   6.749  18.011  0.00  0.00    +0.000 OA
ATOM     21  H   UNL     1       2.434   6.501  17.073  0.00  0.00    +0.000 HD
ENDBRANCH   6  20
TORSDOF 6
ENDMDL
MODEL 5
REMARK VINA RESULT:      -6.2      2.862      5.665
REMARK  Name = 
REMARK  7 active torsions:
REMARK  status: ('A' for Active; 'I' for Inactive)
REMARK    1  A    between atoms: C_1  and  C_2
REMARK    2  A    between atoms: N_4  and  C_5
REMARK    3  A    between atoms: C_6  and  O_7
REMARK    4  A    between atoms: C_9  and  P_10
REMARK    5  A    between atoms: P_10  and  O_12
REMARK    6  A    between atoms: P_10  and  O_13
REMARK    7  A    between atoms: C_15  and  O_16
REMARK                            x       y       z     vdW  Elec       q    Type
REMARK                         _______ _______ _______ _____ _____    ______ ____
ROOT
ATOM      1  C   UNL     1       4.702   4.753  19.574  0.00  0.00    +0.000 C 
ATOM      2  C   UNL     1       5.959   5.597  19.227  0.00  0.00    +0.000 C 
ATOM      3  C   UNL     1       6.412   5.567  17.808  0.00  0.00    +0.000 C 
ATOM      4  C   UNL     1       5.928   4.738  16.871  0.00  0.00    +0.000 C 
ATOM      5  C   UNL     1       4.895   3.692  17.169  0.00  0.00    +0.000 C 
ATOM      6  C   UNL     1       4.412   3.569  18.623  0.00  0.00    +0.000 C 
ENDROOT
BRANCH   1  10
ATOM      7  C   UNL     1       1.381   6.154  20.792  0.00  0.00    +0.000 C 
ATOM      8  C   UNL     1       2.483   5.135  20.672  0.00  0.00    +0.000 C 
ATOM      9  O   UNL     1       2.481   4.061  21.262  0.00  0.00    +0.000 OA
ATOM     10  N   UNL     1       3.501   5.549  19.847  0.00  0.00    +0.000 N 
ATOM     11  H   UNL     1       3.498   6.507  19.514  0.00  0.00    +0.000 HD
ENDBRANCH   1  10
BRANCH   2  12
ATOM     12  O   UNL     1       7.076   5.187  20.022  0.00  0.00    +0.000 OA
ATOM     13  H   UNL     1       7.856   5.670  19.705  0.00  0.00    +0.000 HD
ENDBRANCH   2  12
BRANCH   4  14
ATOM     14  P   UNL     1       6.292   4.855  15.157  0.00  0.00    +0.000 P 
ATOM     15  O   UNL     1       6.130   3.710  14.208  0.00  0.00    +0.000 OA
BRANCH  14  16
ATOM     16  O   UNL     1       5.449   6.139  14.683  0.00  0.00    +0.000 OA
ATOM     17  H   UNL     1       5.552   6.337  13.721  0.00  0.00    +0.000 HD
ENDBRANCH  14  16
BRANCH  14  18
ATOM     18  O   UNL     1       7.761   5.494  15.020  0.00  0.00    +0.000 OA
ATOM     19  H   UNL     1       8.202   5.106  14.241  0.00  0.00    +0.000 HD
ENDBRANCH  14  18
ENDBRANCH   4  14
BRANCH   6  20
ATOM     20  O   UNL     1       4.914   2.376  19.260  0.00  0.00    +0.000 OA
ATOM     21  H   UNL     1       4.725   2.412  20.214  0.00  0.00    +0.000 HD
ENDBRANCH   6  20
TORSDOF 6
ENDMDL
MODEL 6
REMARK VINA RESULT:      -6.2      2.610      5.672
REMARK  Name = 
REMARK  7 active torsions:
REMARK  status: ('A' for Active; 'I' for Inactive)
REMARK    1  A    between atoms: C_1  and  C_2
REMARK    2  A    between atoms: N_4  and  C_5
REMARK    3  A    between atoms: C_6  and  O_7
REMARK    4  A    between atoms: C_9  and  P_10
REMARK    5  A    between atoms: P_10  and  O_12
REMARK    6  A    between atoms: P_10  and  O_13
REMARK    7  A    between atoms: C_15  and  O_16
REMARK                            x       y       z     vdW  Elec       q    Type
REMARK                         _______ _______ _______ _____ _____    ______ ____
ROOT
ATOM      1  C   UNL     1       2.641   4.516  18.686  0.00  0.00    +0.000 C 
ATOM      2  C   UNL     1       3.135   3.533  17.590  0.00  0.00    +0.000 C 
ATOM      3  C   UNL     1       4.482   3.799  17.013  0.00  0.00    +0.000 C 
ATOM      4  C   UNL     1       5.204   4.907  17.240  0.00  0.00    +0.000 C 
ATOM      5  C   UNL     1       4.698   6.047  18.073  0.00  0.00    +0.000 C 
ATOM      6  C   UNL     1       3.280   5.924  18.654  0.00  0.00    +0.000 C 
ENDROOT
BRANCH   1  10
ATOM      7  C   UNL     1       1.852   2.699  21.934  0.00  0.00    +0.000 C 
ATOM      8  C   UNL     1       1.606   3.164  20.523  0.00  0.00    +0.000 C 
ATOM      9  O   UNL     1       0.614   2.858  19.872  0.00  0.00    +0.000 OA
ATOM     10  N   UNL     1       2.623   3.950  20.039  0.00  0.00    +0.000 N 
ATOM     11  H   UNL     1       3.475   4.035  20.584  0.00  0.00    +0.000 HD
ENDBRANCH   1  10
BRANCH   2  12
ATOM     12  O   UNL     1       2.217   3.501  16.492  0.00  0.00    +0.000 OA
ATOM     13  H   UNL     1       1.385   3.118  16.815  0.00  0.00    +0.000 HD
ENDBRANCH   2  12
BRANCH   4  14
ATOM     14  P   UNL     1       6.876   5.121  16.750  0.00  0.00    +0.000 P 
ATOM     15  O   UNL     1       7.513   6.465  16.587  0.00  0.00    +0.000 OA
BRANCH  14  16
ATOM     16  O   UNL     1       7.690   4.205  17.791  0.00  0.00    +0.000 OA
ATOM     17  H   UNL     1       7.380   3.267  17.807  0.00  0.00    +0.000 HD
ENDBRANCH  14  16
BRANCH  14  18
ATOM     18  O   UNL     1       7.112   4.225  15.437  0.00  0.00    +0.000 OA
ATOM     19  H   UNL     1       6.253   3.876  15.135  0.00  0.00    +0.000 HD
ENDBRANCH  14  18
ENDBRANCH   4  14
BRANCH   6  20
ATOM     20  O   UNL     1       2.347   6.802  17.990  0.00  0.00    +0.000 OA
ATOM     21  H   UNL     1       1.460   6.686  18.375  0.00  0.00    +0.000 HD
ENDBRANCH   6  20
TORSDOF 6
ENDMDL
MODEL 7
REMARK VINA RESULT:      -6.2      2.001      2.587
REMARK  Name = 
REMARK  7 active torsions:
REMARK  status: ('A' for Active; 'I' for Inactive)
REMARK    1  A    between atoms: C_1  and  C_2
REMARK    2  A    between atoms: N_4  and  C_5
REMARK    3  A    between atoms: C_6  and  O_7
REMARK    4  A    between atoms: C_9  and  P_10
REMARK    5  A    between atoms: P_10  and  O_12
REMARK    6  A    between atoms: P_10  and  O_13
REMARK    7  A    between atoms: C_15  and  O_16
REMARK                            x       y       z     vdW  Elec       q    Type
REMARK                         _______ _______ _______ _____ _____    ______ ____
ROOT
ATOM      1  C   UNL     1       6.420   5.221  16.577  0.00  0.00    +0.000 C 
ATOM      2  C   UNL     1       6.282   4.381  17.876  0.00  0.00    +0.000 C 
ATOM      3  C   UNL     1       5.107   4.680  18.742  0.00  0.00    +0.000 C 
ATOM      4  C   UNL     1       4.279   5.721  18.572  0.00  0.00    +0.000 C 
ATOM      5  C   UNL     1       4.484   6.753  17.503  0.00  0.00    +0.000 C 
ATOM      6  C   UNL     1       5.717   6.599  16.598  0.00  0.00    +0.000 C 
ENDROOT
BRANCH   1  10
ATOM      7  C   UNL     1       6.345   3.746  13.071  0.00  0.00    +0.000 C 
ATOM      8  C   UNL     1       6.827   4.654  14.172  0.00  0.00    +0.000 C 
ATOM      9  O   UNL     1       7.748   5.451  14.039  0.00  0.00    +0.000 OA
ATOM     10  N   UNL     1       6.137   4.477  15.346  0.00  0.00    +0.000 N 
ATOM     11  H   UNL     1       5.490   3.699  15.418  0.00  0.00    +0.000 HD
ENDBRANCH   1  10
BRANCH   2  12
ATOM     12  O   UNL     1       7.444   4.530  18.697  0.00  0.00    +0.000 OA
ATOM     13  H   UNL     1       8.099   3.875  18.401  0.00  0.00    +0.000 HD
ENDBRANCH   2  12
BRANCH   4  14
ATOM     14  P   UNL     1       2.771   5.946  19.443  0.00  0.00    +0.000 P 
ATOM     15  O   UNL     1       2.150   7.288  19.668  0.00  0.00    +0.000 OA
BRANCH  14  16
ATOM     16  O   UNL     1       1.758   4.943  18.700  0.00  0.00    +0.000 OA
ATOM     17  H   UNL     1       1.340   5.338  17.897  0.00  0.00    +0.000 HD
ENDBRANCH  14  16
BRANCH  14  18
ATOM     18  O   UNL     1       2.894   5.144  20.832  0.00  0.00    +0.000 OA
ATOM     19  H   UNL     1       2.026   5.150  21.277  0.00  0.00    +0.000 HD
ENDBRANCH  14  18
ENDBRANCH   4  14
BRANCH   6  20
ATOM     20  O   UNL     1       6.726   7.589  16.886  0.00  0.00    +0.000 OA
ATOM     21  H   UNL     1       7.208   7.337  17.693  0.00  0.00    +0.000 HD
ENDBRANCH   6  20
TORSDOF 6
ENDMDL
MODEL 8
REMARK VINA RESULT:      -6.2      0.244      1.117
REMARK  Name = 
REMARK  7 active torsions:
REMARK  status: ('A' for Active; 'I' for Inactive)
REMARK    1  A    between atoms: C_1  and  C_2
REMARK    2  A    between atoms: N_4  and  C_5
REMARK    3  A    between atoms: C_6  and  O_7
REMARK    4  A    between atoms: C_9  and  P_10
REMARK    5  A    between atoms: P_10  and  O_12
REMARK    6  A    between atoms: P_10  and  O_13
REMARK    7  A    between atoms: C_15  and  O_16
REMARK                            x       y       z     vdW  Elec       q    Type
REMARK                         _______ _______ _______ _____ _____    ______ ____
ROOT
ATOM      1  C   UNL     1       5.062   5.211  17.378  0.00  0.00    +0.000 C 
ATOM      2  C   UNL     1       5.539   4.314  18.553  0.00  0.00    +0.000 C 
ATOM      3  C   UNL     1       4.476   3.650  19.359  0.00  0.00    +0.000 C 
ATOM      4  C   UNL     1       3.164   3.911  19.254  0.00  0.00    +0.000 C 
ATOM      5  C   UNL     1       2.618   4.962  18.334  0.00  0.00    +0.000 C 
ATOM      6  C   UNL     1       3.629   5.777  17.511  0.00  0.00    +0.000 C 
ENDROOT
BRANCH   1  10
ATOM      7  C   UNL     1       6.437   4.180  13.983  0.00  0.00    +0.000 C 
ATOM      8  C   UNL     1       6.427   4.913  15.298  0.00  0.00    +0.000 C 
ATOM      9  O   UNL     1       7.329   5.656  15.667  0.00  0.00    +0.000 OA
ATOM     10  N   UNL     1       5.309   4.641  16.049  0.00  0.00    +0.000 N 
ATOM     11  H   UNL     1       4.682   3.906  15.741  0.00  0.00    +0.000 HD
ENDBRANCH   1  10
BRANCH   2  12
ATOM     12  O   UNL     1       6.337   5.068  19.470  0.00  0.00    +0.000 OA
ATOM     13  H   UNL     1       6.711   4.446  20.115  0.00  0.00    +0.000 HD
ENDBRANCH   2  12
BRANCH   4  14
ATOM     14  P   UNL     1       1.899   2.975  20.032  0.00  0.00    +0.000 P 
ATOM     15  O   UNL     1       1.369   1.694  19.470  0.00  0.00    +0.000 OA
BRANCH  14  16
ATOM     16  O   UNL     1       2.447   2.780  21.531  0.00  0.00    +0.000 OA
ATOM     17  H   UNL     1       1.773   2.400  22.144  0.00  0.00    +0.000 HD
ENDBRANCH  14  16
BRANCH  14  18
ATOM     18  O   UNL     1       0.692   3.982  20.369  0.00  0.00    +0.000 OA
ATOM     19  H   UNL     1       1.038   4.894  20.384  0.00  0.00    +0.000 HD
ENDBRANCH  14  18
ENDBRANCH   4  14
BRANCH   6  20
ATOM     20  O   UNL     1       3.749   7.133  17.990  0.00  0.00    +0.000 OA
ATOM     21  H   UNL     1       3.044   7.313  18.636  0.00  0.00    +0.000 HD
ENDBRANCH   6  20
TORSDOF 6
ENDMDL
MODEL 9
REMARK VINA RESULT:      -6.1      2.920      5.665
REMARK  Name = 
REMARK  7 active torsions:
REMARK  status: ('A' for Active; 'I' for Inactive)
REMARK    1  A    between atoms: C_1  and  C_2
REMARK    2  A    between atoms: N_4  and  C_5
REMARK    3  A    between atoms: C_6  and  O_7
REMARK    4  A    between atoms: C_9  and  P_10
REMARK    5  A    between atoms: P_10  and  O_12
REMARK    6  A    between atoms: P_10  and  O_13
REMARK    7  A    between atoms: C_15  and  O_16
REMARK                            x       y       z     vdW  Elec       q    Type
REMARK                         _______ _______ _______ _____ _____    ______ ____
ROOT
ATOM      1  C   UNL     1       4.853   4.799  19.544  0.00  0.00    +0.000 C 
ATOM      2  C   UNL     1       6.145   5.602  19.230  0.00  0.00    +0.000 C 
ATOM      3  C   UNL     1       6.635   5.555  17.824  0.00  0.00    +0.000 C 
ATOM      4  C   UNL     1       6.151   4.741  16.874  0.00  0.00    +0.000 C 
ATOM      5  C   UNL     1       5.078   3.728  17.145  0.00  0.00    +0.000 C 
ATOM      6  C   UNL     1       4.551   3.623  18.586  0.00  0.00    +0.000 C 
ENDROOT
BRANCH   1  10
ATOM      7  C   UNL     1       1.526   6.288  20.635  0.00  0.00    +0.000 C 
ATOM      8  C   UNL     1       2.593   5.230  20.533  0.00  0.00    +0.000 C 
ATOM      9  O   UNL     1       2.515   4.135  21.079  0.00  0.00    +0.000 OA
ATOM     10  N   UNL     1       3.670   5.633  19.783  0.00  0.00    +0.000 N 
ATOM     11  H   UNL     1       3.724   6.602  19.489  0.00  0.00    +0.000 HD
ENDBRANCH   1  10
BRANCH   2  12
ATOM     12  O   UNL     1       7.226   5.158  20.056  0.00  0.00    +0.000 OA
ATOM     13  H   UNL     1       6.852   4.902  20.916  0.00  0.00    +0.000 HD
ENDBRANCH   2  12
BRANCH   4  14
ATOM     14  P   UNL     1       6.565   4.843  15.171  0.00  0.00    +0.000 P 
ATOM     15  O   UNL     1       7.863   5.401  14.679  0.00  0.00    +0.000 OA
BRANCH  14  16
ATOM     16  O   UNL     1       6.328   3.344  14.639  0.00  0.00    +0.000 OA
ATOM     17  H   UNL     1       5.842   2.776  15.284  0.00  0.00    +0.000 HD
ENDBRANCH  14  16
BRANCH  14  18
ATOM     18  O   UNL     1       5.330   5.542  14.416  0.00  0.00    +0.000 OA
ATOM     19  H   UNL     1       4.829   4.859  13.933  0.00  0.00    +0.000 HD
ENDBRANCH  14  18
ENDBRANCH   4  14
BRANCH   6  20
ATOM     20  O   UNL     1       4.998   2.416  19.238  0.00  0.00    +0.000 OA
ATOM     21  H   UNL     1       5.205   1.741  18.568  0.00  0.00    +0.000 HD
ENDBRANCH   6  20
TORSDOF 6
ENDMDL
