MODEL 1
REMARK VINA RESULT:      -8.2      0.000      0.000
REMARK  Name = 
REMARK  6 active torsions:
REMARK  status: ('A' for Active; 'I' for Inactive)
REMARK    1  A    between atoms: C_1  and  C_2
REMARK    2  A    between atoms: C_2  and  C_3
REMARK    3  A    between atoms: C_2  and  N_4
REMARK    4  A    between atoms: C_6  and  C_7
REMARK    5  A    between atoms: C_18  and  C_19
REMARK    6  A    between atoms: N_22  and  C_23
REMARK                            x       y       z     vdW  Elec       q    Type
REMARK                         _______ _______ _______ _____ _____    ______ ____
ROOT
ATOM      1  N   UNL     1       3.231   4.248  19.802  0.00  0.00    +0.000 N 
ATOM      2  N   UNL     1       2.366   5.140  20.337  0.00  0.00    +0.000 NA
ATOM      3  C   UNL     1       2.738   6.331  19.847  0.00  0.00    +0.000 A 
ATOM      4  C   UNL     1       3.967   6.207  19.160  0.00  0.00    +0.000 A 
ATOM      5  C   UNL     1       4.164   4.849  18.987  0.00  0.00    +0.000 A 
ENDROOT
BRANCH   3   6
ATOM      6  C   UNL     1       1.842   7.488  19.851  0.00  0.00    +0.000 A 
ATOM      7  C   UNL     1       1.843   8.386  18.780  0.00  0.00    +0.000 A 
ATOM      8  N   UNL     1       1.307   9.636  18.777  0.00  0.00    +0.000 NA
ATOM      9  C   UNL     1       0.823   9.988  19.980  0.00  0.00    +0.000 A 
ATOM     10  N   UNL     1       0.401  11.251  20.302  0.00  0.00    +0.000 N 
ATOM     11  C   UNL     1       0.105  11.314  21.641  0.00  0.00    +0.000 A 
ATOM     12  C   UNL     1       0.237  10.040  22.133  0.00  0.00    +0.000 A 
ATOM     13  F   UNL     1       0.059   9.698  23.378  0.00  0.00    +0.000 F 
ATOM     14  C   UNL     1       0.719   9.193  21.116  0.00  0.00    +0.000 A 
ATOM     15  C   UNL     1       1.167   7.866  21.025  0.00  0.00    +0.000 A 
ATOM     16  H   UNL     1       0.412  12.021  19.650  0.00  0.00    +0.000 HD
ENDBRANCH   3   6
BRANCH   5  17
ATOM     17  C   UNL     1       5.061   4.161  17.989  0.00  0.00    +0.000 C 
ATOM     18  C   UNL     1       6.436   4.812  17.875  0.00  0.00    +0.000 C 
ATOM     19  C   UNL     1       6.374   5.643  16.602  0.00  0.00    +0.000 C 
ATOM     20  N   UNL     1       5.439   4.956  15.696  0.00  0.00    +0.000 NA
ATOM     21  C   UNL     1       4.462   4.278  16.571  0.00  0.00    +0.000 C 
BRANCH  20  22
ATOM     22  C   UNL     1       6.147   3.972  14.855  0.00  0.00    +0.000 C 
ATOM     23  C   UNL     1       5.391   3.736  13.529  0.00  0.00    +0.000 C 
ATOM     24  O   UNL     1       6.618   3.960  12.776  0.00  0.00    +0.000 OA
ATOM     25  C   UNL     1       7.156   4.681  13.927  0.00  0.00    +0.000 C 
ENDBRANCH  20  22
ENDBRANCH   5  17
BRANCH   1  27
ATOM     26  C   UNL     1       2.513   2.588  21.490  0.00  0.00    +0.000 C 
ATOM     27  C   UNL     1       3.010   2.826  20.063  0.00  0.00    +0.000 C 
ATOM     28  C   UNL     1       2.056   2.190  19.047  0.00  0.00    +0.000 C 
ENDBRANCH   1  27
TORSDOF 4
ENDMDL
MODEL 2
REMARK VINA RESULT:      -8.2      1.012      1.106
REMARK  Name = 
REMARK  6 active torsions:
REMARK  status: ('A' for Active; 'I' for Inactive)
REMARK    1  A    between atoms: C_1  and  C_2
REMARK    2  A    between atoms: C_2  and  C_3
REMARK    3  A    between atoms: C_2  and  N_4
REMARK    4  A    between atoms: C_6  and  C_7
REMARK    5  A    between atoms: C_18  and  C_19
REMARK    6  A    between atoms: N_22  and  C_23
REMARK                            x       y       z     vdW  Elec       q    Type
REMARK                         _______ _______ _______ _____ _____    ______ ____
ROOT
ATOM      1  N   UNL     1       3.457   4.381  18.749  0.00  0.00    +0.000 N 
ATOM      2  N   UNL     1       2.589   5.291  19.247  0.00  0.00    +0.000 NA
ATOM      3  C   UNL     1       3.043   6.481  18.827  0.00  0.00    +0.000 A 
ATOM      4  C   UNL     1       4.315   6.327  18.230  0.00  0.00    +0.000 A 
ATOM      5  C   UNL     1       4.472   4.968  18.027  0.00  0.00    +0.000 A 
ENDROOT
BRANCH   3   6
ATOM      6  C   UNL     1       2.195   7.673  18.803  0.00  0.00    +0.000 A 
ATOM      7  C   UNL     1       2.236   8.546  17.713  0.00  0.00    +0.000 A 
ATOM      8  N   UNL     1       1.751   9.817  17.681  0.00  0.00    +0.000 NA
ATOM      9  C   UNL     1       1.278  10.214  18.875  0.00  0.00    +0.000 A 
ATOM     10  N   UNL     1       0.907  11.499  19.168  0.00  0.00    +0.000 N 
ATOM     11  C   UNL     1       0.610  11.604  20.504  0.00  0.00    +0.000 A 
ATOM     12  C   UNL     1       0.688  10.336  21.024  0.00  0.00    +0.000 A 
ATOM     13  F   UNL     1       0.493  10.029  22.275  0.00  0.00    +0.000 F 
ATOM     14  C   UNL     1       1.139   9.448  20.026  0.00  0.00    +0.000 A 
ATOM     15  C   UNL     1       1.533   8.102  19.966  0.00  0.00    +0.000 A 
ATOM     16  H   UNL     1       0.952  12.255  18.499  0.00  0.00    +0.000 HD
ENDBRANCH   3   6
BRANCH   5  17
ATOM     17  C   UNL     1       5.415   4.274  17.076  0.00  0.00    +0.000 C 
ATOM     18  C   UNL     1       6.880   4.611  17.338  0.00  0.00    +0.000 C 
ATOM     19  C   UNL     1       7.244   5.636  16.274  0.00  0.00    +0.000 C 
ATOM     20  N   UNL     1       6.410   5.338  15.099  0.00  0.00    +0.000 NA
ATOM     21  C   UNL     1       5.162   4.758  15.633  0.00  0.00    +0.000 C 
BRANCH  20  22
ATOM     22  C   UNL     1       7.084   4.376  14.205  0.00  0.00    +0.000 C 
ATOM     23  C   UNL     1       6.075   3.733  13.228  0.00  0.00    +0.000 C 
ATOM     24  O   UNL     1       6.943   4.053  12.103  0.00  0.00    +0.000 OA
ATOM     25  C   UNL     1       7.577   5.082  12.924  0.00  0.00    +0.000 C 
ENDBRANCH  20  22
ENDBRANCH   5  17
BRANCH   1  27
ATOM     26  C   UNL     1       3.085   2.605  20.430  0.00  0.00    +0.000 C 
ATOM     27  C   UNL     1       3.162   2.962  18.945  0.00  0.00    +0.000 C 
ATOM     28  C   UNL     1       1.884   2.528  18.220  0.00  0.00    +0.000 C 
ENDBRANCH   1  27
TORSDOF 4
ENDMDL
MODEL 3
REMARK VINA RESULT:      -8.0      1.183      1.598
REMARK  Name = 
REMARK  6 active torsions:
REMARK  status: ('A' for Active; 'I' for Inactive)
REMARK    1  A    between atoms: C_1  and  C_2
REMARK    2  A    between atoms: C_2  and  C_3
REMARK    3  A    between atoms: C_2  and  N_4
REMARK    4  A    between atoms: C_6  and  C_7
REMARK    5  A    between atoms: C_18  and  C_19
REMARK    6  A    between atoms: N_22  and  C_23
REMARK                            x       y       z     vdW  Elec       q    Type
REMARK                         _______ _______ _______ _____ _____    ______ ____
ROOT
ATOM      1  N   UNL     1       1.859   4.973  20.371  0.00  0.00    +0.000 N 
ATOM      2  N   UNL     1       1.181   6.032  20.868  0.00  0.00    +0.000 NA
ATOM      3  C   UNL     1       1.732   7.109  20.290  0.00  0.00    +0.000 A 
ATOM      4  C   UNL     1       2.894   6.731  19.578  0.00  0.00    +0.000 A 
ATOM      5  C   UNL     1       2.849   5.352  19.492  0.00  0.00    +0.000 A 
ENDROOT
BRANCH   3   6
ATOM      6  C   UNL     1       1.048   8.401  20.241  0.00  0.00    +0.000 A 
ATOM      7  C   UNL     1       1.435   9.370  19.312  0.00  0.00    +0.000 A 
ATOM      8  N   UNL     1       1.113  10.692  19.344  0.00  0.00    +0.000 NA
ATOM      9  C   UNL     1       0.423  11.022  20.450  0.00  0.00    +0.000 A 
ATOM     10  N   UNL     1       0.137  12.308  20.823  0.00  0.00    +0.000 N 
ATOM     11  C   UNL     1      -0.448  12.312  22.065  0.00  0.00    +0.000 A 
ATOM     12  C   UNL     1      -0.631  10.998  22.417  0.00  0.00    +0.000 A 
ATOM     13  F   UNL     1      -1.142  10.591  23.545  0.00  0.00    +0.000 F 
ATOM     14  C   UNL     1      -0.061  10.166  21.432  0.00  0.00    +0.000 A 
ATOM     15  C   UNL     1       0.186   8.793  21.280  0.00  0.00    +0.000 A 
ATOM     16  H   UNL     1       0.417  13.117  20.287  0.00  0.00    +0.000 HD
ENDBRANCH   3   6
BRANCH   5  17
ATOM     17  C   UNL     1       3.575   4.459  18.517  0.00  0.00    +0.000 C 
ATOM     18  C   UNL     1       4.844   3.846  19.103  0.00  0.00    +0.000 C 
ATOM     19  C   UNL     1       5.983   4.676  18.530  0.00  0.00    +0.000 C 
ATOM     20  N   UNL     1       5.536   5.150  17.210  0.00  0.00    +0.000 NA
ATOM     21  C   UNL     1       4.070   5.284  17.310  0.00  0.00    +0.000 C 
BRANCH  20  22
ATOM     22  C   UNL     1       5.894   4.183  16.155  0.00  0.00    +0.000 C 
ATOM     23  C   UNL     1       5.199   4.540  14.823  0.00  0.00    +0.000 C 
ATOM     24  O   UNL     1       6.473   4.452  14.121  0.00  0.00    +0.000 OA
ATOM     25  C   UNL     1       7.155   4.652  15.397  0.00  0.00    +0.000 C 
ENDBRANCH  20  22
ENDBRANCH   5  17
BRANCH   1  27
ATOM     26  C   UNL     1       0.970   2.835  19.501  0.00  0.00    +0.000 C 
ATOM     27  C   UNL     1       1.409   3.629  20.732  0.00  0.00    +0.000 C 
ATOM     28  C   UNL     1       2.467   2.854  21.523  0.00  0.00    +0.000 C 
ENDBRANCH   1  27
TORSDOF 4
ENDMDL
MODEL 4
REMARK VINA RESULT:      -8.0      0.943      1.035
REMARK  Name = 
REMARK  6 active torsions:
REMARK  status: ('A' for Active; 'I' for Inactive)
REMARK    1  A    between atoms: C_1  and  C_2
REMARK    2  A    between atoms: C_2  and  C_3
REMARK    3  A    between atoms: C_2  and  N_4
REMARK    4  A    between atoms: C_6  and  C_7
REMARK    5  A    between atoms: C_18  and  C_19
REMARK    6  A    between atoms: N_22  and  C_23
REMARK                            x       y       z     vdW  Elec       q    Type
REMARK                         _______ _______ _______ _____ _____    ______ ____
ROOT
ATOM      1  N   UNL     1       2.526   4.887  19.915  0.00  0.00    +0.000 N 
ATOM      2  N   UNL     1       1.790   5.904  20.418  0.00  0.00    +0.000 NA
ATOM      3  C   UNL     1       2.231   7.004  19.791  0.00  0.00    +0.000 A 
ATOM      4  C   UNL     1       3.387   6.698  19.037  0.00  0.00    +0.000 A 
ATOM      5  C   UNL     1       3.445   5.317  18.984  0.00  0.00    +0.000 A 
ENDROOT
BRANCH   3   6
ATOM      6  C   UNL     1       1.448   8.239  19.744  0.00  0.00    +0.000 A 
ATOM      7  C   UNL     1       1.602   9.133  18.680  0.00  0.00    +0.000 A 
ATOM      8  N   UNL     1       1.185  10.427  18.649  0.00  0.00    +0.000 NA
ATOM      9  C   UNL     1       0.659  10.823  19.820  0.00  0.00    +0.000 A 
ATOM     10  N   UNL     1       0.336  12.120  20.121  0.00  0.00    +0.000 N 
ATOM     11  C   UNL     1      -0.039  12.211  21.439  0.00  0.00    +0.000 A 
ATOM     12  C   UNL     1      -0.058  10.930  21.932  0.00  0.00    +0.000 A 
ATOM     13  F   UNL     1      -0.347  10.607  23.161  0.00  0.00    +0.000 F 
ATOM     14  C   UNL     1       0.409  10.041  20.942  0.00  0.00    +0.000 A 
ATOM     15  C   UNL     1       0.736   8.678  20.874  0.00  0.00    +0.000 A 
ATOM     16  H   UNL     1       0.461  12.886  19.475  0.00  0.00    +0.000 HD
ENDBRANCH   3   6
BRANCH   5  17
ATOM     17  C   UNL     1       4.195   4.457  17.999  0.00  0.00    +0.000 C 
ATOM     18  C   UNL     1       5.476   3.864  18.580  0.00  0.00    +0.000 C 
ATOM     19  C   UNL     1       6.597   4.730  18.025  0.00  0.00    +0.000 C 
ATOM     20  N   UNL     1       6.145   5.214  16.711  0.00  0.00    +0.000 NA
ATOM     21  C   UNL     1       4.675   5.312  16.807  0.00  0.00    +0.000 C 
BRANCH  20  22
ATOM     22  C   UNL     1       6.530   4.272  15.642  0.00  0.00    +0.000 C 
ATOM     23  C   UNL     1       5.433   4.193  14.558  0.00  0.00    +0.000 C 
ATOM     24  O   UNL     1       6.428   4.418  13.518  0.00  0.00    +0.000 OA
ATOM     25  C   UNL     1       7.304   5.007  14.527  0.00  0.00    +0.000 C 
ENDBRANCH  20  22
ENDBRANCH   5  17
BRANCH   1  27
ATOM     26  C   UNL     1       2.191   3.383  21.850  0.00  0.00    +0.000 C 
ATOM     27  C   UNL     1       2.196   3.523  20.327  0.00  0.00    +0.000 C 
ATOM     28  C   UNL     1       0.866   3.043  19.738  0.00  0.00    +0.000 C 
ENDBRANCH   1  27
TORSDOF 4
ENDMDL
MODEL 5
REMARK VINA RESULT:      -8.0      1.812      2.382
REMARK  Name = 
REMARK  6 active torsions:
REMARK  status: ('A' for Active; 'I' for Inactive)
REMARK    1  A    between atoms: C_1  and  C_2
REMARK    2  A    between atoms: C_2  and  C_3
REMARK    3  A    between atoms: C_2  and  N_4
REMARK    4  A    between atoms: C_6  and  C_7
REMARK    5  A    between atoms: C_18  and  C_19
REMARK    6  A    between atoms: N_22  and  C_23
REMARK                            x       y       z     vdW  Elec       q    Type
REMARK                         _______ _______ _______ _____ _____    ______ ____
ROOT
ATOM      1  N   UNL     1       1.784   5.058  20.395  0.00  0.00    +0.000 N 
ATOM      2  N   UNL     1       1.229   6.142  20.982  0.00  0.00    +0.000 NA
ATOM      3  C   UNL     1       1.897   7.194  20.487  0.00  0.00    +0.000 A 
ATOM      4  C   UNL     1       3.009   6.748  19.737  0.00  0.00    +0.000 A 
ATOM      5  C   UNL     1       2.811   5.394  19.541  0.00  0.00    +0.000 A 
ENDROOT
BRANCH   3   6
ATOM      6  C   UNL     1       1.362   8.554  20.549  0.00  0.00    +0.000 A 
ATOM      7  C   UNL     1       1.164   9.180  21.782  0.00  0.00    +0.000 A 
ATOM      8  N   UNL     1       0.411  10.290  22.011  0.00  0.00    +0.000 NA
ATOM      9  C   UNL     1      -0.229  10.710  20.906  0.00  0.00    +0.000 A 
ATOM     10  N   UNL     1      -1.191  11.684  20.897  0.00  0.00    +0.000 N 
ATOM     11  C   UNL     1      -1.747  11.775  19.645  0.00  0.00    +0.000 A 
ATOM     12  C   UNL     1      -1.039  10.922  18.837  0.00  0.00    +0.000 A 
ATOM     13  F   UNL     1      -1.283  10.713  17.574  0.00  0.00    +0.000 F 
ATOM     14  C   UNL     1      -0.099  10.215  19.614  0.00  0.00    +0.000 A 
ATOM     15  C   UNL     1       0.795   9.152  19.409  0.00  0.00    +0.000 A 
ATOM     16  H   UNL     1      -1.491  12.174  21.727  0.00  0.00    +0.000 HD
ENDBRANCH   3   6
BRANCH   5  17
ATOM     17  C   UNL     1       3.432   4.506  18.492  0.00  0.00    +0.000 C 
ATOM     18  C   UNL     1       4.627   3.714  19.014  0.00  0.00    +0.000 C 
ATOM     19  C   UNL     1       5.849   4.457  18.497  0.00  0.00    +0.000 C 
ATOM     20  N   UNL     1       5.456   5.080  17.223  0.00  0.00    +0.000 NA
ATOM     21  C   UNL     1       4.013   5.366  17.348  0.00  0.00    +0.000 C 
BRANCH  20  22
ATOM     22  C   UNL     1       5.704   4.167  16.091  0.00  0.00    +0.000 C 
ATOM     23  C   UNL     1       5.298   4.825  14.754  0.00  0.00    +0.000 C 
ATOM     24  O   UNL     1       6.592   4.485  14.180  0.00  0.00    +0.000 OA
ATOM     25  C   UNL     1       7.129   4.371  15.533  0.00  0.00    +0.000 C 
ENDBRANCH  20  22
ENDBRANCH   5  17
BRANCH   1  27
ATOM     26  C   UNL     1       0.823   3.032  19.349  0.00  0.00    +0.000 C 
ATOM     27  C   UNL     1       1.186   3.747  20.652  0.00  0.00    +0.000 C 
ATOM     28  C   UNL     1       2.082   2.859  21.522  0.00  0.00    +0.000 C 
ENDBRANCH   1  27
TORSDOF 4
ENDMDL
MODEL 6
REMARK VINA RESULT:      -7.8      2.236      2.496
REMARK  Name = 
REMARK  6 active torsions:
REMARK  status: ('A' for Active; 'I' for Inactive)
REMARK    1  A    between atoms: C_1  and  C_2
REMARK    2  A    between atoms: C_2  and  C_3
REMARK    3  A    between atoms: C_2  and  N_4
REMARK    4  A    between atoms: C_6  and  C_7
REMARK    5  A    between atoms: C_18  and  C_19
REMARK    6  A    between atoms: N_22  and  C_23
REMARK                            x       y       z     vdW  Elec       q    Type
REMARK                         _______ _______ _______ _____ _____    ______ ____
ROOT
ATOM      1  N   UNL     1       2.889   5.889  18.861  0.00  0.00    +0.000 N 
ATOM      2  N   UNL     1       2.131   6.964  19.176  0.00  0.00    +0.000 NA
ATOM      3  C   UNL     1       2.537   7.938  18.349  0.00  0.00    +0.000 A 
ATOM      4  C   UNL     1       3.693   7.525  17.650  0.00  0.00    +0.000 A 
ATOM      5  C   UNL     1       3.788   6.161  17.854  0.00  0.00    +0.000 A 
ENDROOT
BRANCH   3   6
ATOM      6  C   UNL     1       1.720   9.123  18.084  0.00  0.00    +0.000 A 
ATOM      7  C   UNL     1       2.200  10.397  18.401  0.00  0.00    +0.000 A 
ATOM      8  N   UNL     1       1.461  11.535  18.496  0.00  0.00    +0.000 NA
ATOM      9  C   UNL     1       0.147  11.306  18.332  0.00  0.00    +0.000 A 
ATOM     10  N   UNL     1      -0.831  12.237  18.562  0.00  0.00    +0.000 N 
ATOM     11  C   UNL     1      -2.067  11.650  18.444  0.00  0.00    +0.000 A 
ATOM     12  C   UNL     1      -1.852  10.362  18.023  0.00  0.00    +0.000 A 
ATOM     13  F   UNL     1      -2.786   9.477  17.817  0.00  0.00    +0.000 F 
ATOM     14  C   UNL     1      -0.465  10.110  17.976  0.00  0.00    +0.000 A 
ATOM     15  C   UNL     1       0.358   8.995  17.759  0.00  0.00    +0.000 A 
ATOM     16  H   UNL     1      -0.638  13.180  18.867  0.00  0.00    +0.000 HD
ENDBRANCH   3   6
BRANCH   5  17
ATOM     17  C   UNL     1       4.552   5.150  17.036  0.00  0.00    +0.000 C 
ATOM     18  C   UNL     1       5.749   4.565  17.780  0.00  0.00    +0.000 C 
ATOM     19  C   UNL     1       6.959   5.297  17.219  0.00  0.00    +0.000 C 
ATOM     20  N   UNL     1       6.632   5.644  15.826  0.00  0.00    +0.000 NA
ATOM     21  C   UNL     1       5.168   5.831  15.795  0.00  0.00    +0.000 C 
BRANCH  20  22
ATOM     22  C   UNL     1       7.033   4.562  14.906  0.00  0.00    +0.000 C 
ATOM     23  C   UNL     1       5.843   4.117  14.029  0.00  0.00    +0.000 C 
ATOM     24  O   UNL     1       6.659   4.254  12.830  0.00  0.00    +0.000 OA
ATOM     25  C   UNL     1       7.543   5.149  13.572  0.00  0.00    +0.000 C 
ENDBRANCH  20  22
ENDBRANCH   5  17
BRANCH   1  27
ATOM     26  C   UNL     1       2.118   4.832  20.960  0.00  0.00    +0.000 C 
ATOM     27  C   UNL     1       2.600   4.618  19.525  0.00  0.00    +0.000 C 
ATOM     28  C   UNL     1       1.595   3.768  18.741  0.00  0.00    +0.000 C 
ENDBRANCH   1  27
TORSDOF 4
ENDMDL
MODEL 7
REMARK VINA RESULT:      -7.6      1.608      1.912
REMARK  Name = 
REMARK  6 active torsions:
REMARK  status: ('A' for Active; 'I' for Inactive)
REMARK    1  A    between atoms: C_1  and  C_2
REMARK    2  A    between atoms: C_2  and  C_3
REMARK    3  A    between atoms: C_2  and  N_4
REMARK    4  A    between atoms: C_6  and  C_7
REMARK    5  A    between atoms: C_18  and  C_19
REMARK    6  A    between atoms: N_22  and  C_23
REMARK                            x       y       z     vdW  Elec       q    Type
REMARK                         _______ _______ _______ _____ _____    ______ ____
ROOT
ATOM      1  N   UNL     1       2.486   4.429  19.801  0.00  0.00    +0.000 N 
ATOM      2  N   UNL     1       1.752   5.420  20.356  0.00  0.00    +0.000 NA
ATOM      3  C   UNL     1       2.451   6.543  20.137  0.00  0.00    +0.000 A 
ATOM      4  C   UNL     1       3.726   6.223  19.616  0.00  0.00    +0.000 A 
ATOM      5  C   UNL     1       3.655   4.894  19.240  0.00  0.00    +0.000 A 
ENDROOT
BRANCH   3   6
ATOM      6  C   UNL     1       1.838   7.869  20.216  0.00  0.00    +0.000 A 
ATOM      7  C   UNL     1       1.506   8.420  21.457  0.00  0.00    +0.000 A 
ATOM      8  N   UNL     1       0.676   9.476  21.673  0.00  0.00    +0.000 NA
ATOM      9  C   UNL     1       0.106   9.918  20.539  0.00  0.00    +0.000 A 
ATOM     10  N   UNL     1      -0.906  10.840  20.494  0.00  0.00    +0.000 N 
ATOM     11  C   UNL     1      -1.363  10.967  19.205  0.00  0.00    +0.000 A 
ATOM     12  C   UNL     1      -0.544  10.193  18.421  0.00  0.00    +0.000 A 
ATOM     13  F   UNL     1      -0.673  10.036  17.133  0.00  0.00    +0.000 F 
ATOM     14  C   UNL     1       0.368   9.497  19.240  0.00  0.00    +0.000 A 
ATOM     15  C   UNL     1       1.333   8.494  19.062  0.00  0.00    +0.000 A 
ATOM     16  H   UNL     1      -1.299  11.272  21.318  0.00  0.00    +0.000 HD
ENDBRANCH   3   6
BRANCH   5  17
ATOM     17  C   UNL     1       4.543   4.153  18.273  0.00  0.00    +0.000 C 
ATOM     18  C   UNL     1       5.991   4.633  18.308  0.00  0.00    +0.000 C 
ATOM     19  C   UNL     1       6.137   5.532  17.089  0.00  0.00    +0.000 C 
ATOM     20  N   UNL     1       5.207   5.017  16.072  0.00  0.00    +0.000 NA
ATOM     21  C   UNL     1       4.085   4.420  16.823  0.00  0.00    +0.000 C 
BRANCH  20  22
ATOM     22  C   UNL     1       5.861   3.999  15.227  0.00  0.00    +0.000 C 
ATOM     23  C   UNL     1       5.339   4.072  13.775  0.00  0.00    +0.000 C 
ATOM     24  O   UNL     1       6.706   4.107  13.273  0.00  0.00    +0.000 OA
ATOM     25  C   UNL     1       7.144   4.571  14.587  0.00  0.00    +0.000 C 
ENDBRANCH  20  22
ENDBRANCH   5  17
BRANCH   1  27
ATOM     26  C   UNL     1       1.318   2.701  21.131  0.00  0.00    +0.000 C 
ATOM     27  C   UNL     1       1.923   3.078  19.778  0.00  0.00    +0.000 C 
ATOM     28  C   UNL     1       0.893   2.897  18.658  0.00  0.00    +0.000 C 
ENDBRANCH   1  27
TORSDOF 4
ENDMDL
MODEL 8
REMARK VINA RESULT:      -7.6      2.153      2.553
REMARK  Name = 
REMARK  6 active torsions:
REMARK  status: ('A' for Active; 'I' for Inactive)
REMARK    1  A    between atoms: C_1  and  C_2
REMARK    2  A    between atoms: C_2  and  C_3
REMARK    3  A    between atoms: C_2  and  N_4
REMARK    4  A    between atoms: C_6  and  C_7
REMARK    5  A    between atoms: C_18  and  C_19
REMARK    6  A    between atoms: N_22  and  C_23
REMARK                            x       y       z     vdW  Elec       q    Type
REMARK                         _______ _______ _______ _____ _____    ______ ____
ROOT
ATOM      1  N   UNL     1       2.611   5.526  19.423  0.00  0.00    +0.000 N 
ATOM      2  N   UNL     1       1.910   6.588  19.881  0.00  0.00    +0.000 NA
ATOM      3  C   UNL     1       2.262   7.612  19.091  0.00  0.00    +0.000 A 
ATOM      4  C   UNL     1       3.340   7.231  18.261  0.00  0.00    +0.000 A 
ATOM      5  C   UNL     1       3.421   5.854  18.359  0.00  0.00    +0.000 A 
ENDROOT
BRANCH   3   6
ATOM      6  C   UNL     1       1.453   8.827  18.985  0.00  0.00    +0.000 A 
ATOM      7  C   UNL     1       1.291   9.666  20.091  0.00  0.00    +0.000 A 
ATOM      8  N   UNL     1       0.349  10.637  20.234  0.00  0.00    +0.000 NA
ATOM      9  C   UNL     1      -0.511  10.671  19.202  0.00  0.00    +0.000 A 
ATOM     10  N   UNL     1      -1.657  11.420  19.179  0.00  0.00    +0.000 N 
ATOM     11  C   UNL     1      -2.384  11.122  18.053  0.00  0.00    +0.000 A 
ATOM     12  C   UNL     1      -1.621  10.257  17.310  0.00  0.00    +0.000 A 
ATOM     13  F   UNL     1      -1.982   9.727  16.175  0.00  0.00    +0.000 F 
ATOM     14  C   UNL     1      -0.451   9.931  18.027  0.00  0.00    +0.000 A 
ATOM     15  C   UNL     1       0.619   9.036  17.873  0.00  0.00    +0.000 A 
ATOM     16  H   UNL     1      -1.943  12.020  19.939  0.00  0.00    +0.000 HD
ENDBRANCH   3   6
BRANCH   5  17
ATOM     17  C   UNL     1       4.084   4.892  17.406  0.00  0.00    +0.000 C 
ATOM     18  C   UNL     1       5.101   3.982  18.089  0.00  0.00    +0.000 C 
ATOM     19  C   UNL     1       6.457   4.583  17.752  0.00  0.00    +0.000 C 
ATOM     20  N   UNL     1       6.316   5.229  16.437  0.00  0.00    +0.000 NA
ATOM     21  C   UNL     1       4.909   5.670  16.358  0.00  0.00    +0.000 C 
BRANCH  20  22
ATOM     22  C   UNL     1       6.620   4.280  15.348  0.00  0.00    +0.000 C 
ATOM     23  C   UNL     1       5.485   4.262  14.301  0.00  0.00    +0.000 C 
ATOM     24  O   UNL     1       6.454   4.450  13.230  0.00  0.00    +0.000 OA
ATOM     25  C   UNL     1       7.391   4.988  14.213  0.00  0.00    +0.000 C 
ENDBRANCH  20  22
ENDBRANCH   5  17
BRANCH   1  27
ATOM     26  C   UNL     1       2.299   4.295  21.546  0.00  0.00    +0.000 C 
ATOM     27  C   UNL     1       2.353   4.215  20.020  0.00  0.00    +0.000 C 
ATOM     28  C   UNL     1       1.079   3.567  19.469  0.00  0.00    +0.000 C 
ENDBRANCH   1  27
TORSDOF 4
ENDMDL
MODEL 9
REMARK VINA RESULT:      -7.5      1.685      1.970
REMARK  Name = 
REMARK  6 active torsions:
REMARK  status: ('A' for Active; 'I' for Inactive)
REMARK    1  A    between atoms: C_1  and  C_2
REMARK    2  A    between atoms: C_2  and  C_3
REMARK    3  A    between atoms: C_2  and  N_4
REMARK    4  A    between atoms: C_6  and  C_7
REMARK    5  A    between atoms: C_18  and  C_19
REMARK    6  A    between atoms: N_22  and  C_23
REMARK                            x       y       z     vdW  Elec       q    Type
REMARK                         _______ _______ _______ _____ _____    ______ ____
ROOT
ATOM      1  N   UNL     1       2.815   4.121  18.747  0.00  0.00    +0.000 N 
ATOM      2  N   UNL     1       2.006   4.996  19.385  0.00  0.00    +0.000 NA
ATOM      3  C   UNL     1       2.768   6.074  19.623  0.00  0.00    +0.000 A 
ATOM      4  C   UNL     1       4.116   5.789  19.308  0.00  0.00    +0.000 A 
ATOM      5  C   UNL     1       4.091   4.612  18.584  0.00  0.00    +0.000 A 
ENDROOT
BRANCH   3   6
ATOM      6  C   UNL     1       2.190   7.383  19.927  0.00  0.00    +0.000 A 
ATOM      7  C   UNL     1       1.843   7.714  21.240  0.00  0.00    +0.000 A 
ATOM      8  N   UNL     1       1.038   8.741  21.626  0.00  0.00    +0.000 NA
ATOM      9  C   UNL     1       0.508   9.396  20.579  0.00  0.00    +0.000 A 
ATOM     10  N   UNL     1      -0.476  10.343  20.682  0.00  0.00    +0.000 N 
ATOM     11  C   UNL     1      -0.898  10.712  19.428  0.00  0.00    +0.000 A 
ATOM     12  C   UNL     1      -0.083  10.065  18.533  0.00  0.00    +0.000 A 
ATOM     13  F   UNL     1      -0.185  10.145  17.237  0.00  0.00    +0.000 F 
ATOM     14  C   UNL     1       0.789   9.205  19.232  0.00  0.00    +0.000 A 
ATOM     15  C   UNL     1       1.730   8.220  18.895  0.00  0.00    +0.000 A 
ATOM     16  H   UNL     1      -0.877  10.632  21.562  0.00  0.00    +0.000 HD
ENDBRANCH   3   6
BRANCH   5  17
ATOM     17  C   UNL     1       5.150   4.070  17.657  0.00  0.00    +0.000 C 
ATOM     18  C   UNL     1       6.518   4.709  17.876  0.00  0.00    +0.000 C 
ATOM     19  C   UNL     1       6.662   5.725  16.752  0.00  0.00    +0.000 C 
ATOM     20  N   UNL     1       5.899   5.199  15.608  0.00  0.00    +0.000 NA
ATOM     21  C   UNL     1       4.797   4.411  16.193  0.00  0.00    +0.000 C 
BRANCH  20  22
ATOM     22  C   UNL     1       6.749   4.344  14.757  0.00  0.00    +0.000 C 
ATOM     23  C   UNL     1       5.943   3.778  13.568  0.00  0.00    +0.000 C 
ATOM     24  O   UNL     1       6.974   4.226  12.641  0.00  0.00    +0.000 OA
ATOM     25  C   UNL     1       7.422   5.183  13.649  0.00  0.00    +0.000 C 
ENDBRANCH  20  22
ENDBRANCH   5  17
BRANCH   1  27
ATOM     26  C   UNL     1       3.138   1.677  18.541  0.00  0.00    +0.000 C 
ATOM     27  C   UNL     1       2.233   2.875  18.248  0.00  0.00    +0.000 C 
ATOM     28  C   UNL     1       0.823   2.631  18.797  0.00  0.00    +0.000 C 
ENDBRANCH   1  27
TORSDOF 4
ENDMDL
