MODEL 1
REMARK VINA RESULT:      -8.9      0.000      0.000
REMARK  Name = 
REMARK  7 active torsions:
REMARK  status: ('A' for Active; 'I' for Inactive)
REMARK    1  A    between atoms: C_1  and  C_2
REMARK    2  A    between atoms: C_2  and  C_3
REMARK    3  A    between atoms: C_3  and  C_4
REMARK    4  A    between atoms: C_4  and  C_5
REMARK    5  A    between atoms: C_13  and  C_14
REMARK    6  A    between atoms: C_14  and  C_16
REMARK    7  A    between atoms: C_21  and  O_22
REMARK                            x       y       z     vdW  Elec       q    Type
REMARK                         _______ _______ _______ _____ _____    ______ ____
ROOT
ATOM      1  C   UNL     1       3.724   6.717  17.731  0.00  0.00    +0.000 C 
ATOM      2  O   UNL     1       4.349   7.053  16.726  0.00  0.00    +0.000 OA
ENDROOT
BRANCH   1   3
ATOM      3  C   UNL     1       2.744   7.681  18.297  0.00  0.00    +0.000 A 
ATOM      4  C   UNL     1       2.230   8.753  17.559  0.00  0.00    +0.000 A 
ATOM      5  C   UNL     1       1.371   9.672  18.169  0.00  0.00    +0.000 A 
ATOM      6  C   UNL     1       0.980   9.510  19.508  0.00  0.00    +0.000 A 
ATOM      7  C   UNL     1       0.136  10.436  20.144  0.00  0.00    +0.000 A 
ATOM      8  C   UNL     1      -0.249  10.234  21.467  0.00  0.00    +0.000 A 
ATOM      9  C   UNL     1       0.186   9.121  22.174  0.00  0.00    +0.000 A 
ATOM     10  C   UNL     1       1.031   8.199  21.559  0.00  0.00    +0.000 A 
ATOM     11  C   UNL     1       1.443   8.386  20.233  0.00  0.00    +0.000 A 
ATOM     12  C   UNL     1       2.319   7.481  19.616  0.00  0.00    +0.000 A 
BRANCH   8  13
ATOM     13  O   UNL     1      -1.063  11.113  22.115  0.00  0.00    +0.000 OA
ATOM     14  H   UNL     1      -1.477  11.698  21.461  0.00  0.00    +0.000 HD
ENDBRANCH   8  13
ENDBRANCH   1   3
BRANCH   1  23
ATOM     15  C   UNL     1       5.117   5.011  18.933  0.00  0.00    +0.000 A 
ATOM     16  O   UNL     1       4.995   3.760  19.456  0.00  0.00    +0.000 OA
ATOM     17  C   UNL     1       3.736   3.329  19.190  0.00  0.00    +0.000 A 
ATOM     18  C   UNL     1       3.222   2.085  19.552  0.00  0.00    +0.000 A 
ATOM     19  C   UNL     1       1.903   1.815  19.177  0.00  0.00    +0.000 A 
ATOM     20  C   UNL     1       1.157   2.749  18.458  0.00  0.00    +0.000 A 
ATOM     21  C   UNL     1       1.708   3.987  18.097  0.00  0.00    +0.000 A 
ATOM     22  C   UNL     1       3.027   4.300  18.493  0.00  0.00    +0.000 A 
ATOM     23  C   UNL     1       3.919   5.418  18.358  0.00  0.00    +0.000 A 
BRANCH  15  24
ATOM     24  C   UNL     1       6.458   5.643  19.091  0.00  0.00    +0.000 C 
BRANCH  24  25
ATOM     25  C   UNL     1       7.237   5.775  17.780  0.00  0.00    +0.000 C 
BRANCH  25  27
ATOM     26  C   UNL     1       6.736   4.695  15.562  0.00  0.00    +0.000 C 
ATOM     27  C   UNL     1       7.279   4.481  16.967  0.00  0.00    +0.000 C 
ENDBRANCH  25  27
ENDBRANCH  24  25
ENDBRANCH  15  24
ENDBRANCH   1  23
TORSDOF 6
ENDMDL
MODEL 2
REMARK VINA RESULT:      -8.8      1.951      4.483
REMARK  Name = 
REMARK  7 active torsions:
REMARK  status: ('A' for Active; 'I' for Inactive)
REMARK    1  A    between atoms: C_1  and  C_2
REMARK    2  A    between atoms: C_2  and  C_3
REMARK    3  A    between atoms: C_3  and  C_4
REMARK    4  A    between atoms: C_4  and  C_5
REMARK    5  A    between atoms: C_13  and  C_14
REMARK    6  A    between atoms: C_14  and  C_16
REMARK    7  A    between atoms: C_21  and  O_22
REMARK                            x       y       z     vdW  Elec       q    Type
REMARK                         _______ _______ _______ _____ _____    ______ ____
ROOT
ATOM      1  C   UNL     1       4.437   4.166  17.175  0.00  0.00    +0.000 C 
ATOM      2  O   UNL     1       4.036   3.004  17.165  0.00  0.00    +0.000 OA
ENDROOT
BRANCH   1   3
ATOM      3  C   UNL     1       3.747   5.134  18.067  0.00  0.00    +0.000 A 
ATOM      4  C   UNL     1       3.496   4.868  19.416  0.00  0.00    +0.000 A 
ATOM      5  C   UNL     1       2.773   5.784  20.186  0.00  0.00    +0.000 A 
ATOM      6  C   UNL     1       2.329   6.996  19.632  0.00  0.00    +0.000 A 
ATOM      7  C   UNL     1       1.582   7.917  20.384  0.00  0.00    +0.000 A 
ATOM      8  C   UNL     1       1.176   9.119  19.809  0.00  0.00    +0.000 A 
ATOM      9  C   UNL     1       1.503   9.428  18.495  0.00  0.00    +0.000 A 
ATOM     10  C   UNL     1       2.236   8.519  17.735  0.00  0.00    +0.000 A 
ATOM     11  C   UNL     1       2.646   7.297  18.286  0.00  0.00    +0.000 A 
ATOM     12  C   UNL     1       3.355   6.361  17.519  0.00  0.00    +0.000 A 
BRANCH   8  13
ATOM     13  O   UNL     1       0.448  10.034  20.508  0.00  0.00    +0.000 OA
ATOM     14  H   UNL     1      -0.385   9.622  20.790  0.00  0.00    +0.000 HD
ENDBRANCH   8  13
ENDBRANCH   1   3
BRANCH   1  23
ATOM     15  C   UNL     1       6.585   5.412  16.811  0.00  0.00    +0.000 A 
ATOM     16  O   UNL     1       7.497   5.634  15.823  0.00  0.00    +0.000 OA
ATOM     17  C   UNL     1       7.047   5.006  14.706  0.00  0.00    +0.000 A 
ATOM     18  C   UNL     1       7.695   5.007  13.472  0.00  0.00    +0.000 A 
ATOM     19  C   UNL     1       7.069   4.314  12.433  0.00  0.00    +0.000 A 
ATOM     20  C   UNL     1       5.846   3.674  12.632  0.00  0.00    +0.000 A 
ATOM     21  C   UNL     1       5.213   3.704  13.883  0.00  0.00    +0.000 A 
ATOM     22  C   UNL     1       5.840   4.367  14.961  0.00  0.00    +0.000 A 
ATOM     23  C   UNL     1       5.556   4.600  16.350  0.00  0.00    +0.000 A 
BRANCH  15  24
ATOM     24  C   UNL     1       6.887   6.061  18.118  0.00  0.00    +0.000 C 
BRANCH  24  25
ATOM     25  C   UNL     1       8.041   7.066  18.057  0.00  0.00    +0.000 C 
BRANCH  25  27
ATOM     26  C   UNL     1       8.522   9.528  18.254  0.00  0.00    +0.000 C 
ATOM     27  C   UNL     1       7.599   8.474  17.661  0.00  0.00    +0.000 C 
ENDBRANCH  25  27
ENDBRANCH  24  25
ENDBRANCH  15  24
ENDBRANCH   1  23
TORSDOF 6
ENDMDL
MODEL 3
REMARK VINA RESULT:      -8.7      1.460      4.013
REMARK  Name = 
REMARK  7 active torsions:
REMARK  status: ('A' for Active; 'I' for Inactive)
REMARK    1  A    between atoms: C_1  and  C_2
REMARK    2  A    between atoms: C_2  and  C_3
REMARK    3  A    between atoms: C_3  and  C_4
REMARK    4  A    between atoms: C_4  and  C_5
REMARK    5  A    between atoms: C_13  and  C_14
REMARK    6  A    between atoms: C_14  and  C_16
REMARK    7  A    between atoms: C_21  and  O_22
REMARK                            x       y       z     vdW  Elec       q    Type
REMARK                         _______ _______ _______ _____ _____    ______ ____
ROOT
ATOM      1  C   UNL     1       3.095   5.982  19.392  0.00  0.00    +0.000 C 
ATOM      2  O   UNL     1       3.248   5.576  20.543  0.00  0.00    +0.000 OA
ENDROOT
BRANCH   1   3
ATOM      3  C   UNL     1       2.367   7.262  19.195  0.00  0.00    +0.000 A 
ATOM      4  C   UNL     1       2.317   7.919  17.962  0.00  0.00    +0.000 A 
ATOM      5  C   UNL     1       1.682   9.159  17.855  0.00  0.00    +0.000 A 
ATOM      6  C   UNL     1       1.050   9.740  18.967  0.00  0.00    +0.000 A 
ATOM      7  C   UNL     1       0.427  10.996  18.885  0.00  0.00    +0.000 A 
ATOM      8  C   UNL     1      -0.208  11.533  20.002  0.00  0.00    +0.000 A 
ATOM      9  C   UNL     1      -0.241  10.841  21.206  0.00  0.00    +0.000 A 
ATOM     10  C   UNL     1       0.381   9.599  21.304  0.00  0.00    +0.000 A 
ATOM     11  C   UNL     1       1.038   9.042  20.198  0.00  0.00    +0.000 A 
ATOM     12  C   UNL     1       1.695   7.807  20.297  0.00  0.00    +0.000 A 
BRANCH   8  13
ATOM     13  O   UNL     1      -0.819  12.750  19.959  0.00  0.00    +0.000 OA
ATOM     14  H   UNL     1      -0.531  13.218  19.159  0.00  0.00    +0.000 HD
ENDBRANCH   8  13
ENDBRANCH   1   3
BRANCH   1  23
ATOM     15  C   UNL     1       2.912   4.233  17.602  0.00  0.00    +0.000 A 
ATOM     16  O   UNL     1       3.633   3.746  16.554  0.00  0.00    +0.000 OA
ATOM     17  C   UNL     1       4.818   4.408  16.534  0.00  0.00    +0.000 A 
ATOM     18  C   UNL     1       5.843   4.188  15.615  0.00  0.00    +0.000 A 
ATOM     19  C   UNL     1       6.998   4.960  15.764  0.00  0.00    +0.000 A 
ATOM     20  C   UNL     1       7.111   5.889  16.798  0.00  0.00    +0.000 A 
ATOM     21  C   UNL     1       6.067   6.077  17.715  0.00  0.00    +0.000 A 
ATOM     22  C   UNL     1       4.874   5.335  17.569  0.00  0.00    +0.000 A 
ATOM     23  C   UNL     1       3.610   5.248  18.245  0.00  0.00    +0.000 A 
BRANCH  15  24
ATOM     24  C   UNL     1       1.581   3.595  17.814  0.00  0.00    +0.000 C 
BRANCH  24  25
ATOM     25  C   UNL     1       1.554   2.593  18.972  0.00  0.00    +0.000 C 
BRANCH  25  27
ATOM     26  C   UNL     1       1.479   2.717  21.484  0.00  0.00    +0.000 C 
ATOM     27  C   UNL     1       0.776   3.094  20.189  0.00  0.00    +0.000 C 
ENDBRANCH  25  27
ENDBRANCH  24  25
ENDBRANCH  15  24
ENDBRANCH   1  23
TORSDOF 6
ENDMDL
MODEL 4
REMARK VINA RESULT:      -8.4      2.021      4.143
REMARK  Name = 
REMARK  7 active torsions:
REMARK  status: ('A' for Active; 'I' for Inactive)
REMARK    1  A    between atoms: C_1  and  C_2
REMARK    2  A    between atoms: C_2  and  C_3
REMARK    3  A    between atoms: C_3  and  C_4
REMARK    4  A    between atoms: C_4  and  C_5
REMARK    5  A    between atoms: C_13  and  C_14
REMARK    6  A    between atoms: C_14  and  C_16
REMARK    7  A    between atoms: C_21  and  O_22
REMARK                            x       y       z     vdW  Elec       q    Type
REMARK                         _______ _______ _______ _____ _____    ______ ____
ROOT
ATOM      1  C   UNL     1       4.758   4.891  17.487  0.00  0.00    +0.000 C 
ATOM      2  O   UNL     1       4.595   3.804  18.038  0.00  0.00    +0.000 OA
ENDROOT
BRANCH   1   3
ATOM      3  C   UNL     1       3.865   6.012  17.879  0.00  0.00    +0.000 A 
ATOM      4  C   UNL     1       3.673   7.140  17.074  0.00  0.00    +0.000 A 
ATOM      5  C   UNL     1       2.882   8.198  17.530  0.00  0.00    +0.000 A 
ATOM      6  C   UNL     1       2.236   8.126  18.776  0.00  0.00    +0.000 A 
ATOM      7  C   UNL     1       1.456   9.189  19.260  0.00  0.00    +0.000 A 
ATOM      8  C   UNL     1       0.813   9.076  20.490  0.00  0.00    +0.000 A 
ATOM      9  C   UNL     1       0.926   7.920  21.252  0.00  0.00    +0.000 A 
ATOM     10  C   UNL     1       1.704   6.861  20.787  0.00  0.00    +0.000 A 
ATOM     11  C   UNL     1       2.372   6.955  19.558  0.00  0.00    +0.000 A 
ATOM     12  C   UNL     1       3.184   5.908  19.098  0.00  0.00    +0.000 A 
BRANCH   8  13
ATOM     13  O   UNL     1       0.051  10.088  20.993  0.00  0.00    +0.000 OA
ATOM     14  H   UNL     1      -0.760  10.161  20.466  0.00  0.00    +0.000 HD
ENDBRANCH   8  13
ENDBRANCH   1   3
BRANCH   1  23
ATOM     15  C   UNL     1       6.930   5.863  16.690  0.00  0.00    +0.000 A 
ATOM     16  O   UNL     1       7.722   5.855  15.582  0.00  0.00    +0.000 OA
ATOM     17  C   UNL     1       7.086   5.121  14.633  0.00  0.00    +0.000 A 
ATOM     18  C   UNL     1       7.568   4.884  13.347  0.00  0.00    +0.000 A 
ATOM     19  C   UNL     1       6.763   4.113  12.505  0.00  0.00    +0.000 A 
ATOM     20  C   UNL     1       5.530   3.627  12.940  0.00  0.00    +0.000 A 
ATOM     21  C   UNL     1       5.067   3.894  14.237  0.00  0.00    +0.000 A 
ATOM     22  C   UNL     1       5.876   4.642  15.121  0.00  0.00    +0.000 A 
ATOM     23  C   UNL     1       5.792   5.095  16.481  0.00  0.00    +0.000 A 
BRANCH  15  24
ATOM     24  C   UNL     1       7.446   6.660  17.839  0.00  0.00    +0.000 C 
BRANCH  24  25
ATOM     25  C   UNL     1       7.674   8.139  17.512  0.00  0.00    +0.000 C 
BRANCH  25  27
ATOM     26  C   UNL     1       8.848  10.283  18.110  0.00  0.00    +0.000 C 
ATOM     27  C   UNL     1       8.517   8.868  18.558  0.00  0.00    +0.000 C 
ENDBRANCH  25  27
ENDBRANCH  24  25
ENDBRANCH  15  24
ENDBRANCH   1  23
TORSDOF 6
ENDMDL
MODEL 5
REMARK VINA RESULT:      -8.4      1.332      3.767
REMARK  Name = 
REMARK  7 active torsions:
REMARK  status: ('A' for Active; 'I' for Inactive)
REMARK    1  A    between atoms: C_1  and  C_2
REMARK    2  A    between atoms: C_2  and  C_3
REMARK    3  A    between atoms: C_3  and  C_4
REMARK    4  A    between atoms: C_4  and  C_5
REMARK    5  A    between atoms: C_13  and  C_14
REMARK    6  A    between atoms: C_14  and  C_16
REMARK    7  A    between atoms: C_21  and  O_22
REMARK                            x       y       z     vdW  Elec       q    Type
REMARK                         _______ _______ _______ _____ _____    ______ ____
ROOT
ATOM      1  C   UNL     1       2.685   5.742  18.186  0.00  0.00    +0.000 C 
ATOM      2  O   UNL     1       1.951   5.000  17.534  0.00  0.00    +0.000 OA
ENDROOT
BRANCH   1   3
ATOM      3  C   UNL     1       2.135   7.047  18.635  0.00  0.00    +0.000 A 
ATOM      4  C   UNL     1       1.941   8.123  17.762  0.00  0.00    +0.000 A 
ATOM      5  C   UNL     1       1.493   9.351  18.256  0.00  0.00    +0.000 A 
ATOM      6  C   UNL     1       1.192   9.511  19.619  0.00  0.00    +0.000 A 
ATOM      7  C   UNL     1       0.763  10.744  20.137  0.00  0.00    +0.000 A 
ATOM      8  C   UNL     1       0.453  10.861  21.489  0.00  0.00    +0.000 A 
ATOM      9  C   UNL     1       0.556   9.770  22.343  0.00  0.00    +0.000 A 
ATOM     10  C   UNL     1       0.989   8.543  21.844  0.00  0.00    +0.000 A 
ATOM     11  C   UNL     1       1.320   8.402  20.489  0.00  0.00    +0.000 A 
ATOM     12  C   UNL     1       1.788   7.180  19.985  0.00  0.00    +0.000 A 
BRANCH   8  13
ATOM     13  O   UNL     1       0.038  12.042  22.027  0.00  0.00    +0.000 OA
ATOM     14  H   UNL     1       0.639  12.747  21.737  0.00  0.00    +0.000 HD
ENDBRANCH   8  13
ENDBRANCH   1   3
BRANCH   1  23
ATOM     15  C   UNL     1       4.379   4.270  19.309  0.00  0.00    +0.000 A 
ATOM     16  O   UNL     1       5.731   4.160  19.436  0.00  0.00    +0.000 OA
ATOM     17  C   UNL     1       6.288   5.205  18.772  0.00  0.00    +0.000 A 
ATOM     18  C   UNL     1       7.656   5.456  18.678  0.00  0.00    +0.000 A 
ATOM     19  C   UNL     1       8.039   6.593  17.961  0.00  0.00    +0.000 A 
ATOM     20  C   UNL     1       7.085   7.435  17.390  0.00  0.00    +0.000 A 
ATOM     21  C   UNL     1       5.715   7.162  17.515  0.00  0.00    +0.000 A 
ATOM     22  C   UNL     1       5.300   6.001  18.205  0.00  0.00    +0.000 A 
ATOM     23  C   UNL     1       4.051   5.367  18.523  0.00  0.00    +0.000 A 
BRANCH  15  24
ATOM     24  C   UNL     1       3.583   3.224  20.012  0.00  0.00    +0.000 C 
BRANCH  24  25
ATOM     25  C   UNL     1       2.966   2.183  19.073  0.00  0.00    +0.000 C 
BRANCH  25  27
ATOM     26  C   UNL     1       0.906   3.077  20.208  0.00  0.00    +0.000 C 
ATOM     27  C   UNL     1       1.452   2.049  19.229  0.00  0.00    +0.000 C 
ENDBRANCH  25  27
ENDBRANCH  24  25
ENDBRANCH  15  24
ENDBRANCH   1  23
TORSDOF 6
ENDMDL
MODEL 6
REMARK VINA RESULT:      -8.3      0.741      1.629
REMARK  Name = 
REMARK  7 active torsions:
REMARK  status: ('A' for Active; 'I' for Inactive)
REMARK    1  A    between atoms: C_1  and  C_2
REMARK    2  A    between atoms: C_2  and  C_3
REMARK    3  A    between atoms: C_3  and  C_4
REMARK    4  A    between atoms: C_4  and  C_5
REMARK    5  A    between atoms: C_13  and  C_14
REMARK    6  A    between atoms: C_14  and  C_16
REMARK    7  A    between atoms: C_21  and  O_22
REMARK                            x       y       z     vdW  Elec       q    Type
REMARK                         _______ _______ _______ _____ _____    ______ ____
ROOT
ATOM      1  C   UNL     1       3.453   6.775  17.947  0.00  0.00    +0.000 C 
ATOM      2  O   UNL     1       3.945   7.299  16.949  0.00  0.00    +0.000 OA
ENDROOT
BRANCH   1   3
ATOM      3  C   UNL     1       2.549   7.599  18.792  0.00  0.00    +0.000 A 
ATOM      4  C   UNL     1       2.235   7.259  20.112  0.00  0.00    +0.000 A 
ATOM      5  C   UNL     1       1.319   8.030  20.833  0.00  0.00    +0.000 A 
ATOM      6  C   UNL     1       0.737   9.174  20.262  0.00  0.00    +0.000 A 
ATOM      7  C   UNL     1      -0.203   9.947  20.963  0.00  0.00    +0.000 A 
ATOM      8  C   UNL     1      -0.744  11.087  20.374  0.00  0.00    +0.000 A 
ATOM      9  C   UNL     1      -0.365  11.481  19.098  0.00  0.00    +0.000 A 
ATOM     10  C   UNL     1       0.560  10.717  18.387  0.00  0.00    +0.000 A 
ATOM     11  C   UNL     1       1.110   9.558  18.952  0.00  0.00    +0.000 A 
ATOM     12  C   UNL     1       2.016   8.766  18.233  0.00  0.00    +0.000 A 
BRANCH   8  13
ATOM     13  O   UNL     1      -1.661  11.859  21.023  0.00  0.00    +0.000 OA
ATOM     14  H   UNL     1      -2.331  11.281  21.422  0.00  0.00    +0.000 HD
ENDBRANCH   8  13
ENDBRANCH   1   3
BRANCH   1  23
ATOM     15  C   UNL     1       5.006   4.895  18.540  0.00  0.00    +0.000 A 
ATOM     16  O   UNL     1       4.953   3.575  18.871  0.00  0.00    +0.000 OA
ATOM     17  C   UNL     1       3.651   3.194  18.811  0.00  0.00    +0.000 A 
ATOM     18  C   UNL     1       3.181   1.907  19.071  0.00  0.00    +0.000 A 
ATOM     19  C   UNL     1       1.805   1.703  18.945  0.00  0.00    +0.000 A 
ATOM     20  C   UNL     1       0.959   2.742  18.558  0.00  0.00    +0.000 A 
ATOM     21  C   UNL     1       1.464   4.022  18.291  0.00  0.00    +0.000 A 
ATOM     22  C   UNL     1       2.847   4.266  18.444  0.00  0.00    +0.000 A 
ATOM     23  C   UNL     1       3.730   5.391  18.304  0.00  0.00    +0.000 A 
BRANCH  15  24
ATOM     24  C   UNL     1       6.371   5.493  18.510  0.00  0.00    +0.000 C 
BRANCH  24  25
ATOM     25  C   UNL     1       7.274   4.918  17.415  0.00  0.00    +0.000 C 
BRANCH  25  27
ATOM     26  C   UNL     1       6.299   4.035  15.269  0.00  0.00    +0.000 C 
ATOM     27  C   UNL     1       6.810   5.267  16.001  0.00  0.00    +0.000 C 
ENDBRANCH  25  27
ENDBRANCH  24  25
ENDBRANCH  15  24
ENDBRANCH   1  23
TORSDOF 6
ENDMDL
MODEL 7
REMARK VINA RESULT:      -8.3      2.137      7.285
REMARK  Name = 
REMARK  7 active torsions:
REMARK  status: ('A' for Active; 'I' for Inactive)
REMARK    1  A    between atoms: C_1  and  C_2
REMARK    2  A    between atoms: C_2  and  C_3
REMARK    3  A    between atoms: C_3  and  C_4
REMARK    4  A    between atoms: C_4  and  C_5
REMARK    5  A    between atoms: C_13  and  C_14
REMARK    6  A    between atoms: C_14  and  C_16
REMARK    7  A    between atoms: C_21  and  O_22
REMARK                            x       y       z     vdW  Elec       q    Type
REMARK                         _______ _______ _______ _____ _____    ______ ____
ROOT
ATOM      1  C   UNL     1       4.358   4.026  19.184  0.00  0.00    +0.000 C 
ATOM      2  O   UNL     1       4.462   2.956  19.782  0.00  0.00    +0.000 OA
ENDROOT
BRANCH   1   3
ATOM      3  C   UNL     1       5.243   4.259  18.013  0.00  0.00    +0.000 A 
ATOM      4  C   UNL     1       6.500   4.861  18.127  0.00  0.00    +0.000 A 
ATOM      5  C   UNL     1       7.255   5.125  16.981  0.00  0.00    +0.000 A 
ATOM      6  C   UNL     1       6.786   4.751  15.710  0.00  0.00    +0.000 A 
ATOM      7  C   UNL     1       7.521   5.028  14.545  0.00  0.00    +0.000 A 
ATOM      8  C   UNL     1       7.036   4.625  13.304  0.00  0.00    +0.000 A 
ATOM      9  C   UNL     1       5.831   3.944  13.195  0.00  0.00    +0.000 A 
ATOM     10  C   UNL     1       5.087   3.670  14.342  0.00  0.00    +0.000 A 
ATOM     11  C   UNL     1       5.547   4.077  15.602  0.00  0.00    +0.000 A 
ATOM     12  C   UNL     1       4.790   3.835  16.758  0.00  0.00    +0.000 A 
BRANCH   8  13
ATOM     13  O   UNL     1       7.720   4.880  12.154  0.00  0.00    +0.000 OA
ATOM     14  H   UNL     1       8.426   5.519  12.344  0.00  0.00    +0.000 HD
ENDBRANCH   8  13
ENDBRANCH   1   3
BRANCH   1  23
ATOM     15  C   UNL     1       2.542   4.906  20.675  0.00  0.00    +0.000 A 
ATOM     16  O   UNL     1       1.777   6.023  20.826  0.00  0.00    +0.000 OA
ATOM     17  C   UNL     1       2.102   6.875  19.819  0.00  0.00    +0.000 A 
ATOM     18  C   UNL     1       1.528   8.129  19.616  0.00  0.00    +0.000 A 
ATOM     19  C   UNL     1       1.983   8.858  18.514  0.00  0.00    +0.000 A 
ATOM     20  C   UNL     1       2.952   8.334  17.659  0.00  0.00    +0.000 A 
ATOM     21  C   UNL     1       3.500   7.063  17.883  0.00  0.00    +0.000 A 
ATOM     22  C   UNL     1       3.084   6.318  19.009  0.00  0.00    +0.000 A 
ATOM     23  C   UNL     1       3.400   5.044  19.592  0.00  0.00    +0.000 A 
BRANCH  15  24
ATOM     24  C   UNL     1       2.299   3.826  21.673  0.00  0.00    +0.000 C 
BRANCH  24  25
ATOM     25  C   UNL     1       1.438   2.676  21.143  0.00  0.00    +0.000 C 
BRANCH  25  27
ATOM     26  C   UNL     1       1.091   2.217  18.693  0.00  0.00    +0.000 C 
ATOM     27  C   UNL     1       0.643   3.043  19.889  0.00  0.00    +0.000 C 
ENDBRANCH  25  27
ENDBRANCH  24  25
ENDBRANCH  15  24
ENDBRANCH   1  23
TORSDOF 6
ENDMDL
MODEL 8
REMARK VINA RESULT:      -8.3      1.442      4.098
REMARK  Name = 
REMARK  7 active torsions:
REMARK  status: ('A' for Active; 'I' for Inactive)
REMARK    1  A    between atoms: C_1  and  C_2
REMARK    2  A    between atoms: C_2  and  C_3
REMARK    3  A    between atoms: C_3  and  C_4
REMARK    4  A    between atoms: C_4  and  C_5
REMARK    5  A    between atoms: C_13  and  C_14
REMARK    6  A    between atoms: C_14  and  C_16
REMARK    7  A    between atoms: C_21  and  O_22
REMARK                            x       y       z     vdW  Elec       q    Type
REMARK                         _______ _______ _______ _____ _____    ______ ____
ROOT
ATOM      1  C   UNL     1       2.521   5.581  18.374  0.00  0.00    +0.000 C 
ATOM      2  O   UNL     1       1.709   4.984  17.668  0.00  0.00    +0.000 OA
ENDROOT
BRANCH   1   3
ATOM      3  C   UNL     1       2.057   6.795  19.095  0.00  0.00    +0.000 A 
ATOM      4  C   UNL     1       1.686   6.774  20.443  0.00  0.00    +0.000 A 
ATOM      5  C   UNL     1       1.184   7.931  21.047  0.00  0.00    +0.000 A 
ATOM      6  C   UNL     1       1.087   9.133  20.327  0.00  0.00    +0.000 A 
ATOM      7  C   UNL     1       0.564  10.299  20.910  0.00  0.00    +0.000 A 
ATOM      8  C   UNL     1       0.502  11.479  20.174  0.00  0.00    +0.000 A 
ATOM      9  C   UNL     1       0.957  11.526  18.862  0.00  0.00    +0.000 A 
ATOM     10  C   UNL     1       1.470  10.375  18.268  0.00  0.00    +0.000 A 
ATOM     11  C   UNL     1       1.531   9.171  18.983  0.00  0.00    +0.000 A 
ATOM     12  C   UNL     1       2.015   8.000  18.383  0.00  0.00    +0.000 A 
BRANCH   8  13
ATOM     13  O   UNL     1      -0.002  12.627  20.706  0.00  0.00    +0.000 OA
ATOM     14  H   UNL     1      -0.140  13.269  19.992  0.00  0.00    +0.000 HD
ENDBRANCH   8  13
ENDBRANCH   1   3
BRANCH   1  23
ATOM     15  C   UNL     1       4.254   3.926  19.120  0.00  0.00    +0.000 A 
ATOM     16  O   UNL     1       5.606   3.760  19.089  0.00  0.00    +0.000 OA
ATOM     17  C   UNL     1       6.137   4.864  18.505  0.00  0.00    +0.000 A 
ATOM     18  C   UNL     1       7.498   5.083  18.299  0.00  0.00    +0.000 A 
ATOM     19  C   UNL     1       7.856   6.290  17.693  0.00  0.00    +0.000 A 
ATOM     20  C   UNL     1       6.887   7.227  17.335  0.00  0.00    +0.000 A 
ATOM     21  C   UNL     1       5.527   6.982  17.568  0.00  0.00    +0.000 A 
ATOM     22  C   UNL     1       5.133   5.756  18.148  0.00  0.00    +0.000 A 
ATOM     23  C   UNL     1       3.896   5.125  18.516  0.00  0.00    +0.000 A 
BRANCH  15  24
ATOM     24  C   UNL     1       3.488   2.824  19.768  0.00  0.00    +0.000 C 
BRANCH  24  25
ATOM     25  C   UNL     1       2.803   3.232  21.075  0.00  0.00    +0.000 C 
BRANCH  25  27
ATOM     26  C   UNL     1       0.816   2.556  19.686  0.00  0.00    +0.000 C 
ATOM     27  C   UNL     1       1.282   3.091  21.032  0.00  0.00    +0.000 C 
ENDBRANCH  25  27
ENDBRANCH  24  25
ENDBRANCH  15  24
ENDBRANCH   1  23
TORSDOF 6
ENDMDL
MODEL 9
REMARK VINA RESULT:      -8.3      1.077      1.371
REMARK  Name = 
REMARK  7 active torsions:
REMARK  status: ('A' for Active; 'I' for Inactive)
REMARK    1  A    between atoms: C_1  and  C_2
REMARK    2  A    between atoms: C_2  and  C_3
REMARK    3  A    between atoms: C_3  and  C_4
REMARK    4  A    between atoms: C_4  and  C_5
REMARK    5  A    between atoms: C_13  and  C_14
REMARK    6  A    between atoms: C_14  and  C_16
REMARK    7  A    between atoms: C_21  and  O_22
REMARK                            x       y       z     vdW  Elec       q    Type
REMARK                         _______ _______ _______ _____ _____    ______ ____
ROOT
ATOM      1  C   UNL     1       3.612   6.359  17.852  0.00  0.00    +0.000 C 
ATOM      2  O   UNL     1       4.129   6.507  16.746  0.00  0.00    +0.000 OA
ENDROOT
BRANCH   1   3
ATOM      3  C   UNL     1       2.711   7.432  18.349  0.00  0.00    +0.000 A 
ATOM      4  C   UNL     1       2.230   8.453  17.524  0.00  0.00    +0.000 A 
ATOM      5  C   UNL     1       1.449   9.478  18.064  0.00  0.00    +0.000 A 
ATOM      6  C   UNL     1       1.101   9.474  19.425  0.00  0.00    +0.000 A 
ATOM      7  C   UNL     1       0.335  10.508  19.990  0.00  0.00    +0.000 A 
ATOM      8  C   UNL     1      -0.009  10.461  21.339  0.00  0.00    +0.000 A 
ATOM      9  C   UNL     1       0.388   9.400  22.141  0.00  0.00    +0.000 A 
ATOM     10  C   UNL     1       1.155   8.372  21.596  0.00  0.00    +0.000 A 
ATOM     11  C   UNL     1       1.527   8.402  20.244  0.00  0.00    +0.000 A 
ATOM     12  C   UNL     1       2.326   7.389  19.694  0.00  0.00    +0.000 A 
BRANCH   8  13
ATOM     13  O   UNL     1      -0.747  11.448  21.921  0.00  0.00    +0.000 OA
ATOM     14  H   UNL     1      -0.810  12.196  21.306  0.00  0.00    +0.000 HD
ENDBRANCH   8  13
ENDBRANCH   1   3
BRANCH   1  23
ATOM     15  C   UNL     1       5.090   4.537  18.744  0.00  0.00    +0.000 A 
ATOM     16  O   UNL     1       5.023   3.473  19.592  0.00  0.00    +0.000 OA
ATOM     17  C   UNL     1       3.742   3.386  20.033  0.00  0.00    +0.000 A 
ATOM     18  C   UNL     1       3.263   2.416  20.912  0.00  0.00    +0.000 A 
ATOM     19  C   UNL     1       1.907   2.481  21.242  0.00  0.00    +0.000 A 
ATOM     20  C   UNL     1       1.082   3.464  20.694  0.00  0.00    +0.000 A 
ATOM     21  C   UNL     1       1.592   4.417  19.802  0.00  0.00    +0.000 A 
ATOM     22  C   UNL     1       2.967   4.397  19.477  0.00  0.00    +0.000 A 
ATOM     23  C   UNL     1       3.858   5.175  18.663  0.00  0.00    +0.000 A 
BRANCH  15  24
ATOM     24  C   UNL     1       6.422   4.774  18.118  0.00  0.00    +0.000 C 
BRANCH  24  25
ATOM     25  C   UNL     1       7.111   6.055  18.598  0.00  0.00    +0.000 C 
BRANCH  25  27
ATOM     26  C   UNL     1       8.111   8.284  17.997  0.00  0.00    +0.000 C 
ATOM     27  C   UNL     1       7.403   7.045  17.471  0.00  0.00    +0.000 C 
ENDBRANCH  25  27
ENDBRANCH  24  25
ENDBRANCH  15  24
ENDBRANCH   1  23
TORSDOF 6
ENDMDL
