MODEL 1
REMARK VINA RESULT:      -7.1      0.000      0.000
REMARK  Name = 
REMARK  5 active torsions:
REMARK  status: ('A' for Active; 'I' for Inactive)
REMARK    1  A    between atoms: C_1  and  N_2
REMARK    2  A    between atoms: C_4  and  N_5
REMARK    3  A    between atoms: C_8  and  C_9
REMARK    4  A    between atoms: N_14  and  C_15
REMARK    5  A    between atoms: C_15  and  C_16
REMARK                            x       y       z     vdW  Elec       q    Type
REMARK                         _______ _______ _______ _____ _____    ______ ____
ROOT
ATOM      1  C   UNL     1       4.577   3.968  16.685  0.00  0.00    +0.000 C 
ATOM      2  O   UNL     1       4.416   2.824  17.110  0.00  0.00    +0.000 OA
ATOM      3  N   UNL     1       3.942   5.057  17.296  0.00  0.00    +0.000 N 
ATOM      4  C   UNL     1       3.083   4.810  18.458  0.00  0.00    +0.000 C 
ATOM      5  C   UNL     1       3.340   5.835  19.582  0.00  0.00    +0.000 C 
ATOM      6  N   UNL     1       3.276   7.257  19.165  0.00  0.00    +0.000 NA
ATOM      7  C   UNL     1       4.161   7.444  17.996  0.00  0.00    +0.000 C 
ATOM      8  C   UNL     1       3.937   6.453  16.835  0.00  0.00    +0.000 C 
ENDROOT
BRANCH   1  13
ATOM      9  C   UNL     1       6.499   3.616  12.230  0.00  0.00    +0.000 C 
ATOM     10  N   UNL     1       6.352   4.076  13.591  0.00  0.00    +0.000 N 
ATOM     11  C   UNL     1       7.260   4.782  14.315  0.00  0.00    +0.000 A 
ATOM     12  C   UNL     1       6.770   4.786  15.600  0.00  0.00    +0.000 A 
ATOM     13  C   UNL     1       5.489   4.176  15.543  0.00  0.00    +0.000 A 
ATOM     14  N   UNL     1       5.265   3.717  14.293  0.00  0.00    +0.000 NA
BRANCH  12  15
ATOM     15  N   UNL     1       7.446   5.316  16.734  0.00  0.00    +0.000 N 
ATOM     16  O   UNL     1       7.482   6.549  16.822  0.00  0.00    +0.000 OA
ATOM     17  O   UNL     1       7.858   4.499  17.573  0.00  0.00    +0.000 OA
ENDBRANCH  12  15
ENDBRANCH   1  13
BRANCH   6  18
ATOM     18  C   UNL     1       1.908   7.718  18.878  0.00  0.00    +0.000 C 
BRANCH  18  19
ATOM     19  C   UNL     1       1.355   8.643  19.944  0.00  0.00    +0.000 A 
ATOM     20  C   UNL     1       1.164   8.182  21.269  0.00  0.00    +0.000 A 
ATOM     21  C   UNL     1       0.617   9.013  22.251  0.00  0.00    +0.000 A 
ATOM     22  C   UNL     1       0.289  10.300  21.890  0.00  0.00    +0.000 A 
ATOM     23  C   UNL     1       0.489  10.766  20.612  0.00  0.00    +0.000 A 
ATOM     24  C   UNL     1       1.016   9.967  19.620  0.00  0.00    +0.000 A 
ATOM     25  O   UNL     1       0.109  12.064  20.466  0.00  0.00    +0.000 OA
ATOM     26  C   UNL     1      -0.315  12.373  21.810  0.00  0.00    +0.000 C 
ATOM     27  O   UNL     1      -0.252  11.244  22.706  0.00  0.00    +0.000 OA
ENDBRANCH  18  19
ENDBRANCH   6  18
TORSDOF 4
ENDMDL
MODEL 2
REMARK VINA RESULT:      -7.0      2.646      8.750
REMARK  Name = 
REMARK  5 active torsions:
REMARK  status: ('A' for Active; 'I' for Inactive)
REMARK    1  A    between atoms: C_1  and  N_2
REMARK    2  A    between atoms: C_4  and  N_5
REMARK    3  A    between atoms: C_8  and  C_9
REMARK    4  A    between atoms: N_14  and  C_15
REMARK    5  A    between atoms: C_15  and  C_16
REMARK                            x       y       z     vdW  Elec       q    Type
REMARK                         _______ _______ _______ _____ _____    ______ ____
ROOT
ATOM      1  C   UNL     1       0.458   9.569  20.622  0.00  0.00    +0.000 C 
ATOM      2  O   UNL     1       0.149   9.600  21.814  0.00  0.00    +0.000 OA
ATOM      3  N   UNL     1       1.326   8.584  20.131  0.00  0.00    +0.000 N 
ATOM      4  C   UNL     1       1.857   7.585  21.062  0.00  0.00    +0.000 C 
ATOM      5  C   UNL     1       1.797   6.163  20.466  0.00  0.00    +0.000 C 
ATOM      6  N   UNL     1       2.408   6.017  19.123  0.00  0.00    +0.000 NA
ATOM      7  C   UNL     1       1.833   7.046  18.231  0.00  0.00    +0.000 C 
ATOM      8  C   UNL     1       1.881   8.489  18.772  0.00  0.00    +0.000 C 
ENDROOT
BRANCH   1  13
ATOM      9  C   UNL     1      -2.385  11.518  17.190  0.00  0.00    +0.000 C 
ATOM     10  N   UNL     1      -1.386  11.472  18.232  0.00  0.00    +0.000 N 
ATOM     11  C   UNL     1      -0.493  12.445  18.549  0.00  0.00    +0.000 A 
ATOM     12  C   UNL     1       0.378  11.858  19.437  0.00  0.00    +0.000 A 
ATOM     13  C   UNL     1      -0.139  10.564  19.711  0.00  0.00    +0.000 A 
ATOM     14  N   UNL     1      -1.216  10.336  18.929  0.00  0.00    +0.000 NA
BRANCH  12  15
ATOM     15  N   UNL     1       1.552  12.469  19.959  0.00  0.00    +0.000 N 
ATOM     16  O   UNL     1       2.421  12.774  19.134  0.00  0.00    +0.000 OA
ATOM     17  O   UNL     1       1.560  12.721  21.174  0.00  0.00    +0.000 OA
ENDBRANCH  12  15
ENDBRANCH   1  13
BRANCH   6  18
ATOM     18  C   UNL     1       3.878   6.088  19.142  0.00  0.00    +0.000 C 
BRANCH  18  19
ATOM     19  C   UNL     1       4.522   5.450  17.928  0.00  0.00    +0.000 A 
ATOM     20  C   UNL     1       4.052   4.209  17.433  0.00  0.00    +0.000 A 
ATOM     21  C   UNL     1       4.663   3.590  16.338  0.00  0.00    +0.000 A 
ATOM     22  C   UNL     1       5.724   4.238  15.747  0.00  0.00    +0.000 A 
ATOM     23  C   UNL     1       6.176   5.452  16.205  0.00  0.00    +0.000 A 
ATOM     24  C   UNL     1       5.602   6.082  17.288  0.00  0.00    +0.000 A 
ATOM     25  O   UNL     1       7.224   5.925  15.479  0.00  0.00    +0.000 OA
ATOM     26  C   UNL     1       7.352   4.887  14.485  0.00  0.00    +0.000 C 
ATOM     27  O   UNL     1       6.438   3.788  14.680  0.00  0.00    +0.000 OA
ENDBRANCH  18  19
ENDBRANCH   6  18
TORSDOF 4
ENDMDL
MODEL 3
REMARK VINA RESULT:      -7.0      3.333      5.300
REMARK  Name = 
REMARK  5 active torsions:
REMARK  status: ('A' for Active; 'I' for Inactive)
REMARK    1  A    between atoms: C_1  and  N_2
REMARK    2  A    between atoms: C_4  and  N_5
REMARK    3  A    between atoms: C_8  and  C_9
REMARK    4  A    between atoms: N_14  and  C_15
REMARK    5  A    between atoms: C_15  and  C_16
REMARK                            x       y       z     vdW  Elec       q    Type
REMARK                         _______ _______ _______ _____ _____    ______ ____
ROOT
ATOM      1  C   UNL     1       2.526   7.008  18.955  0.00  0.00    +0.000 C 
ATOM      2  O   UNL     1       2.974   7.257  17.836  0.00  0.00    +0.000 OA
ATOM      3  N   UNL     1       1.858   7.991  19.698  0.00  0.00    +0.000 N 
ATOM      4  C   UNL     1       1.695   9.325  19.112  0.00  0.00    +0.000 C 
ATOM      5  C   UNL     1       0.265   9.866  19.319  0.00  0.00    +0.000 C 
ATOM      6  N   UNL     1      -0.223   9.834  20.719  0.00  0.00    +0.000 NA
ATOM      7  C   UNL     1      -0.036   8.469  21.252  0.00  0.00    +0.000 C 
ATOM      8  C   UNL     1       1.382   7.885  21.084  0.00  0.00    +0.000 C 
ENDROOT
BRANCH   1  13
ATOM      9  C   UNL     1       1.575   2.921  21.417  0.00  0.00    +0.000 C 
ATOM     10  N   UNL     1       2.279   3.812  20.525  0.00  0.00    +0.000 N 
ATOM     11  C   UNL     1       3.529   3.641  20.021  0.00  0.00    +0.000 A 
ATOM     12  C   UNL     1       3.841   4.838  19.419  0.00  0.00    +0.000 A 
ATOM     13  C   UNL     1       2.670   5.638  19.485  0.00  0.00    +0.000 A 
ATOM     14  N   UNL     1       1.725   4.992  20.202  0.00  0.00    +0.000 NA
BRANCH  12  15
ATOM     15  N   UNL     1       5.103   5.164  18.849  0.00  0.00    +0.000 N 
ATOM     16  O   UNL     1       5.986   5.515  19.642  0.00  0.00    +0.000 OA
ATOM     17  O   UNL     1       5.231   4.982  17.628  0.00  0.00    +0.000 OA
ENDBRANCH  12  15
ENDBRANCH   1  13
BRANCH   6  18
ATOM     18  C   UNL     1       0.421  10.837  21.583  0.00  0.00    +0.000 C 
BRANCH  18  19
ATOM     19  C   UNL     1      -0.558  11.828  22.179  0.00  0.00    +0.000 A 
ATOM     20  C   UNL     1      -0.305  13.219  22.113  0.00  0.00    +0.000 A 
ATOM     21  C   UNL     1      -1.181  14.141  22.695  0.00  0.00    +0.000 A 
ATOM     22  C   UNL     1      -2.306  13.650  23.317  0.00  0.00    +0.000 A 
ATOM     23  C   UNL     1      -2.574  12.303  23.369  0.00  0.00    +0.000 A 
ATOM     24  C   UNL     1      -1.725  11.369  22.815  0.00  0.00    +0.000 A 
ATOM     25  O   UNL     1      -3.737  12.028  24.018  0.00  0.00    +0.000 OA
ATOM     26  C   UNL     1      -4.192  13.361  24.331  0.00  0.00    +0.000 C 
ATOM     27  O   UNL     1      -3.263  14.392  23.936  0.00  0.00    +0.000 OA
ENDBRANCH  18  19
ENDBRANCH   6  18
TORSDOF 4
ENDMDL
MODEL 4
REMARK VINA RESULT:      -7.0      2.641      8.721
REMARK  Name = 
REMARK  5 active torsions:
REMARK  status: ('A' for Active; 'I' for Inactive)
REMARK    1  A    between atoms: C_1  and  N_2
REMARK    2  A    between atoms: C_4  and  N_5
REMARK    3  A    between atoms: C_8  and  C_9
REMARK    4  A    between atoms: N_14  and  C_15
REMARK    5  A    between atoms: C_15  and  C_16
REMARK                            x       y       z     vdW  Elec       q    Type
REMARK                         _______ _______ _______ _____ _____    ______ ____
ROOT
ATOM      1  C   UNL     1       0.223   9.153  20.502  0.00  0.00    +0.000 C 
ATOM      2  O   UNL     1      -0.288   8.968  21.606  0.00  0.00    +0.000 OA
ATOM      3  N   UNL     1       1.268   8.337  20.047  0.00  0.00    +0.000 N 
ATOM      4  C   UNL     1       1.739   7.251  20.911  0.00  0.00    +0.000 C 
ATOM      5  C   UNL     1       1.942   5.942  20.119  0.00  0.00    +0.000 C 
ATOM      6  N   UNL     1       2.788   6.065  18.908  0.00  0.00    +0.000 NA
ATOM      7  C   UNL     1       2.264   7.170  18.078  0.00  0.00    +0.000 C 
ATOM      8  C   UNL     1       2.055   8.507  18.818  0.00  0.00    +0.000 C 
ENDROOT
BRANCH   1  13
ATOM      9  C   UNL     1      -2.258  11.384  16.962  0.00  0.00    +0.000 C 
ATOM     10  N   UNL     1      -1.412  11.254  18.124  0.00  0.00    +0.000 N 
ATOM     11  C   UNL     1      -0.647  12.224  18.689  0.00  0.00    +0.000 A 
ATOM     12  C   UNL     1       0.135  11.574  19.614  0.00  0.00    +0.000 A 
ATOM     13  C   UNL     1      -0.316  10.228  19.645  0.00  0.00    +0.000 A 
ATOM     14  N   UNL     1      -1.255  10.046  18.691  0.00  0.00    +0.000 NA
BRANCH  12  15
ATOM     15  N   UNL     1       1.177  12.174  20.375  0.00  0.00    +0.000 N 
ATOM     16  O   UNL     1       2.174  12.540  19.741  0.00  0.00    +0.000 OA
ATOM     17  O   UNL     1       0.955  12.358  21.582  0.00  0.00    +0.000 OA
ENDBRANCH  12  15
ENDBRANCH   1  13
BRANCH   6  18
ATOM     18  C   UNL     1       4.216   6.256  19.212  0.00  0.00    +0.000 C 
BRANCH  18  19
ATOM     19  C   UNL     1       5.121   5.961  18.033  0.00  0.00    +0.000 A 
ATOM     20  C   UNL     1       6.421   6.519  17.966  0.00  0.00    +0.000 A 
ATOM     21  C   UNL     1       7.251   6.287  16.865  0.00  0.00    +0.000 A 
ATOM     22  C   UNL     1       6.767   5.483  15.858  0.00  0.00    +0.000 A 
ATOM     23  C   UNL     1       5.516   4.918  15.921  0.00  0.00    +0.000 A 
ATOM     24  C   UNL     1       4.671   5.137  16.988  0.00  0.00    +0.000 A 
ATOM     25  O   UNL     1       5.235   4.152  14.833  0.00  0.00    +0.000 OA
ATOM     26  C   UNL     1       6.471   4.266  14.098  0.00  0.00    +0.000 C 
ATOM     27  O   UNL     1       7.428   5.150  14.717  0.00  0.00    +0.000 OA
ENDBRANCH  18  19
ENDBRANCH   6  18
TORSDOF 4
ENDMDL
MODEL 5
REMARK VINA RESULT:      -6.8      0.833      1.487
REMARK  Name = 
REMARK  5 active torsions:
REMARK  status: ('A' for Active; 'I' for Inactive)
REMARK    1  A    between atoms: C_1  and  N_2
REMARK    2  A    between atoms: C_4  and  N_5
REMARK    3  A    between atoms: C_8  and  C_9
REMARK    4  A    between atoms: N_14  and  C_15
REMARK    5  A    between atoms: C_15  and  C_16
REMARK                            x       y       z     vdW  Elec       q    Type
REMARK                         _______ _______ _______ _____ _____    ______ ____
ROOT
ATOM      1  C   UNL     1       4.326   4.167  16.964  0.00  0.00    +0.000 C 
ATOM      2  O   UNL     1       4.076   3.050  17.415  0.00  0.00    +0.000 OA
ATOM      3  N   UNL     1       3.663   5.303  17.449  0.00  0.00    +0.000 N 
ATOM      4  C   UNL     1       2.668   5.136  18.512  0.00  0.00    +0.000 C 
ATOM      5  C   UNL     1       2.829   6.204  19.614  0.00  0.00    +0.000 C 
ATOM      6  N   UNL     1       2.864   7.606  19.131  0.00  0.00    +0.000 NA
ATOM      7  C   UNL     1       3.884   7.712  18.067  0.00  0.00    +0.000 C 
ATOM      8  C   UNL     1       3.760   6.675  16.931  0.00  0.00    +0.000 C 
ENDROOT
BRANCH   1  13
ATOM      9  C   UNL     1       6.574   3.870  12.660  0.00  0.00    +0.000 C 
ATOM     10  N   UNL     1       6.386   4.213  14.050  0.00  0.00    +0.000 N 
ATOM     11  C   UNL     1       7.338   4.640  14.920  0.00  0.00    +0.000 A 
ATOM     12  C   UNL     1       6.733   4.618  16.155  0.00  0.00    +0.000 A 
ATOM     13  C   UNL     1       5.370   4.295  15.928  0.00  0.00    +0.000 A 
ATOM     14  N   UNL     1       5.185   4.019  14.619  0.00  0.00    +0.000 NA
BRANCH  12  15
ATOM     15  N   UNL     1       7.385   4.880  17.392  0.00  0.00    +0.000 N 
ATOM     16  O   UNL     1       8.293   4.102  17.706  0.00  0.00    +0.000 OA
ATOM     17  O   UNL     1       7.047   5.911  17.996  0.00  0.00    +0.000 OA
ENDBRANCH  12  15
ENDBRANCH   1  13
BRANCH   6  18
ATOM     18  C   UNL     1       1.555   8.094  18.667  0.00  0.00    +0.000 C 
BRANCH  18  19
ATOM     19  C   UNL     1       0.974   9.177  19.554  0.00  0.00    +0.000 A 
ATOM     20  C   UNL     1       1.033  10.536  19.164  0.00  0.00    +0.000 A 
ATOM     21  C   UNL     1       0.537  11.548  19.992  0.00  0.00    +0.000 A 
ATOM     22  C   UNL     1      -0.028  11.174  21.190  0.00  0.00    +0.000 A 
ATOM     23  C   UNL     1      -0.111   9.857  21.571  0.00  0.00    +0.000 A 
ATOM     24  C   UNL     1       0.379   8.838  20.782  0.00  0.00    +0.000 A 
ATOM     25  O   UNL     1      -0.711   9.701  22.782  0.00  0.00    +0.000 OA
ATOM     26  C   UNL     1      -1.034  11.071  23.099  0.00  0.00    +0.000 C 
ATOM     27  O   UNL     1      -0.558  12.016  22.118  0.00  0.00    +0.000 OA
ENDBRANCH  18  19
ENDBRANCH   6  18
TORSDOF 4
ENDMDL
MODEL 6
REMARK VINA RESULT:      -6.8      2.583      8.844
REMARK  Name = 
REMARK  5 active torsions:
REMARK  status: ('A' for Active; 'I' for Inactive)
REMARK    1  A    between atoms: C_1  and  N_2
REMARK    2  A    between atoms: C_4  and  N_5
REMARK    3  A    between atoms: C_8  and  C_9
REMARK    4  A    between atoms: N_14  and  C_15
REMARK    5  A    between atoms: C_15  and  C_16
REMARK                            x       y       z     vdW  Elec       q    Type
REMARK                         _______ _______ _______ _____ _____    ______ ____
ROOT
ATOM      1  C   UNL     1       0.597   8.843  21.083  0.00  0.00    +0.000 C 
ATOM      2  O   UNL     1      -0.191   8.507  21.966  0.00  0.00    +0.000 OA
ATOM      3  N   UNL     1       1.454   7.906  20.489  0.00  0.00    +0.000 N 
ATOM      4  C   UNL     1       1.389   6.512  20.935  0.00  0.00    +0.000 C 
ATOM      5  C   UNL     1       1.406   5.532  19.743  0.00  0.00    +0.000 C 
ATOM      6  N   UNL     1       2.515   5.732  18.779  0.00  0.00    +0.000 NA
ATOM      7  C   UNL     1       2.527   7.151  18.365  0.00  0.00    +0.000 C 
ATOM      8  C   UNL     1       2.525   8.174  19.519  0.00  0.00    +0.000 C 
ENDROOT
BRANCH   1  13
ATOM      9  C   UNL     1       1.114  13.680  21.142  0.00  0.00    +0.000 C 
ATOM     10  N   UNL     1       0.835  12.371  20.600  0.00  0.00    +0.000 N 
ATOM     11  C   UNL     1       0.238  12.092  19.411  0.00  0.00    +0.000 A 
ATOM     12  C   UNL     1      -0.008  10.739  19.442  0.00  0.00    +0.000 A 
ATOM     13  C   UNL     1       0.594  10.248  20.630  0.00  0.00    +0.000 A 
ATOM     14  N   UNL     1       1.084  11.283  21.346  0.00  0.00    +0.000 NA
BRANCH  12  15
ATOM     15  N   UNL     1      -0.725  10.013  18.450  0.00  0.00    +0.000 N 
ATOM     16  O   UNL     1      -1.959  10.073  18.516  0.00  0.00    +0.000 OA
ATOM     17  O   UNL     1      -0.054   9.465  17.562  0.00  0.00    +0.000 OA
ENDBRANCH  12  15
ENDBRANCH   1  13
BRANCH   6  18
ATOM     18  C   UNL     1       3.826   5.318  19.306  0.00  0.00    +0.000 C 
BRANCH  18  19
ATOM     19  C   UNL     1       4.887   5.193  18.232  0.00  0.00    +0.000 A 
ATOM     20  C   UNL     1       6.237   5.516  18.513  0.00  0.00    +0.000 A 
ATOM     21  C   UNL     1       7.218   5.443  17.519  0.00  0.00    +0.000 A 
ATOM     22  C   UNL     1       6.830   5.029  16.265  0.00  0.00    +0.000 A 
ATOM     23  C   UNL     1       5.527   4.692  15.986  0.00  0.00    +0.000 A 
ATOM     24  C   UNL     1       4.536   4.764  16.941  0.00  0.00    +0.000 A 
ATOM     25  O   UNL     1       5.356   4.300  14.695  0.00  0.00    +0.000 OA
ATOM     26  C   UNL     1       6.710   4.389  14.206  0.00  0.00    +0.000 C 
ATOM     27  O   UNL     1       7.642   4.900  15.182  0.00  0.00    +0.000 OA
ENDBRANCH  18  19
ENDBRANCH   6  18
TORSDOF 4
ENDMDL
MODEL 7
REMARK VINA RESULT:      -6.7      0.745      1.585
REMARK  Name = 
REMARK  5 active torsions:
REMARK  status: ('A' for Active; 'I' for Inactive)
REMARK    1  A    between atoms: C_1  and  N_2
REMARK    2  A    between atoms: C_4  and  N_5
REMARK    3  A    between atoms: C_8  and  C_9
REMARK    4  A    between atoms: N_14  and  C_15
REMARK    5  A    between atoms: C_15  and  C_16
REMARK                            x       y       z     vdW  Elec       q    Type
REMARK                         _______ _______ _______ _____ _____    ______ ____
ROOT
ATOM      1  C   UNL     1       4.415   4.009  16.886  0.00  0.00    +0.000 C 
ATOM      2  O   UNL     1       4.212   2.863  17.287  0.00  0.00    +0.000 OA
ATOM      3  N   UNL     1       3.733   5.097  17.445  0.00  0.00    +0.000 N 
ATOM      4  C   UNL     1       2.774   4.847  18.526  0.00  0.00    +0.000 C 
ATOM      5  C   UNL     1       2.934   5.863  19.675  0.00  0.00    +0.000 C 
ATOM      6  N   UNL     1       2.914   7.288  19.263  0.00  0.00    +0.000 NA
ATOM      7  C   UNL     1       3.899   7.478  18.178  0.00  0.00    +0.000 C 
ATOM      8  C   UNL     1       3.774   6.496  16.995  0.00  0.00    +0.000 C 
ENDROOT
BRANCH   1  13
ATOM      9  C   UNL     1       6.664   3.766  12.579  0.00  0.00    +0.000 C 
ATOM     10  N   UNL     1       6.435   4.166  13.947  0.00  0.00    +0.000 N 
ATOM     11  C   UNL     1       7.318   4.783  14.776  0.00  0.00    +0.000 A 
ATOM     12  C   UNL     1       6.728   4.752  16.018  0.00  0.00    +0.000 A 
ATOM     13  C   UNL     1       5.425   4.220  15.830  0.00  0.00    +0.000 A 
ATOM     14  N   UNL     1       5.277   3.836  14.544  0.00  0.00    +0.000 NA
BRANCH  12  15
ATOM     15  N   UNL     1       7.339   5.186  17.227  0.00  0.00    +0.000 N 
ATOM     16  O   UNL     1       7.887   4.310  17.906  0.00  0.00    +0.000 OA
ATOM     17  O   UNL     1       7.346   6.408  17.444  0.00  0.00    +0.000 OA
ENDBRANCH  12  15
ENDBRANCH   1  13
BRANCH   6  18
ATOM     18  C   UNL     1       1.578   7.757  18.860  0.00  0.00    +0.000 C 
BRANCH  18  19
ATOM     19  C   UNL     1       1.323   9.208  19.217  0.00  0.00    +0.000 A 
ATOM     20  C   UNL     1       1.586  10.236  18.281  0.00  0.00    +0.000 A 
ATOM     21  C   UNL     1       1.394  11.581  18.612  0.00  0.00    +0.000 A 
ATOM     22  C   UNL     1       0.921  11.868  19.873  0.00  0.00    +0.000 A 
ATOM     23  C   UNL     1       0.641  10.878  20.783  0.00  0.00    +0.000 A 
ATOM     24  C   UNL     1       0.831   9.544  20.490  0.00  0.00    +0.000 A 
ATOM     25  O   UNL     1       0.176  11.370  21.962  0.00  0.00    +0.000 OA
ATOM     26  C   UNL     1       0.156  12.783  21.674  0.00  0.00    +0.000 C 
ATOM     27  O   UNL     1       0.676  13.111  20.369  0.00  0.00    +0.000 OA
ENDBRANCH  18  19
ENDBRANCH   6  18
TORSDOF 4
ENDMDL
MODEL 8
REMARK VINA RESULT:      -6.7      2.487      8.960
REMARK  Name = 
REMARK  5 active torsions:
REMARK  status: ('A' for Active; 'I' for Inactive)
REMARK    1  A    between atoms: C_1  and  N_2
REMARK    2  A    between atoms: C_4  and  N_5
REMARK    3  A    between atoms: C_8  and  C_9
REMARK    4  A    between atoms: N_14  and  C_15
REMARK    5  A    between atoms: C_15  and  C_16
REMARK                            x       y       z     vdW  Elec       q    Type
REMARK                         _______ _______ _______ _____ _____    ______ ____
ROOT
ATOM      1  C   UNL     1       0.420   8.180  21.089  0.00  0.00    +0.000 C 
ATOM      2  O   UNL     1      -0.304   7.694  21.958  0.00  0.00    +0.000 OA
ATOM      3  N   UNL     1       1.364   7.392  20.417  0.00  0.00    +0.000 N 
ATOM      4  C   UNL     1       1.469   5.971  20.763  0.00  0.00    +0.000 C 
ATOM      5  C   UNL     1       1.570   5.085  19.504  0.00  0.00    +0.000 C 
ATOM      6  N   UNL     1       2.626   5.479  18.540  0.00  0.00    +0.000 NA
ATOM      7  C   UNL     1       2.467   6.915  18.228  0.00  0.00    +0.000 C 
ATOM      8  C   UNL     1       2.375   7.849  19.453  0.00  0.00    +0.000 C 
ENDROOT
BRANCH   1  13
ATOM      9  C   UNL     1       0.662  12.350  18.596  0.00  0.00    +0.000 C 
ATOM     10  N   UNL     1       0.301  11.451  19.666  0.00  0.00    +0.000 N 
ATOM     11  C   UNL     1      -0.210  11.790  20.879  0.00  0.00    +0.000 A 
ATOM     12  C   UNL     1      -0.175  10.633  21.621  0.00  0.00    +0.000 A 
ATOM     13  C   UNL     1       0.245   9.603  20.739  0.00  0.00    +0.000 A 
ATOM     14  N   UNL     1       0.564  10.139  19.541  0.00  0.00    +0.000 NA
BRANCH  12  15
ATOM     15  N   UNL     1      -0.510  10.532  23.000  0.00  0.00    +0.000 N 
ATOM     16  O   UNL     1      -1.654  10.884  23.310  0.00  0.00    +0.000 OA
ATOM     17  O   UNL     1       0.338  10.020  23.747  0.00  0.00    +0.000 OA
ENDBRANCH  12  15
ENDBRANCH   1  13
BRANCH   6  18
ATOM     18  C   UNL     1       3.988   5.184  19.016  0.00  0.00    +0.000 C 
BRANCH  18  19
ATOM     19  C   UNL     1       5.027   5.225  17.914  0.00  0.00    +0.000 A 
ATOM     20  C   UNL     1       6.262   5.887  18.114  0.00  0.00    +0.000 A 
ATOM     21  C   UNL     1       7.212   5.967  17.091  0.00  0.00    +0.000 A 
ATOM     22  C   UNL     1       6.912   5.364  15.890  0.00  0.00    +0.000 A 
ATOM     23  C   UNL     1       5.726   4.700  15.691  0.00  0.00    +0.000 A 
ATOM     24  C   UNL     1       4.765   4.614  16.676  0.00  0.00    +0.000 A 
ATOM     25  O   UNL     1       5.630   4.168  14.443  0.00  0.00    +0.000 OA
ATOM     26  C   UNL     1       6.912   4.537  13.895  0.00  0.00    +0.000 C 
ATOM     27  O   UNL     1       7.710   5.341  14.789  0.00  0.00    +0.000 OA
ENDBRANCH  18  19
ENDBRANCH   6  18
TORSDOF 4
ENDMDL
MODEL 9
REMARK VINA RESULT:      -6.7      1.053      1.444
REMARK  Name = 
REMARK  5 active torsions:
REMARK  status: ('A' for Active; 'I' for Inactive)
REMARK    1  A    between atoms: C_1  and  N_2
REMARK    2  A    between atoms: C_4  and  N_5
REMARK    3  A    between atoms: C_8  and  C_9
REMARK    4  A    between atoms: N_14  and  C_15
REMARK    5  A    between atoms: C_15  and  C_16
REMARK                            x       y       z     vdW  Elec       q    Type
REMARK                         _______ _______ _______ _____ _____    ______ ____
ROOT
ATOM      1  C   UNL     1       4.368   4.093  16.880  0.00  0.00    +0.000 C 
ATOM      2  O   UNL     1       4.133   2.968  17.321  0.00  0.00    +0.000 OA
ATOM      3  N   UNL     1       3.694   5.216  17.380  0.00  0.00    +0.000 N 
ATOM      4  C   UNL     1       2.706   5.027  18.446  0.00  0.00    +0.000 C 
ATOM      5  C   UNL     1       2.860   6.085  19.559  0.00  0.00    +0.000 C 
ATOM      6  N   UNL     1       2.877   7.492  19.091  0.00  0.00    +0.000 NA
ATOM      7  C   UNL     1       3.891   7.621  18.023  0.00  0.00    +0.000 C 
ATOM      8  C   UNL     1       3.774   6.595  16.877  0.00  0.00    +0.000 C 
ENDROOT
BRANCH   1  13
ATOM      9  C   UNL     1       6.615   3.830  12.574  0.00  0.00    +0.000 C 
ATOM     10  N   UNL     1       6.420   4.177  13.962  0.00  0.00    +0.000 N 
ATOM     11  C   UNL     1       7.361   4.637  14.827  0.00  0.00    +0.000 A 
ATOM     12  C   UNL     1       6.760   4.607  16.064  0.00  0.00    +0.000 A 
ATOM     13  C   UNL     1       5.405   4.243  15.842  0.00  0.00    +0.000 A 
ATOM     14  N   UNL     1       5.226   3.952  14.535  0.00  0.00    +0.000 NA
BRANCH  12  15
ATOM     15  N   UNL     1       7.406   4.897  17.298  0.00  0.00    +0.000 N 
ATOM     16  O   UNL     1       8.269   4.090  17.664  0.00  0.00    +0.000 OA
ATOM     17  O   UNL     1       7.112   5.971  17.844  0.00  0.00    +0.000 OA
ENDBRANCH  12  15
ENDBRANCH   1  13
BRANCH   6  18
ATOM     18  C   UNL     1       1.561   7.971  18.638  0.00  0.00    +0.000 C 
BRANCH  18  19
ATOM     19  C   UNL     1       1.198   9.334  19.193  0.00  0.00    +0.000 A 
ATOM     20  C   UNL     1       0.588   9.454  20.465  0.00  0.00    +0.000 A 
ATOM     21  C   UNL     1       0.212  10.702  20.970  0.00  0.00    +0.000 A 
ATOM     22  C   UNL     1       0.474  11.811  20.197  0.00  0.00    +0.000 A 
ATOM     23  C   UNL     1       1.085  11.709  18.970  0.00  0.00    +0.000 A 
ATOM     24  C   UNL     1       1.457  10.492  18.440  0.00  0.00    +0.000 A 
ATOM     25  O   UNL     1       1.261  12.919  18.374  0.00  0.00    +0.000 OA
ATOM     26  C   UNL     1       0.728  13.797  19.387  0.00  0.00    +0.000 C 
ATOM     27  O   UNL     1       0.179  13.098  20.523  0.00  0.00    +0.000 OA
ENDBRANCH  18  19
ENDBRANCH   6  18
TORSDOF 4
ENDMDL
