MODEL 1
REMARK VINA RESULT:      -6.8      0.000      0.000
REMARK  Name = 
REMARK  6 active torsions:
REMARK  status: ('A' for Active; 'I' for Inactive)
REMARK    1  A    between atoms: C_1  and  N_2
REMARK    2  A    between atoms: N_2  and  C_3
REMARK    3  A    between atoms: C_5  and  C_6
REMARK    4  A    between atoms: C_13  and  C_14
REMARK    5  A    between atoms: C_17  and  C_18
REMARK    6  A    between atoms: C_18  and  O_19
REMARK                            x       y       z     vdW  Elec       q    Type
REMARK                         _______ _______ _______ _____ _____    ______ ____
ROOT
ATOM      1  C   UNL     1       1.969   6.197  19.925  0.00  0.00    +0.000 C 
ATOM      2  C   UNL     1       3.286   5.916  19.185  0.00  0.00    +0.000 C 
ATOM      3  C   UNL     1       3.192   4.746  18.162  0.00  0.00    +0.000 C 
ATOM      4  N   UNL     1       2.498   3.565  18.754  0.00  0.00    +0.000 N 
ATOM      5  C   UNL     1       2.720   2.201  18.609  0.00  0.00    +0.000 C 
ATOM      6  C   UNL     1       3.984   1.668  17.999  0.00  0.00    +0.000 C 
ATOM      7  O   UNL     1       1.919   1.369  19.054  0.00  0.00    +0.000 OA
ATOM      8  C   UNL     1       1.209   3.913  19.371  0.00  0.00    +0.000 C 
ATOM      9  C   UNL     1       1.405   4.892  20.528  0.00  0.00    +0.000 C 
ENDROOT
BRANCH   3  10
ATOM     10  C   UNL     1       4.568   4.581  17.539  0.00  0.00    +0.000 A 
ATOM     11  C   UNL     1       5.745   4.732  18.289  0.00  0.00    +0.000 A 
ATOM     12  C   UNL     1       6.999   4.648  17.676  0.00  0.00    +0.000 A 
ATOM     13  C   UNL     1       7.093   4.434  16.304  0.00  0.00    +0.000 A 
ATOM     14  C   UNL     1       5.935   4.294  15.543  0.00  0.00    +0.000 A 
ATOM     15  C   UNL     1       4.678   4.363  16.154  0.00  0.00    +0.000 A 
ENDBRANCH   3  10
BRANCH   1  17
ATOM     16  C   UNL     1       1.203   8.367  20.762  0.00  0.00    +0.000 C 
ATOM     17  N   UNL     1       2.194   7.301  20.873  0.00  0.00    +0.000 NA
ATOM     18  H   UNL     1       2.119   6.926  21.825  0.00  0.00    +0.000 HD
ENDBRANCH   1  17
BRANCH   9  19
ATOM     19  C   UNL     1       2.257   4.222  21.620  0.00  0.00    +0.000 C 
BRANCH  19  20
ATOM     20  O   UNL     1       1.761   2.931  21.945  0.00  0.00    +0.000 OA
ATOM     21  H   UNL     1       1.391   2.987  22.843  0.00  0.00    +0.000 HD
ENDBRANCH  19  20
ENDBRANCH   9  19
TORSDOF 4
ENDMDL
MODEL 2
REMARK VINA RESULT:      -6.8      0.160      1.118
REMARK  Name = 
REMARK  6 active torsions:
REMARK  status: ('A' for Active; 'I' for Inactive)
REMARK    1  A    between atoms: C_1  and  N_2
REMARK    2  A    between atoms: N_2  and  C_3
REMARK    3  A    between atoms: C_5  and  C_6
REMARK    4  A    between atoms: C_13  and  C_14
REMARK    5  A    between atoms: C_17  and  C_18
REMARK    6  A    between atoms: C_18  and  O_19
REMARK                            x       y       z     vdW  Elec       q    Type
REMARK                         _______ _______ _______ _____ _____    ______ ____
ROOT
ATOM      1  C   UNL     1       1.834   6.150  20.010  0.00  0.00    +0.000 C 
ATOM      2  C   UNL     1       3.167   5.964  19.268  0.00  0.00    +0.000 C 
ATOM      3  C   UNL     1       3.135   4.837  18.195  0.00  0.00    +0.000 C 
ATOM      4  N   UNL     1       2.493   3.599  18.729  0.00  0.00    +0.000 N 
ATOM      5  C   UNL     1       2.782   2.255  18.528  0.00  0.00    +0.000 C 
ATOM      6  C   UNL     1       4.072   1.809  17.905  0.00  0.00    +0.000 C 
ATOM      7  O   UNL     1       2.018   1.368  18.929  0.00  0.00    +0.000 OA
ATOM      8  C   UNL     1       1.186   3.858  19.351  0.00  0.00    +0.000 C 
ATOM      9  C   UNL     1       1.329   4.795  20.551  0.00  0.00    +0.000 C 
ENDROOT
BRANCH   3  10
ATOM     10  C   UNL     1       4.520   4.763  17.576  0.00  0.00    +0.000 A 
ATOM     11  C   UNL     1       4.709   4.509  16.209  0.00  0.00    +0.000 A 
ATOM     12  C   UNL     1       5.996   4.372  15.679  0.00  0.00    +0.000 A 
ATOM     13  C   UNL     1       7.108   4.466  16.510  0.00  0.00    +0.000 A 
ATOM     14  C   UNL     1       6.938   4.705  17.871  0.00  0.00    +0.000 A 
ATOM     15  C   UNL     1       5.653   4.856  18.405  0.00  0.00    +0.000 A 
ENDBRANCH   3  10
BRANCH   1  17
ATOM     16  C   UNL     1       1.279   8.443  20.665  0.00  0.00    +0.000 C 
ATOM     17  N   UNL     1       2.000   7.221  21.006  0.00  0.00    +0.000 NA
ATOM     18  H   UNL     1       1.618   6.890  21.899  0.00  0.00    +0.000 HD
ENDBRANCH   1  17
BRANCH   9  19
ATOM     19  C   UNL     1       2.206   4.119  21.619  0.00  0.00    +0.000 C 
BRANCH  19  20
ATOM     20  O   UNL     1       1.744   2.808  21.914  0.00  0.00    +0.000 OA
ATOM     21  H   UNL     1       0.772   2.846  21.934  0.00  0.00    +0.000 HD
ENDBRANCH  19  20
ENDBRANCH   9  19
TORSDOF 4
ENDMDL
MODEL 3
REMARK VINA RESULT:      -6.8      2.808      5.501
REMARK  Name = 
REMARK  6 active torsions:
REMARK  status: ('A' for Active; 'I' for Inactive)
REMARK    1  A    between atoms: C_1  and  N_2
REMARK    2  A    between atoms: N_2  and  C_3
REMARK    3  A    between atoms: C_5  and  C_6
REMARK    4  A    between atoms: C_13  and  C_14
REMARK    5  A    between atoms: C_17  and  C_18
REMARK    6  A    between atoms: C_18  and  O_19
REMARK                            x       y       z     vdW  Elec       q    Type
REMARK                         _______ _______ _______ _____ _____    ______ ____
ROOT
ATOM      1  C   UNL     1       6.487   5.682  17.467  0.00  0.00    +0.000 C 
ATOM      2  C   UNL     1       5.313   6.621  17.787  0.00  0.00    +0.000 C 
ATOM      3  C   UNL     1       4.107   5.907  18.465  0.00  0.00    +0.000 C 
ATOM      4  N   UNL     1       3.768   4.633  17.765  0.00  0.00    +0.000 N 
ATOM      5  C   UNL     1       2.545   4.029  17.496  0.00  0.00    +0.000 C 
ATOM      6  C   UNL     1       1.249   4.773  17.640  0.00  0.00    +0.000 C 
ATOM      7  O   UNL     1       2.483   2.877  17.049  0.00  0.00    +0.000 OA
ATOM      8  C   UNL     1       4.936   3.761  17.572  0.00  0.00    +0.000 C 
ATOM      9  C   UNL     1       5.987   4.442  16.694  0.00  0.00    +0.000 C 
ENDROOT
BRANCH   3  10
ATOM     10  C   UNL     1       3.031   6.955  18.690  0.00  0.00    +0.000 A 
ATOM     11  C   UNL     1       2.717   7.916  17.716  0.00  0.00    +0.000 A 
ATOM     12  C   UNL     1       1.774   8.916  17.977  0.00  0.00    +0.000 A 
ATOM     13  C   UNL     1       1.151   8.983  19.219  0.00  0.00    +0.000 A 
ATOM     14  C   UNL     1       1.461   8.045  20.201  0.00  0.00    +0.000 A 
ATOM     15  C   UNL     1       2.392   7.034  19.941  0.00  0.00    +0.000 A 
ENDBRANCH   3  10
BRANCH   1  17
ATOM     16  C   UNL     1       7.745   7.782  17.412  0.00  0.00    +0.000 C 
ATOM     17  N   UNL     1       7.546   6.467  16.811  0.00  0.00    +0.000 NA
ATOM     18  H   UNL     1       8.431   5.958  16.912  0.00  0.00    +0.000 HD
ENDBRANCH   1  17
BRANCH   9  19
ATOM     19  C   UNL     1       5.389   4.704  15.301  0.00  0.00    +0.000 C 
BRANCH  19  20
ATOM     20  O   UNL     1       6.289   5.436  14.481  0.00  0.00    +0.000 OA
ATOM     21  H   UNL     1       7.090   5.595  15.009  0.00  0.00    +0.000 HD
ENDBRANCH  19  20
ENDBRANCH   9  19
TORSDOF 4
ENDMDL
MODEL 4
REMARK VINA RESULT:      -6.5      3.126      5.829
REMARK  Name = 
REMARK  6 active torsions:
REMARK  status: ('A' for Active; 'I' for Inactive)
REMARK    1  A    between atoms: C_1  and  N_2
REMARK    2  A    between atoms: N_2  and  C_3
REMARK    3  A    between atoms: C_5  and  C_6
REMARK    4  A    between atoms: C_13  and  C_14
REMARK    5  A    between atoms: C_17  and  C_18
REMARK    6  A    between atoms: C_18  and  O_19
REMARK                            x       y       z     vdW  Elec       q    Type
REMARK                         _______ _______ _______ _____ _____    ______ ____
ROOT
ATOM      1  C   UNL     1       5.206   4.870  15.921  0.00  0.00    +0.000 C 
ATOM      2  C   UNL     1       4.527   4.193  17.122  0.00  0.00    +0.000 C 
ATOM      3  C   UNL     1       3.205   4.884  17.565  0.00  0.00    +0.000 C 
ATOM      4  N   UNL     1       3.368   6.366  17.643  0.00  0.00    +0.000 N 
ATOM      5  C   UNL     1       2.853   7.302  18.531  0.00  0.00    +0.000 C 
ATOM      6  C   UNL     1       2.221   6.893  19.830  0.00  0.00    +0.000 C 
ATOM      7  O   UNL     1       2.969   8.516  18.322  0.00  0.00    +0.000 OA
ATOM      8  C   UNL     1       3.951   6.938  16.420  0.00  0.00    +0.000 C 
ATOM      9  C   UNL     1       5.355   6.385  16.174  0.00  0.00    +0.000 C 
ENDROOT
BRANCH   3  10
ATOM     10  C   UNL     1       2.677   4.119  18.766  0.00  0.00    +0.000 A 
ATOM     11  C   UNL     1       3.527   3.650  19.780  0.00  0.00    +0.000 A 
ATOM     12  C   UNL     1       3.026   2.884  20.837  0.00  0.00    +0.000 A 
ATOM     13  C   UNL     1       1.674   2.557  20.883  0.00  0.00    +0.000 A 
ATOM     14  C   UNL     1       0.818   3.002  19.878  0.00  0.00    +0.000 A 
ATOM     15  C   UNL     1       1.312   3.781  18.826  0.00  0.00    +0.000 A 
ENDBRANCH   3  10
BRANCH   1  17
ATOM     16  C   UNL     1       7.016   4.487  14.316  0.00  0.00    +0.000 C 
ATOM     17  N   UNL     1       6.449   4.142  15.616  0.00  0.00    +0.000 NA
ATOM     18  H   UNL     1       7.150   4.394  16.321  0.00  0.00    +0.000 HD
ENDBRANCH   1  17
BRANCH   9  19
ATOM     19  C   UNL     1       6.272   6.794  17.340  0.00  0.00    +0.000 C 
BRANCH  19  20
ATOM     20  O   UNL     1       7.634   6.830  16.940  0.00  0.00    +0.000 OA
ATOM     21  H   UNL     1       8.146   6.376  17.633  0.00  0.00    +0.000 HD
ENDBRANCH  19  20
ENDBRANCH   9  19
TORSDOF 4
ENDMDL
MODEL 5
REMARK VINA RESULT:      -6.4      3.048      5.848
REMARK  Name = 
REMARK  6 active torsions:
REMARK  status: ('A' for Active; 'I' for Inactive)
REMARK    1  A    between atoms: C_1  and  N_2
REMARK    2  A    between atoms: N_2  and  C_3
REMARK    3  A    between atoms: C_5  and  C_6
REMARK    4  A    between atoms: C_13  and  C_14
REMARK    5  A    between atoms: C_17  and  C_18
REMARK    6  A    between atoms: C_18  and  O_19
REMARK                            x       y       z     vdW  Elec       q    Type
REMARK                         _______ _______ _______ _____ _____    ______ ____
ROOT
ATOM      1  C   UNL     1       5.267   4.885  15.967  0.00  0.00    +0.000 C 
ATOM      2  C   UNL     1       4.554   4.137  17.104  0.00  0.00    +0.000 C 
ATOM      3  C   UNL     1       3.216   4.798  17.546  0.00  0.00    +0.000 C 
ATOM      4  N   UNL     1       3.369   6.273  17.714  0.00  0.00    +0.000 N 
ATOM      5  C   UNL     1       2.822   7.155  18.638  0.00  0.00    +0.000 C 
ATOM      6  C   UNL     1       2.152   6.670  19.890  0.00  0.00    +0.000 C 
ATOM      7  O   UNL     1       2.939   8.379  18.504  0.00  0.00    +0.000 OA
ATOM      8  C   UNL     1       3.987   6.918  16.545  0.00  0.00    +0.000 C 
ATOM      9  C   UNL     1       5.401   6.384  16.312  0.00  0.00    +0.000 C 
ENDROOT
BRANCH   3  10
ATOM     10  C   UNL     1       2.654   3.963  18.683  0.00  0.00    +0.000 A 
ATOM     11  C   UNL     1       1.285   3.667  18.781  0.00  0.00    +0.000 A 
ATOM     12  C   UNL     1       0.783   2.959  19.877  0.00  0.00    +0.000 A 
ATOM     13  C   UNL     1       1.636   2.557  20.900  0.00  0.00    +0.000 A 
ATOM     14  C   UNL     1       2.995   2.854  20.826  0.00  0.00    +0.000 A 
ATOM     15  C   UNL     1       3.505   3.549  19.724  0.00  0.00    +0.000 A 
ENDBRANCH   3  10
BRANCH   1  17
ATOM     16  C   UNL     1       7.064   4.512  14.346  0.00  0.00    +0.000 C 
ATOM     17  N   UNL     1       6.522   4.179  15.660  0.00  0.00    +0.000 NA
ATOM     18  H   UNL     1       7.226   4.461  16.350  0.00  0.00    +0.000 HD
ENDBRANCH   1  17
BRANCH   9  19
ATOM     19  C   UNL     1       6.279   6.727  17.528  0.00  0.00    +0.000 C 
BRANCH  19  20
ATOM     20  O   UNL     1       7.652   6.478  17.263  0.00  0.00    +0.000 OA
ATOM     21  H   UNL     1       8.127   7.313  17.415  0.00  0.00    +0.000 HD
ENDBRANCH  19  20
ENDBRANCH   9  19
TORSDOF 4
ENDMDL
MODEL 6
REMARK VINA RESULT:      -6.4      2.278      4.745
REMARK  Name = 
REMARK  6 active torsions:
REMARK  status: ('A' for Active; 'I' for Inactive)
REMARK    1  A    between atoms: C_1  and  N_2
REMARK    2  A    between atoms: N_2  and  C_3
REMARK    3  A    between atoms: C_5  and  C_6
REMARK    4  A    between atoms: C_13  and  C_14
REMARK    5  A    between atoms: C_17  and  C_18
REMARK    6  A    between atoms: C_18  and  O_19
REMARK                            x       y       z     vdW  Elec       q    Type
REMARK                         _______ _______ _______ _____ _____    ______ ____
ROOT
ATOM      1  C   UNL     1       2.046   2.835  18.819  0.00  0.00    +0.000 C 
ATOM      2  C   UNL     1       1.860   4.331  19.121  0.00  0.00    +0.000 C 
ATOM      3  C   UNL     1       2.447   5.269  18.025  0.00  0.00    +0.000 C 
ATOM      4  N   UNL     1       3.818   4.837  17.621  0.00  0.00    +0.000 N 
ATOM      5  C   UNL     1       4.948   5.570  17.281  0.00  0.00    +0.000 C 
ATOM      6  C   UNL     1       5.050   7.041  17.564  0.00  0.00    +0.000 C 
ATOM      7  O   UNL     1       5.950   5.021  16.805  0.00  0.00    +0.000 OA
ATOM      8  C   UNL     1       3.886   3.410  17.273  0.00  0.00    +0.000 C 
ATOM      9  C   UNL     1       3.521   2.538  18.475  0.00  0.00    +0.000 C 
ENDROOT
BRANCH   3  10
ATOM     10  C   UNL     1       2.208   6.698  18.480  0.00  0.00    +0.000 A 
ATOM     11  C   UNL     1       2.092   7.035  19.838  0.00  0.00    +0.000 A 
ATOM     12  C   UNL     1       1.798   8.345  20.227  0.00  0.00    +0.000 A 
ATOM     13  C   UNL     1       1.593   9.331  19.266  0.00  0.00    +0.000 A 
ATOM     14  C   UNL     1       1.691   9.011  17.914  0.00  0.00    +0.000 A 
ATOM     15  C   UNL     1       1.999   7.704  17.519  0.00  0.00    +0.000 A 
ENDBRANCH   3  10
BRANCH   1  17
ATOM     16  C   UNL     1       1.247   2.859  21.133  0.00  0.00    +0.000 C 
ATOM     17  N   UNL     1       1.474   2.060  19.932  0.00  0.00    +0.000 NA
ATOM     18  H   UNL     1       0.560   1.702  19.637  0.00  0.00    +0.000 HD
ENDBRANCH   1  17
BRANCH   9  19
ATOM     19  C   UNL     1       4.544   2.773  19.600  0.00  0.00    +0.000 C 
BRANCH  19  20
ATOM     20  O   UNL     1       5.161   1.558  20.001  0.00  0.00    +0.000 OA
ATOM     21  H   UNL     1       5.291   1.026  19.197  0.00  0.00    +0.000 HD
ENDBRANCH  19  20
ENDBRANCH   9  19
TORSDOF 4
ENDMDL
MODEL 7
REMARK VINA RESULT:      -6.4      2.798      5.424
REMARK  Name = 
REMARK  6 active torsions:
REMARK  status: ('A' for Active; 'I' for Inactive)
REMARK    1  A    between atoms: C_1  and  N_2
REMARK    2  A    between atoms: N_2  and  C_3
REMARK    3  A    between atoms: C_5  and  C_6
REMARK    4  A    between atoms: C_13  and  C_14
REMARK    5  A    between atoms: C_17  and  C_18
REMARK    6  A    between atoms: C_18  and  O_19
REMARK                            x       y       z     vdW  Elec       q    Type
REMARK                         _______ _______ _______ _____ _____    ______ ____
ROOT
ATOM      1  C   UNL     1       6.526   5.579  17.431  0.00  0.00    +0.000 C 
ATOM      2  C   UNL     1       5.397   6.555  17.795  0.00  0.00    +0.000 C 
ATOM      3  C   UNL     1       4.178   5.874  18.484  0.00  0.00    +0.000 C 
ATOM      4  N   UNL     1       3.775   4.630  17.765  0.00  0.00    +0.000 N 
ATOM      5  C   UNL     1       2.525   4.080  17.510  0.00  0.00    +0.000 C 
ATOM      6  C   UNL     1       1.262   4.870  17.697  0.00  0.00    +0.000 C 
ATOM      7  O   UNL     1       2.408   2.941  17.040  0.00  0.00    +0.000 OA
ATOM      8  C   UNL     1       4.904   3.718  17.529  0.00  0.00    +0.000 C 
ATOM      9  C   UNL     1       5.963   4.377  16.644  0.00  0.00    +0.000 C 
ENDROOT
BRANCH   3  10
ATOM     10  C   UNL     1       3.149   6.958  18.754  0.00  0.00    +0.000 A 
ATOM     11  C   UNL     1       2.425   7.012  19.955  0.00  0.00    +0.000 A 
ATOM     12  C   UNL     1       1.430   7.975  20.148  0.00  0.00    +0.000 A 
ATOM     13  C   UNL     1       1.130   8.883  19.136  0.00  0.00    +0.000 A 
ATOM     14  C   UNL     1       1.830   8.836  17.933  0.00  0.00    +0.000 A 
ATOM     15  C   UNL     1       2.836   7.883  17.740  0.00  0.00    +0.000 A 
ENDBRANCH   3  10
BRANCH   1  17
ATOM     16  C   UNL     1       7.791   7.673  17.324  0.00  0.00    +0.000 C 
ATOM     17  N   UNL     1       7.602   6.336  16.770  0.00  0.00    +0.000 NA
ATOM     18  H   UNL     1       8.483   5.830  16.909  0.00  0.00    +0.000 HD
ENDBRANCH   1  17
BRANCH   9  19
ATOM     19  C   UNL     1       5.347   4.691  15.269  0.00  0.00    +0.000 C 
BRANCH  19  20
ATOM     20  O   UNL     1       6.227   5.475  14.475  0.00  0.00    +0.000 OA
ATOM     21  H   UNL     1       7.092   5.029  14.485  0.00  0.00    +0.000 HD
ENDBRANCH  19  20
ENDBRANCH   9  19
TORSDOF 4
ENDMDL
MODEL 8
REMARK VINA RESULT:      -6.1      1.661      4.919
REMARK  Name = 
REMARK  6 active torsions:
REMARK  status: ('A' for Active; 'I' for Inactive)
REMARK    1  A    between atoms: C_1  and  N_2
REMARK    2  A    between atoms: N_2  and  C_3
REMARK    3  A    between atoms: C_5  and  C_6
REMARK    4  A    between atoms: C_13  and  C_14
REMARK    5  A    between atoms: C_17  and  C_18
REMARK    6  A    between atoms: C_18  and  O_19
REMARK                            x       y       z     vdW  Elec       q    Type
REMARK                         _______ _______ _______ _____ _____    ______ ____
ROOT
ATOM      1  C   UNL     1       5.432   4.064  18.647  0.00  0.00    +0.000 C 
ATOM      2  C   UNL     1       4.521   5.296  18.528  0.00  0.00    +0.000 C 
ATOM      3  C   UNL     1       3.529   5.459  19.716  0.00  0.00    +0.000 C 
ATOM      4  N   UNL     1       2.859   4.166  20.043  0.00  0.00    +0.000 N 
ATOM      5  C   UNL     1       1.560   3.881  20.448  0.00  0.00    +0.000 C 
ATOM      6  C   UNL     1       0.459   4.895  20.340  0.00  0.00    +0.000 C 
ATOM      7  O   UNL     1       1.244   2.750  20.838  0.00  0.00    +0.000 OA
ATOM      8  C   UNL     1       3.811   3.059  20.218  0.00  0.00    +0.000 C 
ATOM      9  C   UNL     1       4.590   2.801  18.928  0.00  0.00    +0.000 C 
ENDROOT
BRANCH   3  10
ATOM     10  C   UNL     1       2.691   6.695  19.439  0.00  0.00    +0.000 A 
ATOM     11  C   UNL     1       2.544   7.216  18.143  0.00  0.00    +0.000 A 
ATOM     12  C   UNL     1       1.829   8.398  17.925  0.00  0.00    +0.000 A 
ATOM     13  C   UNL     1       1.271   9.086  18.998  0.00  0.00    +0.000 A 
ATOM     14  C   UNL     1       1.420   8.590  20.291  0.00  0.00    +0.000 A 
ATOM     15  C   UNL     1       2.122   7.401  20.514  0.00  0.00    +0.000 A 
ENDBRANCH   3  10
BRANCH   1  17
ATOM     16  C   UNL     1       7.588   4.667  17.656  0.00  0.00    +0.000 C 
ATOM     17  N   UNL     1       6.300   4.010  17.459  0.00  0.00    +0.000 NA
ATOM     18  H   UNL     1       6.499   3.025  17.252  0.00  0.00    +0.000 HD
ENDBRANCH   1  17
BRANCH   9  19
ATOM     19  C   UNL     1       3.609   2.376  17.821  0.00  0.00    +0.000 C 
BRANCH  19  20
ATOM     20  O   UNL     1       2.671   1.422  18.299  0.00  0.00    +0.000 OA
ATOM     21  H   UNL     1       2.026   1.906  18.843  0.00  0.00    +0.000 HD
ENDBRANCH  19  20
ENDBRANCH   9  19
TORSDOF 4
ENDMDL
MODEL 9
REMARK VINA RESULT:      -6.0      2.341      4.969
REMARK  Name = 
REMARK  6 active torsions:
REMARK  status: ('A' for Active; 'I' for Inactive)
REMARK    1  A    between atoms: C_1  and  N_2
REMARK    2  A    between atoms: N_2  and  C_3
REMARK    3  A    between atoms: C_5  and  C_6
REMARK    4  A    between atoms: C_13  and  C_14
REMARK    5  A    between atoms: C_17  and  C_18
REMARK    6  A    between atoms: C_18  and  O_19
REMARK                            x       y       z     vdW  Elec       q    Type
REMARK                         _______ _______ _______ _____ _____    ______ ____
ROOT
ATOM      1  C   UNL     1       2.240   2.869  18.513  0.00  0.00    +0.000 C 
ATOM      2  C   UNL     1       1.923   4.324  18.894  0.00  0.00    +0.000 C 
ATOM      3  C   UNL     1       2.453   5.369  17.869  0.00  0.00    +0.000 C 
ATOM      4  N   UNL     1       3.864   5.077  17.478  0.00  0.00    +0.000 N 
ATOM      5  C   UNL     1       4.936   5.919  17.211  0.00  0.00    +0.000 C 
ATOM      6  C   UNL     1       4.908   7.374  17.578  0.00  0.00    +0.000 C 
ATOM      7  O   UNL     1       5.990   5.483  16.732  0.00  0.00    +0.000 OA
ATOM      8  C   UNL     1       4.059   3.683  17.053  0.00  0.00    +0.000 C 
ATOM      9  C   UNL     1       3.742   2.715  18.193  0.00  0.00    +0.000 C 
ENDROOT
BRANCH   3  10
ATOM     10  C   UNL     1       2.084   6.745  18.397  0.00  0.00    +0.000 A 
ATOM     11  C   UNL     1       1.850   7.831  17.539  0.00  0.00    +0.000 A 
ATOM     12  C   UNL     1       1.586   9.104  18.052  0.00  0.00    +0.000 A 
ATOM     13  C   UNL     1       1.574   9.315  19.428  0.00  0.00    +0.000 A 
ATOM     14  C   UNL     1       1.818   8.251  20.293  0.00  0.00    +0.000 A 
ATOM     15  C   UNL     1       2.069   6.972  19.785  0.00  0.00    +0.000 A 
ENDBRANCH   3  10
BRANCH   1  17
ATOM     16  C   UNL     1       1.329   2.701  20.780  0.00  0.00    +0.000 C 
ATOM     17  N   UNL     1       1.711   1.986  19.566  0.00  0.00    +0.000 NA
ATOM     18  H   UNL     1       0.863   1.534  19.209  0.00  0.00    +0.000 HD
ENDBRANCH   1  17
BRANCH   9  19
ATOM     19  C   UNL     1       4.717   2.968  19.357  0.00  0.00    +0.000 C 
BRANCH  19  20
ATOM     20  O   UNL     1       4.974   1.776  20.085  0.00  0.00    +0.000 OA
ATOM     21  H   UNL     1       5.805   1.406  19.740  0.00  0.00    +0.000 HD
ENDBRANCH  19  20
ENDBRANCH   9  19
TORSDOF 4
ENDMDL
