MODEL 1
REMARK VINA RESULT:      -6.3      0.000      0.000
REMARK  Name = 
REMARK  14 active torsions:
REMARK  status: ('A' for Active; 'I' for Inactive)
REMARK    1  A    between atoms: C_1  and  C_2
REMARK    2  A    between atoms: C_2  and  C_3
REMARK    3  A    between atoms: C_3  and  C_5
REMARK    4  A    between atoms: C_5  and  C_6
REMARK    5  A    between atoms: C_6  and  C_7
REMARK    6  A    between atoms: C_8  and  C_9
REMARK    7  A    between atoms: C_9  and  C_10
REMARK    8  A    between atoms: C_10  and  C_11
REMARK    9  A    between atoms: C_12  and  C_13
REMARK   10  A    between atoms: C_14  and  C_15
REMARK   11  A    between atoms: N_17  and  C_18
REMARK   12  A    between atoms: C_18  and  C_19
REMARK   13  A    between atoms: C_19  and  C_20
REMARK   14  A    between atoms: C_19  and  C_21
REMARK                            x       y       z     vdW  Elec       q    Type
REMARK                         _______ _______ _______ _____ _____    ______ ____
ROOT
ATOM      1  C   UNL     1       3.095   2.258  17.688  0.00  0.00    +0.000 C 
ATOM      2  C   UNL     1       3.993   3.250  17.707  0.00  0.00    +0.000 C 
ENDROOT
BRANCH   2   3
ATOM      3  C   UNL     1       4.698   3.638  16.505  0.00  0.00    +0.000 C 
ATOM      4  C   UNL     1       5.943   4.129  16.508  0.00  0.00    +0.000 C 
BRANCH   4   5
ATOM      5  C   UNL     1       6.581   4.486  15.214  0.00  0.00    +0.000 C 
ATOM      6  O   UNL     1       7.376   5.408  15.096  0.00  0.00    +0.000 OA
ATOM      7  N   UNL     1       6.181   3.674  14.183  0.00  0.00    +0.000 N 
ATOM      8  H   UNL     1       5.549   2.906  14.357  0.00  0.00    +0.000 HD
BRANCH   7   9
ATOM      9  C   UNL     1       6.689   3.849  12.837  0.00  0.00    +0.000 C 
BRANCH   9  10
ATOM     10  C   UNL     1       5.774   3.232  11.768  0.00  0.00    +0.000 C 
ATOM     11  C   UNL     1       6.012   1.728  11.616  0.00  0.00    +0.000 C 
ATOM     12  C   UNL     1       4.310   3.490  12.131  0.00  0.00    +0.000 C 
ENDBRANCH   9  10
ENDBRANCH   7   9
ENDBRANCH   4   5
ENDBRANCH   2   3
BRANCH   1  13
ATOM     13  C   UNL     1       2.335   1.793  18.899  0.00  0.00    +0.000 C 
BRANCH  13  14
ATOM     14  C   UNL     1       1.170   2.720  19.269  0.00  0.00    +0.000 C 
BRANCH  14  16
ATOM     15  C   UNL     1       1.644   4.791  20.665  0.00  0.00    +0.000 C 
ATOM     16  C   UNL     1       1.378   3.479  20.561  0.00  0.00    +0.000 C 
BRANCH  15  17
ATOM     17  C   UNL     1       1.771   5.718  19.497  0.00  0.00    +0.000 C 
BRANCH  17  18
ATOM     18  C   UNL     1       3.142   6.374  19.375  0.00  0.00    +0.000 C 
BRANCH  18  19
ATOM     19  C   UNL     1       3.244   7.098  18.041  0.00  0.00    +0.000 C 
ATOM     20  O   UNL     1       4.257   7.049  17.341  0.00  0.00    +0.000 OA
BRANCH  19  22
ATOM     21  C   UNL     1       2.112   9.325  18.111  0.00  0.00    +0.000 C 
ATOM     22  C   UNL     1       2.030   7.892  17.615  0.00  0.00    +0.000 C 
ENDBRANCH  19  22
ENDBRANCH  18  19
ENDBRANCH  17  18
ENDBRANCH  15  17
ENDBRANCH  14  16
ENDBRANCH  13  14
ENDBRANCH   1  13
TORSDOF 11
ENDMDL
MODEL 2
REMARK VINA RESULT:      -6.3      1.601      3.584
REMARK  Name = 
REMARK  14 active torsions:
REMARK  status: ('A' for Active; 'I' for Inactive)
REMARK    1  A    between atoms: C_1  and  C_2
REMARK    2  A    between atoms: C_2  and  C_3
REMARK    3  A    between atoms: C_3  and  C_5
REMARK    4  A    between atoms: C_5  and  C_6
REMARK    5  A    between atoms: C_6  and  C_7
REMARK    6  A    between atoms: C_8  and  C_9
REMARK    7  A    between atoms: C_9  and  C_10
REMARK    8  A    between atoms: C_10  and  C_11
REMARK    9  A    between atoms: C_12  and  C_13
REMARK   10  A    between atoms: C_14  and  C_15
REMARK   11  A    between atoms: N_17  and  C_18
REMARK   12  A    between atoms: C_18  and  C_19
REMARK   13  A    between atoms: C_19  and  C_20
REMARK   14  A    between atoms: C_19  and  C_21
REMARK                            x       y       z     vdW  Elec       q    Type
REMARK                         _______ _______ _______ _____ _____    ______ ____
ROOT
ATOM      1  C   UNL     1       3.138   6.624  18.387  0.00  0.00    +0.000 C 
ATOM      2  C   UNL     1       4.185   7.166  17.755  0.00  0.00    +0.000 C 
ENDROOT
BRANCH   2   3
ATOM      3  C   UNL     1       4.986   6.385  16.838  0.00  0.00    +0.000 C 
ATOM      4  C   UNL     1       6.280   6.109  17.042  0.00  0.00    +0.000 C 
BRANCH   4   5
ATOM      5  C   UNL     1       7.009   5.286  16.042  0.00  0.00    +0.000 C 
ATOM      6  O   UNL     1       7.827   4.431  16.353  0.00  0.00    +0.000 OA
ATOM      7  N   UNL     1       6.663   5.593  14.750  0.00  0.00    +0.000 N 
ATOM      8  H   UNL     1       5.952   6.285  14.564  0.00  0.00    +0.000 HD
BRANCH   7   9
ATOM      9  C   UNL     1       7.256   4.902  13.621  0.00  0.00    +0.000 C 
BRANCH   9  10
ATOM     10  C   UNL     1       6.445   3.674  13.180  0.00  0.00    +0.000 C 
ATOM     11  C   UNL     1       4.941   3.951  13.194  0.00  0.00    +0.000 C 
ATOM     12  C   UNL     1       6.880   3.245  11.777  0.00  0.00    +0.000 C 
ENDBRANCH   9  10
ENDBRANCH   7   9
ENDBRANCH   4   5
ENDBRANCH   2   3
BRANCH   1  13
ATOM     13  C   UNL     1       2.269   7.370  19.361  0.00  0.00    +0.000 C 
BRANCH  13  14
ATOM     14  C   UNL     1       1.609   6.456  20.401  0.00  0.00    +0.000 C 
BRANCH  14  16
ATOM     15  C   UNL     1       2.110   3.998  20.816  0.00  0.00    +0.000 C 
ATOM     16  C   UNL     1       2.474   5.290  20.828  0.00  0.00    +0.000 C 
BRANCH  15  17
ATOM     17  C   UNL     1       0.770   3.506  20.365  0.00  0.00    +0.000 C 
BRANCH  17  18
ATOM     18  C   UNL     1       0.837   2.446  19.271  0.00  0.00    +0.000 C 
BRANCH  18  19
ATOM     19  C   UNL     1       1.554   3.014  18.054  0.00  0.00    +0.000 C 
ATOM     20  O   UNL     1       1.190   4.053  17.501  0.00  0.00    +0.000 OA
BRANCH  19  22
ATOM     21  C   UNL     1       4.041   2.973  17.814  0.00  0.00    +0.000 C 
ATOM     22  C   UNL     1       2.744   2.228  17.551  0.00  0.00    +0.000 C 
ENDBRANCH  19  22
ENDBRANCH  18  19
ENDBRANCH  17  18
ENDBRANCH  15  17
ENDBRANCH  14  16
ENDBRANCH  13  14
ENDBRANCH   1  13
TORSDOF 11
ENDMDL
MODEL 3
REMARK VINA RESULT:      -6.2      1.798      3.555
REMARK  Name = 
REMARK  14 active torsions:
REMARK  status: ('A' for Active; 'I' for Inactive)
REMARK    1  A    between atoms: C_1  and  C_2
REMARK    2  A    between atoms: C_2  and  C_3
REMARK    3  A    between atoms: C_3  and  C_5
REMARK    4  A    between atoms: C_5  and  C_6
REMARK    5  A    between atoms: C_6  and  C_7
REMARK    6  A    between atoms: C_8  and  C_9
REMARK    7  A    between atoms: C_9  and  C_10
REMARK    8  A    between atoms: C_10  and  C_11
REMARK    9  A    between atoms: C_12  and  C_13
REMARK   10  A    between atoms: C_14  and  C_15
REMARK   11  A    between atoms: N_17  and  C_18
REMARK   12  A    between atoms: C_18  and  C_19
REMARK   13  A    between atoms: C_19  and  C_20
REMARK   14  A    between atoms: C_19  and  C_21
REMARK                            x       y       z     vdW  Elec       q    Type
REMARK                         _______ _______ _______ _____ _____    ______ ____
ROOT
ATOM      1  C   UNL     1       4.813   5.926  18.205  0.00  0.00    +0.000 C 
ATOM      2  C   UNL     1       4.366   6.202  16.975  0.00  0.00    +0.000 C 
ENDROOT
BRANCH   2   3
ATOM      3  C   UNL     1       5.193   5.962  15.812  0.00  0.00    +0.000 C 
ATOM      4  C   UNL     1       5.834   4.808  15.590  0.00  0.00    +0.000 C 
BRANCH   4   5
ATOM      5  C   UNL     1       6.649   4.660  14.356  0.00  0.00    +0.000 C 
ATOM      6  O   UNL     1       7.680   5.290  14.160  0.00  0.00    +0.000 OA
ATOM      7  N   UNL     1       6.119   3.750  13.477  0.00  0.00    +0.000 N 
ATOM      8  H   UNL     1       5.283   3.237  13.717  0.00  0.00    +0.000 HD
BRANCH   7   9
ATOM      9  C   UNL     1       6.762   3.453  12.211  0.00  0.00    +0.000 C 
BRANCH   9  10
ATOM     10  C   UNL     1       5.835   2.728  11.226  0.00  0.00    +0.000 C 
ATOM     11  C   UNL     1       5.966   1.207  11.337  0.00  0.00    +0.000 C 
ATOM     12  C   UNL     1       4.384   3.142  11.481  0.00  0.00    +0.000 C 
ENDBRANCH   9  10
ENDBRANCH   7   9
ENDBRANCH   4   5
ENDBRANCH   2   3
BRANCH   1  13
ATOM     13  C   UNL     1       4.016   6.160  19.457  0.00  0.00    +0.000 C 
BRANCH  13  14
ATOM     14  C   UNL     1       2.506   6.254  19.201  0.00  0.00    +0.000 C 
BRANCH  14  16
ATOM     15  C   UNL     1       1.342   4.717  20.857  0.00  0.00    +0.000 C 
ATOM     16  C   UNL     1       1.659   5.944  20.415  0.00  0.00    +0.000 C 
BRANCH  15  17
ATOM     17  C   UNL     1       1.792   3.446  20.207  0.00  0.00    +0.000 C 
BRANCH  17  18
ATOM     18  C   UNL     1       2.782   2.642  21.044  0.00  0.00    +0.000 C 
BRANCH  18  19
ATOM     19  C   UNL     1       4.029   2.353  20.221  0.00  0.00    +0.000 C 
ATOM     20  O   UNL     1       5.054   1.887  20.720  0.00  0.00    +0.000 OA
BRANCH  19  22
ATOM     21  C   UNL     1       3.464   1.474  17.951  0.00  0.00    +0.000 C 
ATOM     22  C   UNL     1       3.947   2.675  18.746  0.00  0.00    +0.000 C 
ENDBRANCH  19  22
ENDBRANCH  18  19
ENDBRANCH  17  18
ENDBRANCH  15  17
ENDBRANCH  14  16
ENDBRANCH  13  14
ENDBRANCH   1  13
TORSDOF 11
ENDMDL
MODEL 4
REMARK VINA RESULT:      -6.0      5.818      8.504
REMARK  Name = 
REMARK  14 active torsions:
REMARK  status: ('A' for Active; 'I' for Inactive)
REMARK    1  A    between atoms: C_1  and  C_2
REMARK    2  A    between atoms: C_2  and  C_3
REMARK    3  A    between atoms: C_3  and  C_5
REMARK    4  A    between atoms: C_5  and  C_6
REMARK    5  A    between atoms: C_6  and  C_7
REMARK    6  A    between atoms: C_8  and  C_9
REMARK    7  A    between atoms: C_9  and  C_10
REMARK    8  A    between atoms: C_10  and  C_11
REMARK    9  A    between atoms: C_12  and  C_13
REMARK   10  A    between atoms: C_14  and  C_15
REMARK   11  A    between atoms: N_17  and  C_18
REMARK   12  A    between atoms: C_18  and  C_19
REMARK   13  A    between atoms: C_19  and  C_20
REMARK   14  A    between atoms: C_19  and  C_21
REMARK                            x       y       z     vdW  Elec       q    Type
REMARK                         _______ _______ _______ _____ _____    ______ ____
ROOT
ATOM      1  C   UNL     1       7.988   7.067  18.340  0.00  0.00    +0.000 C 
ATOM      2  C   UNL     1       7.657   8.173  17.664  0.00  0.00    +0.000 C 
ENDROOT
BRANCH   2   3
ATOM      3  C   UNL     1       8.325   9.430  17.924  0.00  0.00    +0.000 C 
ATOM      4  C   UNL     1       9.115   9.639  18.984  0.00  0.00    +0.000 C 
BRANCH   4   5
ATOM      5  C   UNL     1       9.765  10.965  19.150  0.00  0.00    +0.000 C 
ATOM      6  O   UNL     1      10.129  11.651  18.205  0.00  0.00    +0.000 OA
ATOM      7  N   UNL     1       9.906  11.325  20.467  0.00  0.00    +0.000 N 
ATOM      8  H   UNL     1       9.549  10.728  21.199  0.00  0.00    +0.000 HD
BRANCH   7   9
ATOM      9  C   UNL     1      10.512  12.586  20.849  0.00  0.00    +0.000 C 
BRANCH   9  10
ATOM     10  C   UNL     1       9.552  13.497  21.628  0.00  0.00    +0.000 C 
ATOM     11  C   UNL     1       8.563  14.206  20.701  0.00  0.00    +0.000 C 
ATOM     12  C   UNL     1       8.788  12.674  22.668  0.00  0.00    +0.000 C 
ENDBRANCH   9  10
ENDBRANCH   7   9
ENDBRANCH   4   5
ENDBRANCH   2   3
BRANCH   1  13
ATOM     13  C   UNL     1       7.330   5.732  18.132  0.00  0.00    +0.000 C 
BRANCH  13  14
ATOM     14  C   UNL     1       5.803   5.825  18.017  0.00  0.00    +0.000 C 
BRANCH  14  16
ATOM     15  C   UNL     1       4.297   4.292  16.657  0.00  0.00    +0.000 C 
ATOM     16  C   UNL     1       5.249   5.235  16.738  0.00  0.00    +0.000 C 
BRANCH  15  17
ATOM     17  C   UNL     1       3.621   3.676  17.842  0.00  0.00    +0.000 C 
BRANCH  17  18
ATOM     18  C   UNL     1       2.471   4.507  18.399  0.00  0.00    +0.000 C 
BRANCH  18  19
ATOM     19  C   UNL     1       1.367   3.584  18.893  0.00  0.00    +0.000 C 
ATOM     20  O   UNL     1       0.906   2.677  18.199  0.00  0.00    +0.000 OA
BRANCH  19  22
ATOM     21  C   UNL     1       1.410   2.822  21.273  0.00  0.00    +0.000 C 
ATOM     22  C   UNL     1       0.856   3.841  20.293  0.00  0.00    +0.000 C 
ENDBRANCH  19  22
ENDBRANCH  18  19
ENDBRANCH  17  18
ENDBRANCH  15  17
ENDBRANCH  14  16
ENDBRANCH  13  14
ENDBRANCH   1  13
TORSDOF 11
ENDMDL
MODEL 5
REMARK VINA RESULT:      -6.0      3.273      7.071
REMARK  Name = 
REMARK  14 active torsions:
REMARK  status: ('A' for Active; 'I' for Inactive)
REMARK    1  A    between atoms: C_1  and  C_2
REMARK    2  A    between atoms: C_2  and  C_3
REMARK    3  A    between atoms: C_3  and  C_5
REMARK    4  A    between atoms: C_5  and  C_6
REMARK    5  A    between atoms: C_6  and  C_7
REMARK    6  A    between atoms: C_8  and  C_9
REMARK    7  A    between atoms: C_9  and  C_10
REMARK    8  A    between atoms: C_10  and  C_11
REMARK    9  A    between atoms: C_12  and  C_13
REMARK   10  A    between atoms: C_14  and  C_15
REMARK   11  A    between atoms: N_17  and  C_18
REMARK   12  A    between atoms: C_18  and  C_19
REMARK   13  A    between atoms: C_19  and  C_20
REMARK   14  A    between atoms: C_19  and  C_21
REMARK                            x       y       z     vdW  Elec       q    Type
REMARK                         _______ _______ _______ _____ _____    ______ ____
ROOT
ATOM      1  C   UNL     1       1.621   5.505  20.498  0.00  0.00    +0.000 C 
ATOM      2  C   UNL     1       2.390   6.251  19.696  0.00  0.00    +0.000 C 
ENDROOT
BRANCH   2   3
ATOM      3  C   UNL     1       2.102   7.652  19.483  0.00  0.00    +0.000 C 
ATOM      4  C   UNL     1       2.055   8.218  18.270  0.00  0.00    +0.000 C 
BRANCH   4   5
ATOM      5  C   UNL     1       1.739   9.666  18.161  0.00  0.00    +0.000 C 
ATOM      6  O   UNL     1       2.444  10.457  17.550  0.00  0.00    +0.000 OA
ATOM      7  N   UNL     1       0.582  10.007  18.816  0.00  0.00    +0.000 N 
ATOM      8  H   UNL     1       0.026   9.297  19.270  0.00  0.00    +0.000 HD
BRANCH   7   9
ATOM      9  C   UNL     1       0.090  11.371  18.829  0.00  0.00    +0.000 C 
BRANCH   9  10
ATOM     10  C   UNL     1      -1.308  11.507  18.207  0.00  0.00    +0.000 C 
ATOM     11  C   UNL     1      -1.820  10.173  17.662  0.00  0.00    +0.000 C 
ATOM     12  C   UNL     1      -2.286  12.050  19.251  0.00  0.00    +0.000 C 
ENDBRANCH   9  10
ENDBRANCH   7   9
ENDBRANCH   4   5
ENDBRANCH   2   3
BRANCH   1  13
ATOM     13  C   UNL     1       1.852   4.043  20.757  0.00  0.00    +0.000 C 
BRANCH  13  14
ATOM     14  C   UNL     1       1.104   3.133  19.774  0.00  0.00    +0.000 C 
BRANCH  14  16
ATOM     15  C   UNL     1       2.784   2.057  18.200  0.00  0.00    +0.000 C 
ATOM     16  C   UNL     1       1.939   1.990  19.241  0.00  0.00    +0.000 C 
BRANCH  15  17
ATOM     17  C   UNL     1       3.037   3.296  17.399  0.00  0.00    +0.000 C 
BRANCH  17  18
ATOM     18  C   UNL     1       4.377   3.960  17.695  0.00  0.00    +0.000 C 
BRANCH  18  19
ATOM     19  C   UNL     1       4.832   4.754  16.480  0.00  0.00    +0.000 C 
ATOM     20  O   UNL     1       5.252   4.211  15.457  0.00  0.00    +0.000 OA
BRANCH  19  22
ATOM     21  C   UNL     1       6.010   6.835  17.207  0.00  0.00    +0.000 C 
ATOM     22  C   UNL     1       4.746   6.260  16.593  0.00  0.00    +0.000 C 
ENDBRANCH  19  22
ENDBRANCH  18  19
ENDBRANCH  17  18
ENDBRANCH  15  17
ENDBRANCH  14  16
ENDBRANCH  13  14
ENDBRANCH   1  13
TORSDOF 11
ENDMDL
MODEL 6
REMARK VINA RESULT:      -5.9      6.056      8.127
REMARK  Name = 
REMARK  14 active torsions:
REMARK  status: ('A' for Active; 'I' for Inactive)
REMARK    1  A    between atoms: C_1  and  C_2
REMARK    2  A    between atoms: C_2  and  C_3
REMARK    3  A    between atoms: C_3  and  C_5
REMARK    4  A    between atoms: C_5  and  C_6
REMARK    5  A    between atoms: C_6  and  C_7
REMARK    6  A    between atoms: C_8  and  C_9
REMARK    7  A    between atoms: C_9  and  C_10
REMARK    8  A    between atoms: C_10  and  C_11
REMARK    9  A    between atoms: C_12  and  C_13
REMARK   10  A    between atoms: C_14  and  C_15
REMARK   11  A    between atoms: N_17  and  C_18
REMARK   12  A    between atoms: C_18  and  C_19
REMARK   13  A    between atoms: C_19  and  C_20
REMARK   14  A    between atoms: C_19  and  C_21
REMARK                            x       y       z     vdW  Elec       q    Type
REMARK                         _______ _______ _______ _____ _____    ______ ____
ROOT
ATOM      1  C   UNL     1       7.383   7.118  17.493  0.00  0.00    +0.000 C 
ATOM      2  C   UNL     1       8.108   7.979  18.216  0.00  0.00    +0.000 C 
ENDROOT
BRANCH   2   3
ATOM      3  C   UNL     1       8.139   9.387  17.886  0.00  0.00    +0.000 C 
ATOM      4  C   UNL     1       8.979  10.259  18.457  0.00  0.00    +0.000 C 
BRANCH   4   5
ATOM      5  C   UNL     1       8.937  11.683  18.036  0.00  0.00    +0.000 C 
ATOM      6  O   UNL     1       8.056  12.139  17.320  0.00  0.00    +0.000 OA
ATOM      7  N   UNL     1       9.984  12.415  18.536  0.00  0.00    +0.000 N 
ATOM      8  H   UNL     1      10.658  11.984  19.152  0.00  0.00    +0.000 HD
BRANCH   7   9
ATOM      9  C   UNL     1      10.128  13.829  18.248  0.00  0.00    +0.000 C 
BRANCH   9  10
ATOM     10  C   UNL     1      10.996  14.101  17.011  0.00  0.00    +0.000 C 
ATOM     11  C   UNL     1      11.358  15.582  16.886  0.00  0.00    +0.000 C 
ATOM     12  C   UNL     1      12.272  13.260  17.079  0.00  0.00    +0.000 C 
ENDBRANCH   9  10
ENDBRANCH   7   9
ENDBRANCH   4   5
ENDBRANCH   2   3
BRANCH   1  13
ATOM     13  C   UNL     1       7.313   5.643  17.769  0.00  0.00    +0.000 C 
BRANCH  13  14
ATOM     14  C   UNL     1       5.890   5.154  18.073  0.00  0.00    +0.000 C 
BRANCH  14  16
ATOM     15  C   UNL     1       4.246   3.731  16.756  0.00  0.00    +0.000 C 
ATOM     16  C   UNL     1       5.104   4.760  16.842  0.00  0.00    +0.000 C 
BRANCH  15  17
ATOM     17  C   UNL     1       3.929   2.804  17.887  0.00  0.00    +0.000 C 
BRANCH  17  18
ATOM     18  C   UNL     1       2.439   2.536  18.066  0.00  0.00    +0.000 C 
BRANCH  18  19
ATOM     19  C   UNL     1       1.687   3.857  18.138  0.00  0.00    +0.000 C 
ATOM     20  O   UNL     1       0.933   4.236  17.241  0.00  0.00    +0.000 OA
BRANCH  19  22
ATOM     21  C   UNL     1       1.568   3.914  20.633  0.00  0.00    +0.000 C 
ATOM     22  C   UNL     1       1.919   4.692  19.378  0.00  0.00    +0.000 C 
ENDBRANCH  19  22
ENDBRANCH  18  19
ENDBRANCH  17  18
ENDBRANCH  15  17
ENDBRANCH  14  16
ENDBRANCH  13  14
ENDBRANCH   1  13
TORSDOF 11
ENDMDL
MODEL 7
REMARK VINA RESULT:      -5.9      4.375      7.946
REMARK  Name = 
REMARK  14 active torsions:
REMARK  status: ('A' for Active; 'I' for Inactive)
REMARK    1  A    between atoms: C_1  and  C_2
REMARK    2  A    between atoms: C_2  and  C_3
REMARK    3  A    between atoms: C_3  and  C_5
REMARK    4  A    between atoms: C_5  and  C_6
REMARK    5  A    between atoms: C_6  and  C_7
REMARK    6  A    between atoms: C_8  and  C_9
REMARK    7  A    between atoms: C_9  and  C_10
REMARK    8  A    between atoms: C_10  and  C_11
REMARK    9  A    between atoms: C_12  and  C_13
REMARK   10  A    between atoms: C_14  and  C_15
REMARK   11  A    between atoms: N_17  and  C_18
REMARK   12  A    between atoms: C_18  and  C_19
REMARK   13  A    between atoms: C_19  and  C_20
REMARK   14  A    between atoms: C_19  and  C_21
REMARK                            x       y       z     vdW  Elec       q    Type
REMARK                         _______ _______ _______ _____ _____    ______ ____
ROOT
ATOM      1  C   UNL     1       2.869   6.927  18.081  0.00  0.00    +0.000 C 
ATOM      2  C   UNL     1       2.726   8.198  17.688  0.00  0.00    +0.000 C 
ENDROOT
BRANCH   2   3
ATOM      3  C   UNL     1       1.459   8.883  17.832  0.00  0.00    +0.000 C 
ATOM      4  C   UNL     1       1.112   9.565  18.930  0.00  0.00    +0.000 C 
BRANCH   4   5
ATOM      5  C   UNL     1      -0.210  10.243  18.971  0.00  0.00    +0.000 C 
ATOM      6  O   UNL     1      -0.798  10.493  20.014  0.00  0.00    +0.000 OA
ATOM      7  N   UNL     1      -0.686  10.551  17.721  0.00  0.00    +0.000 N 
ATOM      8  H   UNL     1      -0.132  10.350  16.901  0.00  0.00    +0.000 HD
BRANCH   7   9
ATOM      9  C   UNL     1      -1.959  11.222  17.538  0.00  0.00    +0.000 C 
BRANCH   9  10
ATOM     10  C   UNL     1      -3.096  10.255  17.175  0.00  0.00    +0.000 C 
ATOM     11  C   UNL     1      -4.454  10.770  17.656  0.00  0.00    +0.000 C 
ATOM     12  C   UNL     1      -3.129  10.042  15.660  0.00  0.00    +0.000 C 
ENDBRANCH   9  10
ENDBRANCH   7   9
ENDBRANCH   4   5
ENDBRANCH   2   3
BRANCH   1  13
ATOM     13  C   UNL     1       4.149   6.150  17.952  0.00  0.00    +0.000 C 
BRANCH  13  14
ATOM     14  C   UNL     1       3.936   4.722  17.434  0.00  0.00    +0.000 C 
BRANCH  14  16
ATOM     15  C   UNL     1       3.471   2.551  18.673  0.00  0.00    +0.000 C 
ATOM     16  C   UNL     1       4.214   3.650  18.465  0.00  0.00    +0.000 C 
BRANCH  15  17
ATOM     17  C   UNL     1       2.236   2.212  17.898  0.00  0.00    +0.000 C 
BRANCH  17  18
ATOM     18  C   UNL     1       0.940   2.489  18.651  0.00  0.00    +0.000 C 
BRANCH  18  19
ATOM     19  C   UNL     1       1.259   2.958  20.063  0.00  0.00    +0.000 C 
ATOM     20  O   UNL     1       1.664   2.189  20.936  0.00  0.00    +0.000 OA
BRANCH  19  22
ATOM     21  C   UNL     1       2.213   5.006  21.129  0.00  0.00    +0.000 C 
ATOM     22  C   UNL     1       1.050   4.429  20.343  0.00  0.00    +0.000 C 
ENDBRANCH  19  22
ENDBRANCH  18  19
ENDBRANCH  17  18
ENDBRANCH  15  17
ENDBRANCH  14  16
ENDBRANCH  13  14
ENDBRANCH   1  13
TORSDOF 11
ENDMDL
MODEL 8
REMARK VINA RESULT:      -5.9      2.422      3.076
REMARK  Name = 
REMARK  14 active torsions:
REMARK  status: ('A' for Active; 'I' for Inactive)
REMARK    1  A    between atoms: C_1  and  C_2
REMARK    2  A    between atoms: C_2  and  C_3
REMARK    3  A    between atoms: C_3  and  C_5
REMARK    4  A    between atoms: C_5  and  C_6
REMARK    5  A    between atoms: C_6  and  C_7
REMARK    6  A    between atoms: C_8  and  C_9
REMARK    7  A    between atoms: C_9  and  C_10
REMARK    8  A    between atoms: C_10  and  C_11
REMARK    9  A    between atoms: C_12  and  C_13
REMARK   10  A    between atoms: C_14  and  C_15
REMARK   11  A    between atoms: N_17  and  C_18
REMARK   12  A    between atoms: C_18  and  C_19
REMARK   13  A    between atoms: C_19  and  C_20
REMARK   14  A    between atoms: C_19  and  C_21
REMARK                            x       y       z     vdW  Elec       q    Type
REMARK                         _______ _______ _______ _____ _____    ______ ____
ROOT
ATOM      1  C   UNL     1       2.719   4.413  17.844  0.00  0.00    +0.000 C 
ATOM      2  C   UNL     1       3.987   3.987  17.843  0.00  0.00    +0.000 C 
ENDROOT
BRANCH   2   3
ATOM      3  C   UNL     1       4.758   3.949  16.620  0.00  0.00    +0.000 C 
ATOM      4  C   UNL     1       5.565   4.941  16.227  0.00  0.00    +0.000 C 
BRANCH   4   5
ATOM      5  C   UNL     1       6.323   4.796  14.957  0.00  0.00    +0.000 C 
ATOM      6  O   UNL     1       7.385   5.367  14.747  0.00  0.00    +0.000 OA
ATOM      7  N   UNL     1       5.703   3.961  14.062  0.00  0.00    +0.000 N 
ATOM      8  H   UNL     1       4.845   3.492  14.314  0.00  0.00    +0.000 HD
BRANCH   7   9
ATOM      9  C   UNL     1       6.279   3.679  12.762  0.00  0.00    +0.000 C 
BRANCH   9  10
ATOM     10  C   UNL     1       5.527   2.576  12.002  0.00  0.00    +0.000 C 
ATOM     11  C   UNL     1       4.352   3.139  11.200  0.00  0.00    +0.000 C 
ATOM     12  C   UNL     1       6.491   1.845  11.064  0.00  0.00    +0.000 C 
ENDBRANCH   9  10
ENDBRANCH   7   9
ENDBRANCH   4   5
ENDBRANCH   2   3
BRANCH   1  13
ATOM     13  C   UNL     1       1.855   4.469  19.073  0.00  0.00    +0.000 C 
BRANCH  13  14
ATOM     14  C   UNL     1       2.292   5.554  20.066  0.00  0.00    +0.000 C 
BRANCH  14  16
ATOM     15  C   UNL     1       1.842   8.056  20.070  0.00  0.00    +0.000 C 
ATOM     16  C   UNL     1       2.315   6.948  19.478  0.00  0.00    +0.000 C 
BRANCH  15  17
ATOM     17  C   UNL     1       1.213   8.081  21.428  0.00  0.00    +0.000 C 
BRANCH  17  18
ATOM     18  C   UNL     1      -0.131   8.800  21.473  0.00  0.00    +0.000 C 
BRANCH  18  19
ATOM     19  C   UNL     1       0.059  10.262  21.097  0.00  0.00    +0.000 C 
ATOM     20  O   UNL     1       0.848  10.998  21.692  0.00  0.00    +0.000 OA
BRANCH  19  22
ATOM     21  C   UNL     1       0.046  10.891  18.679  0.00  0.00    +0.000 C 
ATOM     22  C   UNL     1      -0.780  10.772  19.947  0.00  0.00    +0.000 C 
ENDBRANCH  19  22
ENDBRANCH  18  19
ENDBRANCH  17  18
ENDBRANCH  15  17
ENDBRANCH  14  16
ENDBRANCH  13  14
ENDBRANCH   1  13
TORSDOF 11
ENDMDL
MODEL 9
REMARK VINA RESULT:      -5.9      5.405      7.889
REMARK  Name = 
REMARK  14 active torsions:
REMARK  status: ('A' for Active; 'I' for Inactive)
REMARK    1  A    between atoms: C_1  and  C_2
REMARK    2  A    between atoms: C_2  and  C_3
REMARK    3  A    between atoms: C_3  and  C_5
REMARK    4  A    between atoms: C_5  and  C_6
REMARK    5  A    between atoms: C_6  and  C_7
REMARK    6  A    between atoms: C_8  and  C_9
REMARK    7  A    between atoms: C_9  and  C_10
REMARK    8  A    between atoms: C_10  and  C_11
REMARK    9  A    between atoms: C_12  and  C_13
REMARK   10  A    between atoms: C_14  and  C_15
REMARK   11  A    between atoms: N_17  and  C_18
REMARK   12  A    between atoms: C_18  and  C_19
REMARK   13  A    between atoms: C_19  and  C_20
REMARK   14  A    between atoms: C_19  and  C_21
REMARK                            x       y       z     vdW  Elec       q    Type
REMARK                         _______ _______ _______ _____ _____    ______ ____
ROOT
ATOM      1  C   UNL     1       6.630   6.316  17.812  0.00  0.00    +0.000 C 
ATOM      2  C   UNL     1       5.816   5.568  17.059  0.00  0.00    +0.000 C 
ENDROOT
BRANCH   2   3
ATOM      3  C   UNL     1       4.796   4.739  17.663  0.00  0.00    +0.000 C 
ATOM      4  C   UNL     1       4.227   3.699  17.040  0.00  0.00    +0.000 C 
BRANCH   4   5
ATOM      5  C   UNL     1       3.196   2.905  17.756  0.00  0.00    +0.000 C 
ATOM      6  O   UNL     1       3.231   1.684  17.831  0.00  0.00    +0.000 OA
ATOM      7  N   UNL     1       2.216   3.687  18.313  0.00  0.00    +0.000 N 
ATOM      8  H   UNL     1       2.268   4.693  18.245  0.00  0.00    +0.000 HD
BRANCH   7   9
ATOM      9  C   UNL     1       1.116   3.109  19.061  0.00  0.00    +0.000 C 
BRANCH   9  10
ATOM     10  C   UNL     1       0.990   3.686  20.478  0.00  0.00    +0.000 C 
ATOM     11  C   UNL     1       1.615   2.763  21.526  0.00  0.00    +0.000 C 
ATOM     12  C   UNL     1       1.656   5.062  20.537  0.00  0.00    +0.000 C 
ENDBRANCH   9  10
ENDBRANCH   7   9
ENDBRANCH   4   5
ENDBRANCH   2   3
BRANCH   1  13
ATOM     13  C   UNL     1       7.718   7.190  17.256  0.00  0.00    +0.000 C 
BRANCH  13  14
ATOM     14  C   UNL     1       8.217   8.241  18.257  0.00  0.00    +0.000 C 
BRANCH  14  16
ATOM     15  C   UNL     1       8.855  10.701  18.202  0.00  0.00    +0.000 C 
ATOM     16  C   UNL     1       8.143   9.661  17.740  0.00  0.00    +0.000 C 
BRANCH  15  17
ATOM     17  C   UNL     1       9.854  10.609  19.312  0.00  0.00    +0.000 C 
BRANCH  17  18
ATOM     18  C   UNL     1       9.270  10.892  20.692  0.00  0.00    +0.000 C 
BRANCH  18  19
ATOM     19  C   UNL     1       9.788  12.229  21.202  0.00  0.00    +0.000 C 
ATOM     20  O   UNL     1      10.756  12.797  20.694  0.00  0.00    +0.000 OA
BRANCH  19  22
ATOM     21  C   UNL     1       8.065  11.836  22.968  0.00  0.00    +0.000 C 
ATOM     22  C   UNL     1       9.049  12.829  22.377  0.00  0.00    +0.000 C 
ENDBRANCH  19  22
ENDBRANCH  18  19
ENDBRANCH  17  18
ENDBRANCH  15  17
ENDBRANCH  14  16
ENDBRANCH  13  14
ENDBRANCH   1  13
TORSDOF 11
ENDMDL
