MODEL 1
REMARK VINA RESULT:      -7.5      0.000      0.000
REMARK  Name = 
REMARK  13 active torsions:
REMARK  status: ('A' for Active; 'I' for Inactive)
REMARK    1  A    between atoms: C_1  and  O_2
REMARK    2  A    between atoms: O_2  and  C_3
REMARK    3  A    between atoms: C_6  and  C_7
REMARK    4  A    between atoms: C_8  and  C_9
REMARK    5  A    between atoms: C_9  and  C_10
REMARK    6  A    between atoms: C_11  and  C_12
REMARK    7  A    between atoms: C_15  and  O_16
REMARK    8  A    between atoms: O_16  and  C_17
REMARK    9  A    between atoms: C_18  and  O_19
REMARK   10  A    between atoms: O_19  and  C_20
REMARK   11  A    between atoms: N_22  and  O_23
REMARK   12  A    between atoms: C_25  and  O_26
REMARK   13  A    between atoms: O_26  and  C_27
REMARK                            x       y       z     vdW  Elec       q    Type
REMARK                         _______ _______ _______ _____ _____    ______ ____
ROOT
ATOM      1  C   UNL     1       2.385   4.463  19.888  0.00  0.00    +0.000 C 
ATOM      2  N   UNL     1       1.890   3.283  20.121  0.00  0.00    +0.000 NA
ENDROOT
BRANCH   1   4
ATOM      3  C   UNL     1       3.615   4.743  17.760  0.00  0.00    +0.000 C 
ATOM      4  C   UNL     1       3.652   4.563  19.091  0.00  0.00    +0.000 C 
BRANCH   3   8
ATOM      5  C   UNL     1       6.908   5.124  15.036  0.00  0.00    +0.000 A 
ATOM      6  C   UNL     1       5.930   4.132  14.865  0.00  0.00    +0.000 A 
ATOM      7  C   UNL     1       4.874   4.003  15.771  0.00  0.00    +0.000 A 
ATOM      8  C   UNL     1       4.801   4.823  16.895  0.00  0.00    +0.000 A 
ATOM      9  C   UNL     1       5.837   5.740  17.114  0.00  0.00    +0.000 A 
ATOM     10  C   UNL     1       6.899   5.895  16.205  0.00  0.00    +0.000 A 
BRANCH   5  12
ATOM     11  C   UNL     1       7.541   4.833  12.780  0.00  0.00    +0.000 C 
ATOM     12  O   UNL     1       7.869   5.328  14.081  0.00  0.00    +0.000 OA
ENDBRANCH   5  12
BRANCH  10  13
ATOM     13  O   UNL     1       7.789   6.847  16.623  0.00  0.00    +0.000 OA
ATOM     14  C   UNL     1       7.380   7.812  17.578  0.00  0.00    +0.000 C 
ENDBRANCH  10  13
ENDBRANCH   3   8
ENDBRANCH   1   4
BRANCH   1  15
ATOM     15  C   UNL     1       1.838   5.753  20.437  0.00  0.00    +0.000 C 
ATOM     16  C   UNL     1       1.945   6.974  19.889  0.00  0.00    +0.000 C 
BRANCH  16  17
ATOM     17  C   UNL     1       1.466   8.210  20.539  0.00  0.00    +0.000 A 
ATOM     18  C   UNL     1       1.316   8.235  21.926  0.00  0.00    +0.000 A 
ATOM     19  C   UNL     1       0.764   9.353  22.554  0.00  0.00    +0.000 A 
ATOM     20  C   UNL     1       0.352  10.469  21.814  0.00  0.00    +0.000 A 
ATOM     21  C   UNL     1       0.478  10.456  20.415  0.00  0.00    +0.000 A 
ATOM     22  C   UNL     1       1.037   9.324  19.796  0.00  0.00    +0.000 A 
BRANCH  20  23
ATOM     23  O   UNL     1      -0.212  11.447  22.591  0.00  0.00    +0.000 OA
ATOM     24  C   UNL     1      -1.532  11.216  23.067  0.00  0.00    +0.000 C 
ENDBRANCH  20  23
BRANCH  21  25
ATOM     25  O   UNL     1       0.003  11.537  19.720  0.00  0.00    +0.000 OA
ATOM     26  C   UNL     1      -1.191  11.378  18.964  0.00  0.00    +0.000 C 
ENDBRANCH  21  25
ENDBRANCH  16  17
ENDBRANCH   1  15
BRANCH   2  27
ATOM     27  O   UNL     1       0.748   3.326  20.932  0.00  0.00    +0.000 OA
ATOM     28  H   UNL     1       0.141   3.875  20.405  0.00  0.00    +0.000 HD
ENDBRANCH   2  27
TORSDOF 9
ENDMDL
MODEL 2
REMARK VINA RESULT:      -7.4      4.188      7.657
REMARK  Name = 
REMARK  13 active torsions:
REMARK  status: ('A' for Active; 'I' for Inactive)
REMARK    1  A    between atoms: C_1  and  O_2
REMARK    2  A    between atoms: O_2  and  C_3
REMARK    3  A    between atoms: C_6  and  C_7
REMARK    4  A    between atoms: C_8  and  C_9
REMARK    5  A    between atoms: C_9  and  C_10
REMARK    6  A    between atoms: C_11  and  C_12
REMARK    7  A    between atoms: C_15  and  O_16
REMARK    8  A    between atoms: O_16  and  C_17
REMARK    9  A    between atoms: C_18  and  O_19
REMARK   10  A    between atoms: O_19  and  C_20
REMARK   11  A    between atoms: N_22  and  O_23
REMARK   12  A    between atoms: C_25  and  O_26
REMARK   13  A    between atoms: O_26  and  C_27
REMARK                            x       y       z     vdW  Elec       q    Type
REMARK                         _______ _______ _______ _____ _____    ______ ____
ROOT
ATOM      1  C   UNL     1       7.421   6.993  17.410  0.00  0.00    +0.000 C 
ATOM      2  N   UNL     1       7.970   6.595  16.300  0.00  0.00    +0.000 NA
ENDROOT
BRANCH   1   4
ATOM      3  C   UNL     1       8.185   9.321  17.748  0.00  0.00    +0.000 C 
ATOM      4  C   UNL     1       8.111   8.061  18.208  0.00  0.00    +0.000 C 
BRANCH   3   8
ATOM      5  C   UNL     1      10.420  12.372  19.776  0.00  0.00    +0.000 A 
ATOM      6  C   UNL     1       9.914  11.258  20.464  0.00  0.00    +0.000 A 
ATOM      7  C   UNL     1       9.169  10.281  19.797  0.00  0.00    +0.000 A 
ATOM      8  C   UNL     1       8.865  10.423  18.445  0.00  0.00    +0.000 A 
ATOM      9  C   UNL     1       9.284  11.589  17.791  0.00  0.00    +0.000 A 
ATOM     10  C   UNL     1      10.048  12.574  18.441  0.00  0.00    +0.000 A 
BRANCH   5  12
ATOM     11  C   UNL     1      10.616  14.442  20.894  0.00  0.00    +0.000 C 
ATOM     12  O   UNL     1      11.254  13.260  20.403  0.00  0.00    +0.000 OA
ENDBRANCH   5  12
BRANCH  10  13
ATOM     13  O   UNL     1      10.343  13.619  17.607  0.00  0.00    +0.000 OA
ATOM     14  C   UNL     1      11.579  13.628  16.912  0.00  0.00    +0.000 C 
ENDBRANCH  10  13
ENDBRANCH   3   8
ENDBRANCH   1   4
BRANCH   1  15
ATOM     15  C   UNL     1       6.181   6.399  18.022  0.00  0.00    +0.000 C 
ATOM     16  C   UNL     1       6.111   5.327  18.829  0.00  0.00    +0.000 C 
BRANCH  16  17
ATOM     17  C   UNL     1       4.845   4.743  19.311  0.00  0.00    +0.000 A 
ATOM     18  C   UNL     1       4.658   3.362  19.228  0.00  0.00    +0.000 A 
ATOM     19  C   UNL     1       3.430   2.797  19.577  0.00  0.00    +0.000 A 
ATOM     20  C   UNL     1       2.364   3.594  20.016  0.00  0.00    +0.000 A 
ATOM     21  C   UNL     1       2.527   4.988  20.089  0.00  0.00    +0.000 A 
ATOM     22  C   UNL     1       3.770   5.543  19.736  0.00  0.00    +0.000 A 
BRANCH  20  23
ATOM     23  O   UNL     1       1.224   2.873  20.263  0.00  0.00    +0.000 OA
ATOM     24  C   UNL     1       0.590   2.262  19.146  0.00  0.00    +0.000 C 
ENDBRANCH  20  23
BRANCH  21  25
ATOM     25  O   UNL     1       1.443   5.739  20.458  0.00  0.00    +0.000 OA
ATOM     26  C   UNL     1       1.660   7.096  20.824  0.00  0.00    +0.000 C 
ENDBRANCH  21  25
ENDBRANCH  16  17
ENDBRANCH   1  15
BRANCH   2  27
ATOM     27  O   UNL     1       7.262   5.550  15.691  0.00  0.00    +0.000 OA
ATOM     28  H   UNL     1       6.429   5.543  16.196  0.00  0.00    +0.000 HD
ENDBRANCH   2  27
TORSDOF 9
ENDMDL
MODEL 3
REMARK VINA RESULT:      -7.4      1.015      8.663
REMARK  Name = 
REMARK  13 active torsions:
REMARK  status: ('A' for Active; 'I' for Inactive)
REMARK    1  A    between atoms: C_1  and  O_2
REMARK    2  A    between atoms: O_2  and  C_3
REMARK    3  A    between atoms: C_6  and  C_7
REMARK    4  A    between atoms: C_8  and  C_9
REMARK    5  A    between atoms: C_9  and  C_10
REMARK    6  A    between atoms: C_11  and  C_12
REMARK    7  A    between atoms: C_15  and  O_16
REMARK    8  A    between atoms: O_16  and  C_17
REMARK    9  A    between atoms: C_18  and  O_19
REMARK   10  A    between atoms: O_19  and  C_20
REMARK   11  A    between atoms: N_22  and  O_23
REMARK   12  A    between atoms: C_25  and  O_26
REMARK   13  A    between atoms: O_26  and  C_27
REMARK                            x       y       z     vdW  Elec       q    Type
REMARK                         _______ _______ _______ _____ _____    ______ ____
ROOT
ATOM      1  C   UNL     1       2.080   4.735  20.568  0.00  0.00    +0.000 C 
ATOM      2  N   UNL     1       1.821   3.647  21.232  0.00  0.00    +0.000 NA
ENDROOT
BRANCH   1   4
ATOM      3  C   UNL     1       1.757   7.185  20.456  0.00  0.00    +0.000 C 
ATOM      4  C   UNL     1       1.377   6.000  20.963  0.00  0.00    +0.000 C 
BRANCH   3   8
ATOM      5  C   UNL     1       0.233  11.022  21.626  0.00  0.00    +0.000 A 
ATOM      6  C   UNL     1       0.229   9.932  22.512  0.00  0.00    +0.000 A 
ATOM      7  C   UNL     1       0.708   8.682  22.113  0.00  0.00    +0.000 A 
ATOM      8  C   UNL     1       1.147   8.476  20.807  0.00  0.00    +0.000 A 
ATOM      9  C   UNL     1       1.051   9.539  19.900  0.00  0.00    +0.000 A 
ATOM     10  C   UNL     1       0.587  10.809  20.288  0.00  0.00    +0.000 A 
BRANCH   5  12
ATOM     11  C   UNL     1      -1.349  12.337  22.784  0.00  0.00    +0.000 C 
ATOM     12  O   UNL     1      -0.118  12.273  22.058  0.00  0.00    +0.000 OA
ENDBRANCH   5  12
BRANCH  10  13
ATOM     13  O   UNL     1       0.581  11.688  19.239  0.00  0.00    +0.000 OA
ATOM     14  C   UNL     1       1.811  12.093  18.663  0.00  0.00    +0.000 C 
ENDBRANCH  10  13
ENDBRANCH   3   8
ENDBRANCH   1   4
BRANCH   1  15
ATOM     15  C   UNL     1       2.969   4.816  19.356  0.00  0.00    +0.000 C 
ATOM     16  C   UNL     1       4.304   4.962  19.341  0.00  0.00    +0.000 C 
BRANCH  16  17
ATOM     17  C   UNL     1       5.098   5.133  18.109  0.00  0.00    +0.000 A 
ATOM     18  C   UNL     1       4.989   4.183  17.092  0.00  0.00    +0.000 A 
ATOM     19  C   UNL     1       5.807   4.263  15.964  0.00  0.00    +0.000 A 
ATOM     20  C   UNL     1       6.748   5.292  15.824  0.00  0.00    +0.000 A 
ATOM     21  C   UNL     1       6.886   6.248  16.844  0.00  0.00    +0.000 A 
ATOM     22  C   UNL     1       6.054   6.155  17.975  0.00  0.00    +0.000 A 
BRANCH  20  23
ATOM     23  O   UNL     1       7.496   5.179  14.680  0.00  0.00    +0.000 OA
ATOM     24  C   UNL     1       6.895   4.513  13.577  0.00  0.00    +0.000 C 
ENDBRANCH  20  23
BRANCH  21  25
ATOM     25  O   UNL     1       7.862   7.198  16.702  0.00  0.00    +0.000 OA
ATOM     26  C   UNL     1       7.896   8.270  17.636  0.00  0.00    +0.000 C 
ENDBRANCH  21  25
ENDBRANCH  16  17
ENDBRANCH   1  15
BRANCH   2  27
ATOM     27  O   UNL     1       2.489   2.527  20.718  0.00  0.00    +0.000 OA
ATOM     28  H   UNL     1       2.943   2.897  19.940  0.00  0.00    +0.000 HD
ENDBRANCH   2  27
TORSDOF 9
ENDMDL
MODEL 4
REMARK VINA RESULT:      -7.3      2.970      4.802
REMARK  Name = 
REMARK  13 active torsions:
REMARK  status: ('A' for Active; 'I' for Inactive)
REMARK    1  A    between atoms: C_1  and  O_2
REMARK    2  A    between atoms: O_2  and  C_3
REMARK    3  A    between atoms: C_6  and  C_7
REMARK    4  A    between atoms: C_8  and  C_9
REMARK    5  A    between atoms: C_9  and  C_10
REMARK    6  A    between atoms: C_11  and  C_12
REMARK    7  A    between atoms: C_15  and  O_16
REMARK    8  A    between atoms: O_16  and  C_17
REMARK    9  A    between atoms: C_18  and  O_19
REMARK   10  A    between atoms: O_19  and  C_20
REMARK   11  A    between atoms: N_22  and  O_23
REMARK   12  A    between atoms: C_25  and  O_26
REMARK   13  A    between atoms: O_26  and  C_27
REMARK                            x       y       z     vdW  Elec       q    Type
REMARK                         _______ _______ _______ _____ _____    ______ ____
ROOT
ATOM      1  C   UNL     1       0.878   8.669  21.383  0.00  0.00    +0.000 C 
ATOM      2  N   UNL     1       1.313   9.259  22.457  0.00  0.00    +0.000 NA
ENDROOT
BRANCH   1   4
ATOM      3  C   UNL     1       2.156   7.419  19.674  0.00  0.00    +0.000 C 
ATOM      4  C   UNL     1       1.599   7.447  20.896  0.00  0.00    +0.000 C 
BRANCH   3   8
ATOM      5  C   UNL     1       4.246   4.198  17.757  0.00  0.00    +0.000 A 
ATOM      6  C   UNL     1       2.902   4.477  17.460  0.00  0.00    +0.000 A 
ATOM      7  C   UNL     1       2.225   5.515  18.107  0.00  0.00    +0.000 A 
ATOM      8  C   UNL     1       2.855   6.259  19.102  0.00  0.00    +0.000 A 
ATOM      9  C   UNL     1       4.161   5.907  19.465  0.00  0.00    +0.000 A 
ATOM     10  C   UNL     1       4.863   4.876  18.815  0.00  0.00    +0.000 A 
BRANCH   5  12
ATOM     11  C   UNL     1       5.702   3.792  15.944  0.00  0.00    +0.000 C 
ATOM     12  O   UNL     1       4.941   3.265  17.034  0.00  0.00    +0.000 OA
ENDBRANCH   5  12
BRANCH  10  13
ATOM     13  O   UNL     1       6.119   4.712  19.335  0.00  0.00    +0.000 OA
ATOM     14  C   UNL     1       7.134   5.647  19.013  0.00  0.00    +0.000 C 
ENDBRANCH  10  13
ENDBRANCH   3   8
ENDBRANCH   1   4
BRANCH   1  15
ATOM     15  C   UNL     1      -0.249   9.169  20.520  0.00  0.00    +0.000 C 
ATOM     16  C   UNL     1      -0.154   9.999  19.468  0.00  0.00    +0.000 C 
BRANCH  16  17
ATOM     17  C   UNL     1      -1.319  10.525  18.729  0.00  0.00    +0.000 A 
ATOM     18  C   UNL     1      -2.059  11.571  19.282  0.00  0.00    +0.000 A 
ATOM     19  C   UNL     1      -3.225  12.014  18.656  0.00  0.00    +0.000 A 
ATOM     20  C   UNL     1      -3.678  11.425  17.468  0.00  0.00    +0.000 A 
ATOM     21  C   UNL     1      -2.957  10.358  16.906  0.00  0.00    +0.000 A 
ATOM     22  C   UNL     1      -1.783   9.923  17.546  0.00  0.00    +0.000 A 
BRANCH  20  23
ATOM     23  O   UNL     1      -4.865  11.953  17.029  0.00  0.00    +0.000 OA
ATOM     24  C   UNL     1      -5.952  11.953  17.944  0.00  0.00    +0.000 C 
ENDBRANCH  20  23
BRANCH  21  25
ATOM     25  O   UNL     1      -3.466   9.765  15.781  0.00  0.00    +0.000 OA
ATOM     26  C   UNL     1      -2.977  10.191  14.516  0.00  0.00    +0.000 C 
ENDBRANCH  21  25
ENDBRANCH  16  17
ENDBRANCH   1  15
BRANCH   2  27
ATOM     27  O   UNL     1       0.596  10.424  22.763  0.00  0.00    +0.000 OA
ATOM     28  H   UNL     1       1.286  10.996  23.145  0.00  0.00    +0.000 HD
ENDBRANCH   2  27
TORSDOF 9
ENDMDL
MODEL 5
REMARK VINA RESULT:      -7.2      0.648      1.666
REMARK  Name = 
REMARK  13 active torsions:
REMARK  status: ('A' for Active; 'I' for Inactive)
REMARK    1  A    between atoms: C_1  and  O_2
REMARK    2  A    between atoms: O_2  and  C_3
REMARK    3  A    between atoms: C_6  and  C_7
REMARK    4  A    between atoms: C_8  and  C_9
REMARK    5  A    between atoms: C_9  and  C_10
REMARK    6  A    between atoms: C_11  and  C_12
REMARK    7  A    between atoms: C_15  and  O_16
REMARK    8  A    between atoms: O_16  and  C_17
REMARK    9  A    between atoms: C_18  and  O_19
REMARK   10  A    between atoms: O_19  and  C_20
REMARK   11  A    between atoms: N_22  and  O_23
REMARK   12  A    between atoms: C_25  and  O_26
REMARK   13  A    between atoms: O_26  and  C_27
REMARK                            x       y       z     vdW  Elec       q    Type
REMARK                         _______ _______ _______ _____ _____    ______ ____
ROOT
ATOM      1  C   UNL     1       2.395   4.535  19.680  0.00  0.00    +0.000 C 
ATOM      2  N   UNL     1       1.999   3.402  20.181  0.00  0.00    +0.000 NA
ENDROOT
BRANCH   1   4
ATOM      3  C   UNL     1       3.693   4.824  17.594  0.00  0.00    +0.000 C 
ATOM      4  C   UNL     1       3.684   4.568  18.913  0.00  0.00    +0.000 C 
BRANCH   3   8
ATOM      5  C   UNL     1       7.056   5.028  14.937  0.00  0.00    +0.000 A 
ATOM      6  C   UNL     1       6.081   4.026  14.806  0.00  0.00    +0.000 A 
ATOM      7  C   UNL     1       5.001   3.957  15.691  0.00  0.00    +0.000 A 
ATOM      8  C   UNL     1       4.901   4.848  16.757  0.00  0.00    +0.000 A 
ATOM      9  C   UNL     1       5.932   5.778  16.943  0.00  0.00    +0.000 A 
ATOM     10  C   UNL     1       7.018   5.872  16.054  0.00  0.00    +0.000 A 
BRANCH   5  12
ATOM     11  C   UNL     1       7.597   5.078  12.640  0.00  0.00    +0.000 C 
ATOM     12  O   UNL     1       8.041   5.169  13.996  0.00  0.00    +0.000 OA
ENDBRANCH   5  12
BRANCH  10  13
ATOM     13  O   UNL     1       7.899   6.850  16.432  0.00  0.00    +0.000 OA
ATOM     14  C   UNL     1       7.621   7.631  17.581  0.00  0.00    +0.000 C 
ENDBRANCH  10  13
ENDBRANCH   3   8
ENDBRANCH   1   4
BRANCH   1  15
ATOM     15  C   UNL     1       1.707   5.858  19.887  0.00  0.00    +0.000 C 
ATOM     16  C   UNL     1       2.230   7.080  19.692  0.00  0.00    +0.000 C 
BRANCH  16  17
ATOM     17  C   UNL     1       1.524   8.336  20.012  0.00  0.00    +0.000 A 
ATOM     18  C   UNL     1       1.293   9.264  18.996  0.00  0.00    +0.000 A 
ATOM     19  C   UNL     1       0.724  10.504  19.292  0.00  0.00    +0.000 A 
ATOM     20  C   UNL     1       0.372  10.844  20.605  0.00  0.00    +0.000 A 
ATOM     21  C   UNL     1       0.613   9.931  21.645  0.00  0.00    +0.000 A 
ATOM     22  C   UNL     1       1.186   8.685  21.332  0.00  0.00    +0.000 A 
BRANCH  20  23
ATOM     23  O   UNL     1      -0.123  12.118  20.713  0.00  0.00    +0.000 OA
ATOM     24  C   UNL     1      -1.430  12.350  20.204  0.00  0.00    +0.000 C 
ENDBRANCH  20  23
BRANCH  21  25
ATOM     25  O   UNL     1       0.318  10.324  22.923  0.00  0.00    +0.000 OA
ATOM     26  C   UNL     1      -1.042  10.296  23.338  0.00  0.00    +0.000 C 
ENDBRANCH  21  25
ENDBRANCH  16  17
ENDBRANCH   1  15
BRANCH   2  27
ATOM     27  O   UNL     1       0.821   3.524  20.930  0.00  0.00    +0.000 OA
ATOM     28  H   UNL     1       0.144   3.214  20.302  0.00  0.00    +0.000 HD
ENDBRANCH   2  27
TORSDOF 9
ENDMDL
MODEL 6
REMARK VINA RESULT:      -7.2      3.045      5.163
REMARK  Name = 
REMARK  13 active torsions:
REMARK  status: ('A' for Active; 'I' for Inactive)
REMARK    1  A    between atoms: C_1  and  O_2
REMARK    2  A    between atoms: O_2  and  C_3
REMARK    3  A    between atoms: C_6  and  C_7
REMARK    4  A    between atoms: C_8  and  C_9
REMARK    5  A    between atoms: C_9  and  C_10
REMARK    6  A    between atoms: C_11  and  C_12
REMARK    7  A    between atoms: C_15  and  O_16
REMARK    8  A    between atoms: O_16  and  C_17
REMARK    9  A    between atoms: C_18  and  O_19
REMARK   10  A    between atoms: O_19  and  C_20
REMARK   11  A    between atoms: N_22  and  O_23
REMARK   12  A    between atoms: C_25  and  O_26
REMARK   13  A    between atoms: O_26  and  C_27
REMARK                            x       y       z     vdW  Elec       q    Type
REMARK                         _______ _______ _______ _____ _____    ______ ____
ROOT
ATOM      1  C   UNL     1       0.913   9.153  21.049  0.00  0.00    +0.000 C 
ATOM      2  N   UNL     1       1.234   9.385  22.288  0.00  0.00    +0.000 NA
ENDROOT
BRANCH   1   4
ATOM      3  C   UNL     1       1.907   7.086  20.121  0.00  0.00    +0.000 C 
ATOM      4  C   UNL     1       1.898   8.429  20.179  0.00  0.00    +0.000 C 
BRANCH   3   8
ATOM      5  C   UNL     1       4.873   4.977  17.848  0.00  0.00    +0.000 A 
ATOM      6  C   UNL     1       4.190   6.081  17.313  0.00  0.00    +0.000 A 
ATOM      7  C   UNL     1       3.211   6.747  18.054  0.00  0.00    +0.000 A 
ATOM      8  C   UNL     1       2.851   6.292  19.322  0.00  0.00    +0.000 A 
ATOM      9  C   UNL     1       3.463   5.129  19.806  0.00  0.00    +0.000 A 
ATOM     10  C   UNL     1       4.462   4.455  19.081  0.00  0.00    +0.000 A 
BRANCH   5  12
ATOM     11  C   UNL     1       7.208   4.929  17.500  0.00  0.00    +0.000 C 
ATOM     12  O   UNL     1       5.918   4.407  17.170  0.00  0.00    +0.000 OA
ENDBRANCH   5  12
BRANCH  10  13
ATOM     13  O   UNL     1       4.914   3.349  19.749  0.00  0.00    +0.000 OA
ATOM     14  C   UNL     1       4.183   2.138  19.666  0.00  0.00    +0.000 C 
ENDBRANCH  10  13
ENDBRANCH   3   8
ENDBRANCH   1   4
BRANCH   1  15
ATOM     15  C   UNL     1      -0.343   9.638  20.376  0.00  0.00    +0.000 C 
ATOM     16  C   UNL     1      -0.426  10.426  19.291  0.00  0.00    +0.000 C 
BRANCH  16  17
ATOM     17  C   UNL     1      -1.697  10.942  18.747  0.00  0.00    +0.000 A 
ATOM     18  C   UNL     1      -2.528  11.706  19.567  0.00  0.00    +0.000 A 
ATOM     19  C   UNL     1      -3.783  12.115  19.112  0.00  0.00    +0.000 A 
ATOM     20  C   UNL     1      -4.234  11.772  17.830  0.00  0.00    +0.000 A 
ATOM     21  C   UNL     1      -3.420  10.988  16.996  0.00  0.00    +0.000 A 
ATOM     22  C   UNL     1      -2.158  10.584  17.467  0.00  0.00    +0.000 A 
BRANCH  20  23
ATOM     23  O   UNL     1      -5.507  12.215  17.577  0.00  0.00    +0.000 OA
ATOM     24  C   UNL     1      -6.579  11.411  18.053  0.00  0.00    +0.000 C 
ENDBRANCH  20  23
BRANCH  21  25
ATOM     25  O   UNL     1      -3.923  10.617  15.777  0.00  0.00    +0.000 OA
ATOM     26  C   UNL     1      -3.018  10.115  14.802  0.00  0.00    +0.000 C 
ENDBRANCH  21  25
ENDBRANCH  16  17
ENDBRANCH   1  15
BRANCH   2  27
ATOM     27  O   UNL     1       0.259  10.128  22.968  0.00  0.00    +0.000 OA
ATOM     28  H   UNL     1       0.774  10.878  23.314  0.00  0.00    +0.000 HD
ENDBRANCH   2  27
TORSDOF 9
ENDMDL
MODEL 7
REMARK VINA RESULT:      -7.1      4.002      7.257
REMARK  Name = 
REMARK  13 active torsions:
REMARK  status: ('A' for Active; 'I' for Inactive)
REMARK    1  A    between atoms: C_1  and  O_2
REMARK    2  A    between atoms: O_2  and  C_3
REMARK    3  A    between atoms: C_6  and  C_7
REMARK    4  A    between atoms: C_8  and  C_9
REMARK    5  A    between atoms: C_9  and  C_10
REMARK    6  A    between atoms: C_11  and  C_12
REMARK    7  A    between atoms: C_15  and  O_16
REMARK    8  A    between atoms: O_16  and  C_17
REMARK    9  A    between atoms: C_18  and  O_19
REMARK   10  A    between atoms: O_19  and  C_20
REMARK   11  A    between atoms: N_22  and  O_23
REMARK   12  A    between atoms: C_25  and  O_26
REMARK   13  A    between atoms: O_26  and  C_27
REMARK                            x       y       z     vdW  Elec       q    Type
REMARK                         _______ _______ _______ _____ _____    ______ ____
ROOT
ATOM      1  C   UNL     1       7.161   6.990  17.152  0.00  0.00    +0.000 C 
ATOM      2  N   UNL     1       7.888   6.454  16.216  0.00  0.00    +0.000 NA
ENDROOT
BRANCH   1   4
ATOM      3  C   UNL     1       8.534   8.738  18.238  0.00  0.00    +0.000 C 
ATOM      4  C   UNL     1       7.431   8.413  17.542  0.00  0.00    +0.000 C 
BRANCH   3   8
ATOM      5  C   UNL     1       9.787  12.655  19.462  0.00  0.00    +0.000 A 
ATOM      6  C   UNL     1      10.021  11.528  20.266  0.00  0.00    +0.000 A 
ATOM      7  C   UNL     1       9.589  10.261  19.868  0.00  0.00    +0.000 A 
ATOM      8  C   UNL     1       8.866  10.098  18.688  0.00  0.00    +0.000 A 
ATOM      9  C   UNL     1       8.546  11.240  17.944  0.00  0.00    +0.000 A 
ATOM     10  C   UNL     1       8.986  12.522  18.321  0.00  0.00    +0.000 A 
BRANCH   5  12
ATOM     11  C   UNL     1       9.779  14.464  20.979  0.00  0.00    +0.000 C 
ATOM     12  O   UNL     1      10.320  13.872  19.794  0.00  0.00    +0.000 OA
ENDBRANCH   5  12
BRANCH  10  13
ATOM     13  O   UNL     1       8.556  13.483  17.446  0.00  0.00    +0.000 OA
ATOM     14  C   UNL     1       7.365  14.199  17.727  0.00  0.00    +0.000 C 
ENDBRANCH  10  13
ENDBRANCH   3   8
ENDBRANCH   1   4
BRANCH   1  15
ATOM     15  C   UNL     1       6.117   6.264  17.957  0.00  0.00    +0.000 C 
ATOM     16  C   UNL     1       4.784   6.352  17.818  0.00  0.00    +0.000 C 
BRANCH  16  17
ATOM     17  C   UNL     1       3.819   5.682  18.712  0.00  0.00    +0.000 A 
ATOM     18  C   UNL     1       3.700   4.292  18.665  0.00  0.00    +0.000 A 
ATOM     19  C   UNL     1       2.721   3.645  19.421  0.00  0.00    +0.000 A 
ATOM     20  C   UNL     1       1.843   4.367  20.240  0.00  0.00    +0.000 A 
ATOM     21  C   UNL     1       1.935   5.768  20.287  0.00  0.00    +0.000 A 
ATOM     22  C   UNL     1       2.927   6.407  19.521  0.00  0.00    +0.000 A 
BRANCH  20  23
ATOM     23  O   UNL     1       0.919   3.571  20.865  0.00  0.00    +0.000 OA
ATOM     24  C   UNL     1       1.416   2.529  21.696  0.00  0.00    +0.000 C 
ENDBRANCH  20  23
BRANCH  21  25
ATOM     25  O   UNL     1       1.018   6.444  21.047  0.00  0.00    +0.000 OA
ATOM     26  C   UNL     1       1.165   7.851  21.185  0.00  0.00    +0.000 C 
ENDBRANCH  21  25
ENDBRANCH  16  17
ENDBRANCH   1  15
BRANCH   2  27
ATOM     27  O   UNL     1       7.581   5.104  15.998  0.00  0.00    +0.000 OA
ATOM     28  H   UNL     1       6.767   5.162  15.467  0.00  0.00    +0.000 HD
ENDBRANCH   2  27
TORSDOF 9
ENDMDL
MODEL 8
REMARK VINA RESULT:      -7.1      3.021      5.100
REMARK  Name = 
REMARK  13 active torsions:
REMARK  status: ('A' for Active; 'I' for Inactive)
REMARK    1  A    between atoms: C_1  and  O_2
REMARK    2  A    between atoms: O_2  and  C_3
REMARK    3  A    between atoms: C_6  and  C_7
REMARK    4  A    between atoms: C_8  and  C_9
REMARK    5  A    between atoms: C_9  and  C_10
REMARK    6  A    between atoms: C_11  and  C_12
REMARK    7  A    between atoms: C_15  and  O_16
REMARK    8  A    between atoms: O_16  and  C_17
REMARK    9  A    between atoms: C_18  and  O_19
REMARK   10  A    between atoms: O_19  and  C_20
REMARK   11  A    between atoms: N_22  and  O_23
REMARK   12  A    between atoms: C_25  and  O_26
REMARK   13  A    between atoms: O_26  and  C_27
REMARK                            x       y       z     vdW  Elec       q    Type
REMARK                         _______ _______ _______ _____ _____    ______ ____
ROOT
ATOM      1  C   UNL     1       1.038   8.893  21.026  0.00  0.00    +0.000 C 
ATOM      2  N   UNL     1       1.442   9.385  22.161  0.00  0.00    +0.000 NA
ENDROOT
BRANCH   1   4
ATOM      3  C   UNL     1       1.925   7.754  19.017  0.00  0.00    +0.000 C 
ATOM      4  C   UNL     1       1.883   7.850  20.357  0.00  0.00    +0.000 C 
BRANCH   3   8
ATOM      5  C   UNL     1       4.379   4.809  17.088  0.00  0.00    +0.000 A 
ATOM      6  C   UNL     1       4.722   6.171  17.073  0.00  0.00    +0.000 A 
ATOM      7  C   UNL     1       3.904   7.124  17.686  0.00  0.00    +0.000 A 
ATOM      8  C   UNL     1       2.699   6.747  18.277  0.00  0.00    +0.000 A 
ATOM      9  C   UNL     1       2.313   5.403  18.197  0.00  0.00    +0.000 A 
ATOM     10  C   UNL     1       3.131   4.428  17.598  0.00  0.00    +0.000 A 
BRANCH   5  12
ATOM     11  C   UNL     1       6.501   4.377  16.149  0.00  0.00    +0.000 C 
ATOM     12  O   UNL     1       5.243   3.866  16.598  0.00  0.00    +0.000 OA
ENDBRANCH   5  12
BRANCH  10  13
ATOM     13  O   UNL     1       2.553   3.188  17.637  0.00  0.00    +0.000 OA
ATOM     14  C   UNL     1       2.818   2.330  18.734  0.00  0.00    +0.000 C 
ENDBRANCH  10  13
ENDBRANCH   3   8
ENDBRANCH   1   4
BRANCH   1  15
ATOM     15  C   UNL     1      -0.176   9.356  20.268  0.00  0.00    +0.000 C 
ATOM     16  C   UNL     1      -0.207  10.223  19.242  0.00  0.00    +0.000 C 
BRANCH  16  17
ATOM     17  C   UNL     1      -1.452  10.705  18.611  0.00  0.00    +0.000 A 
ATOM     18  C   UNL     1      -2.240  11.637  19.288  0.00  0.00    +0.000 A 
ATOM     19  C   UNL     1      -3.473  12.028  18.763  0.00  0.00    +0.000 A 
ATOM     20  C   UNL     1      -3.945  11.500  17.554  0.00  0.00    +0.000 A 
ATOM     21  C   UNL     1      -3.175  10.547  16.867  0.00  0.00    +0.000 A 
ATOM     22  C   UNL     1      -1.934  10.164  17.406  0.00  0.00    +0.000 A 
BRANCH  20  23
ATOM     23  O   UNL     1      -5.194  11.959  17.223  0.00  0.00    +0.000 OA
ATOM     24  C   UNL     1      -6.177  11.960  18.251  0.00  0.00    +0.000 C 
ENDBRANCH  20  23
BRANCH  21  25
ATOM     25  O   UNL     1      -3.699  10.005  15.724  0.00  0.00    +0.000 OA
ATOM     26  C   UNL     1      -2.956  10.132  14.518  0.00  0.00    +0.000 C 
ENDBRANCH  21  25
ENDBRANCH  16  17
ENDBRANCH   1  15
BRANCH   2  27
ATOM     27  O   UNL     1       0.600  10.397  22.642  0.00  0.00    +0.000 OA
ATOM     28  H   UNL     1      -0.026   9.898  23.196  0.00  0.00    +0.000 HD
ENDBRANCH   2  27
TORSDOF 9
ENDMDL
MODEL 9
REMARK VINA RESULT:      -7.1      3.079      5.707
REMARK  Name = 
REMARK  13 active torsions:
REMARK  status: ('A' for Active; 'I' for Inactive)
REMARK    1  A    between atoms: C_1  and  O_2
REMARK    2  A    between atoms: O_2  and  C_3
REMARK    3  A    between atoms: C_6  and  C_7
REMARK    4  A    between atoms: C_8  and  C_9
REMARK    5  A    between atoms: C_9  and  C_10
REMARK    6  A    between atoms: C_11  and  C_12
REMARK    7  A    between atoms: C_15  and  O_16
REMARK    8  A    between atoms: O_16  and  C_17
REMARK    9  A    between atoms: C_18  and  O_19
REMARK   10  A    between atoms: O_19  and  C_20
REMARK   11  A    between atoms: N_22  and  O_23
REMARK   12  A    between atoms: C_25  and  O_26
REMARK   13  A    between atoms: O_26  and  C_27
REMARK                            x       y       z     vdW  Elec       q    Type
REMARK                         _______ _______ _______ _____ _____    ______ ____
ROOT
ATOM      1  C   UNL     1       0.699   9.230  21.634  0.00  0.00    +0.000 C 
ATOM      2  N   UNL     1       0.958   9.920  22.706  0.00  0.00    +0.000 NA
ENDROOT
BRANCH   1   4
ATOM      3  C   UNL     1       1.129   6.940  20.803  0.00  0.00    +0.000 C 
ATOM      4  C   UNL     1       1.618   8.101  21.271  0.00  0.00    +0.000 C 
BRANCH   3   8
ATOM      5  C   UNL     1       3.331   3.478  19.544  0.00  0.00    +0.000 A 
ATOM      6  C   UNL     1       2.161   3.361  20.312  0.00  0.00    +0.000 A 
ATOM      7  C   UNL     1       1.464   4.496  20.735  0.00  0.00    +0.000 A 
ATOM      8  C   UNL     1       1.948   5.771  20.450  0.00  0.00    +0.000 A 
ATOM      9  C   UNL     1       3.170   5.880  19.774  0.00  0.00    +0.000 A 
ATOM     10  C   UNL     1       3.877   4.749  19.328  0.00  0.00    +0.000 A 
BRANCH   5  12
ATOM     11  C   UNL     1       4.676   1.586  19.973  0.00  0.00    +0.000 C 
ATOM     12  O   UNL     1       3.940   2.366  19.027  0.00  0.00    +0.000 OA
ENDBRANCH   5  12
BRANCH  10  13
ATOM     13  O   UNL     1       5.040   5.096  18.693  0.00  0.00    +0.000 OA
ATOM     14  C   UNL     1       5.103   5.043  17.277  0.00  0.00    +0.000 C 
ENDBRANCH  10  13
ENDBRANCH   3   8
ENDBRANCH   1   4
BRANCH   1  15
ATOM     15  C   UNL     1      -0.407   9.531  20.658  0.00  0.00    +0.000 C 
ATOM     16  C   UNL     1      -0.316  10.257  19.532  0.00  0.00    +0.000 C 
BRANCH  16  17
ATOM     17  C   UNL     1      -1.470  10.592  18.676  0.00  0.00    +0.000 A 
ATOM     18  C   UNL     1      -2.415  11.510  19.137  0.00  0.00    +0.000 A 
ATOM     19  C   UNL     1      -3.570  11.764  18.394  0.00  0.00    +0.000 A 
ATOM     20  C   UNL     1      -3.806  11.110  17.178  0.00  0.00    +0.000 A 
ATOM     21  C   UNL     1      -2.876  10.169  16.706  0.00  0.00    +0.000 A 
ATOM     22  C   UNL     1      -1.716   9.925  17.463  0.00  0.00    +0.000 A 
BRANCH  20  23
ATOM     23  O   UNL     1      -5.012  11.444  16.618  0.00  0.00    +0.000 OA
ATOM     24  C   UNL     1      -5.817  12.379  17.324  0.00  0.00    +0.000 C 
ENDBRANCH  20  23
BRANCH  21  25
ATOM     25  O   UNL     1      -3.173   9.502  15.547  0.00  0.00    +0.000 OA
ATOM     26  C   UNL     1      -3.025  10.196  14.315  0.00  0.00    +0.000 C 
ENDBRANCH  21  25
ENDBRANCH  16  17
ENDBRANCH   1  15
BRANCH   2  27
ATOM     27  O   UNL     1       0.066  10.985  22.891  0.00  0.00    +0.000 OA
ATOM     28  H   UNL     1       0.224  11.527  22.098  0.00  0.00    +0.000 HD
ENDBRANCH   2  27
TORSDOF 9
ENDMDL
