MODEL 1
REMARK VINA RESULT:      -8.4      0.000      0.000
REMARK  Name = 
REMARK  6 active torsions:
REMARK  status: ('A' for Active; 'I' for Inactive)
REMARK    1  A    between atoms: C_2  and  C_3
REMARK    2  A    between atoms: C_6  and  N_7
REMARK    3  A    between atoms: N_10  and  C_11
REMARK    4  A    between atoms: C_16  and  C_17
REMARK    5  A    between atoms: C_20  and  C_21
REMARK    6  A    between atoms: C_25  and  C_26
REMARK                            x       y       z     vdW  Elec       q    Type
REMARK                         _______ _______ _______ _____ _____    ______ ____
ROOT
ATOM      1  N   UNL     1       1.801   6.196  20.122  0.00  0.00    +0.000 N 
ATOM      2  C   UNL     1       2.724   5.289  19.696  0.00  0.00    +0.000 A 
ATOM      3  N   UNL     1       3.677   5.489  18.778  0.00  0.00    +0.000 NA
ATOM      4  N   UNL     1       4.340   4.334  18.698  0.00  0.00    +0.000 N 
ATOM      5  C   UNL     1       3.878   3.391  19.563  0.00  0.00    +0.000 A 
ATOM      6  C   UNL     1       2.816   3.969  20.237  0.00  0.00    +0.000 A 
ATOM      7  H   UNL     1       1.130   5.872  20.820  0.00  0.00    +0.000 HD
ENDROOT
BRANCH   1  11
ATOM      8  C   UNL     1       1.272  10.306  19.252  0.00  0.00    +0.000 A 
ATOM      9  C   UNL     1       1.732   9.414  18.272  0.00  0.00    +0.000 A 
ATOM     10  C   UNL     1       1.946   8.066  18.581  0.00  0.00    +0.000 A 
ATOM     11  C   UNL     1       1.711   7.582  19.871  0.00  0.00    +0.000 A 
ATOM     12  C   UNL     1       1.279   8.504  20.838  0.00  0.00    +0.000 A 
ATOM     13  C   UNL     1       1.041   9.867  20.568  0.00  0.00    +0.000 A 
BRANCH  13  14
ATOM     14  C   UNL     1       0.464  10.738  21.669  0.00  0.00    +0.000 C 
ATOM     15  C   UNL     1      -1.027  10.988  21.757  0.00  0.00    +0.000 C 
ATOM     16  C   UNL     1      -0.352  10.139  22.788  0.00  0.00    +0.000 C 
ENDBRANCH  13  14
BRANCH   8  18
ATOM     17  N   UNL     1       0.809  12.773  18.579  0.00  0.00    +0.000 NA
ATOM     18  C   UNL     1       1.017  11.666  18.869  0.00  0.00    +0.000 C 
ENDBRANCH   8  18
ENDBRANCH   1  11
BRANCH   4  19
ATOM     19  C   UNL     1       5.400   4.180  17.711  0.00  0.00    +0.000 C 
ATOM     20  C   UNL     1       4.803   4.045  16.305  0.00  0.00    +0.000 C 
ATOM     21  O   UNL     1       5.832   3.895  15.321  0.00  0.00    +0.000 OA
ATOM     22  C   UNL     1       6.696   5.029  15.263  0.00  0.00    +0.000 C 
ATOM     23  C   UNL     1       7.433   5.173  16.583  0.00  0.00    +0.000 C 
ATOM     24  C   UNL     1       6.424   5.331  17.721  0.00  0.00    +0.000 C 
BRANCH  24  25
ATOM     25  C   UNL     1       7.155   5.401  19.051  0.00  0.00    +0.000 C 
ATOM     26  N   UNL     1       7.762   5.459  20.154  0.00  0.00    +0.000 NA
ENDBRANCH  24  25
ENDBRANCH   4  19
BRANCH   6  27
ATOM     27  C   UNL     1       1.986   3.378  21.271  0.00  0.00    +0.000 C 
ATOM     28  N   UNL     1       0.738   2.973  20.885  0.00  0.00    +0.000 N 
ATOM     29  O   UNL     1       2.365   3.226  22.428  0.00  0.00    +0.000 OA
ATOM     30  H   UNL     1       0.446   2.949  19.921  0.00  0.00    +0.000 HD
ATOM     31  H   UNL     1       0.173   2.491  21.569  0.00  0.00    +0.000 HD
ENDBRANCH   6  27
TORSDOF 6
ENDMDL
MODEL 2
REMARK VINA RESULT:      -7.8      2.485      6.994
REMARK  Name = 
REMARK  6 active torsions:
REMARK  status: ('A' for Active; 'I' for Inactive)
REMARK    1  A    between atoms: C_2  and  C_3
REMARK    2  A    between atoms: C_6  and  N_7
REMARK    3  A    between atoms: N_10  and  C_11
REMARK    4  A    between atoms: C_16  and  C_17
REMARK    5  A    between atoms: C_20  and  C_21
REMARK    6  A    between atoms: C_25  and  C_26
REMARK                            x       y       z     vdW  Elec       q    Type
REMARK                         _______ _______ _______ _____ _____    ______ ____
ROOT
ATOM      1  N   UNL     1       3.816   4.703  19.179  0.00  0.00    +0.000 N 
ATOM      2  C   UNL     1       2.917   5.632  19.609  0.00  0.00    +0.000 A 
ATOM      3  N   UNL     1       2.841   6.910  19.219  0.00  0.00    +0.000 NA
ATOM      4  N   UNL     1       1.812   7.425  19.894  0.00  0.00    +0.000 N 
ATOM      5  C   UNL     1       1.183   6.516  20.687  0.00  0.00    +0.000 A 
ATOM      6  C   UNL     1       1.875   5.326  20.537  0.00  0.00    +0.000 A 
ATOM      7  H   UNL     1       3.745   3.773  19.595  0.00  0.00    +0.000 HD
ENDROOT
BRANCH   1  11
ATOM      8  C   UNL     1       6.433   5.071  15.871  0.00  0.00    +0.000 A 
ATOM      9  C   UNL     1       5.338   4.195  15.832  0.00  0.00    +0.000 A 
ATOM     10  C   UNL     1       4.504   4.048  16.946  0.00  0.00    +0.000 A 
ATOM     11  C   UNL     1       4.747   4.765  18.121  0.00  0.00    +0.000 A 
ATOM     12  C   UNL     1       5.868   5.611  18.142  0.00  0.00    +0.000 A 
ATOM     13  C   UNL     1       6.728   5.797  17.040  0.00  0.00    +0.000 A 
BRANCH  13  14
ATOM     14  C   UNL     1       7.837   6.827  17.147  0.00  0.00    +0.000 C 
ATOM     15  C   UNL     1       7.522   8.274  17.465  0.00  0.00    +0.000 C 
ATOM     16  C   UNL     1       8.220   7.422  18.480  0.00  0.00    +0.000 C 
ENDBRANCH  13  14
BRANCH   8  18
ATOM     17  N   UNL     1       7.857   5.370  13.718  0.00  0.00    +0.000 NA
ATOM     18  C   UNL     1       7.225   5.226  14.684  0.00  0.00    +0.000 C 
ENDBRANCH   8  18
ENDBRANCH   1  11
BRANCH   4  19
ATOM     19  C   UNL     1       1.507   8.845  19.768  0.00  0.00    +0.000 C 
ATOM     20  C   UNL     1       0.938   9.144  18.376  0.00  0.00    +0.000 C 
ATOM     21  O   UNL     1       0.630  10.535  18.234  0.00  0.00    +0.000 OA
ATOM     22  C   UNL     1      -0.368  10.966  19.158  0.00  0.00    +0.000 C 
ATOM     23  C   UNL     1       0.158  10.823  20.575  0.00  0.00    +0.000 C 
ATOM     24  C   UNL     1       0.533   9.364  20.840  0.00  0.00    +0.000 C 
BRANCH  24  25
ATOM     25  C   UNL     1       1.127   9.230  22.232  0.00  0.00    +0.000 C 
ATOM     26  N   UNL     1       1.621   9.118  23.386  0.00  0.00    +0.000 NA
ENDBRANCH  24  25
ENDBRANCH   4  19
BRANCH   6  27
ATOM     27  C   UNL     1       1.599   4.048  21.168  0.00  0.00    +0.000 C 
ATOM     28  N   UNL     1       0.609   3.296  20.601  0.00  0.00    +0.000 N 
ATOM     29  O   UNL     1       2.216   3.638  22.146  0.00  0.00    +0.000 OA
ATOM     30  H   UNL     1       0.181   3.533  19.718  0.00  0.00    +0.000 HD
ATOM     31  H   UNL     1       0.452   2.372  20.976  0.00  0.00    +0.000 HD
ENDBRANCH   6  27
TORSDOF 6
ENDMDL
MODEL 3
REMARK VINA RESULT:      -7.4      1.089      1.132
REMARK  Name = 
REMARK  6 active torsions:
REMARK  status: ('A' for Active; 'I' for Inactive)
REMARK    1  A    between atoms: C_2  and  C_3
REMARK    2  A    between atoms: C_6  and  N_7
REMARK    3  A    between atoms: N_10  and  C_11
REMARK    4  A    between atoms: C_16  and  C_17
REMARK    5  A    between atoms: C_20  and  C_21
REMARK    6  A    between atoms: C_25  and  C_26
REMARK                            x       y       z     vdW  Elec       q    Type
REMARK                         _______ _______ _______ _____ _____    ______ ____
ROOT
ATOM      1  N   UNL     1       2.008   5.714  19.135  0.00  0.00    +0.000 N 
ATOM      2  C   UNL     1       2.923   4.856  18.605  0.00  0.00    +0.000 A 
ATOM      3  N   UNL     1       3.923   5.167  17.771  0.00  0.00    +0.000 NA
ATOM      4  N   UNL     1       4.555   4.017  17.531  0.00  0.00    +0.000 N 
ATOM      5  C   UNL     1       4.027   2.964  18.211  0.00  0.00    +0.000 A 
ATOM      6  C   UNL     1       2.952   3.463  18.926  0.00  0.00    +0.000 A 
ATOM      7  H   UNL     1       1.297   5.305  19.743  0.00  0.00    +0.000 HD
ENDROOT
BRANCH   1  11
ATOM      8  C   UNL     1       1.626   9.927  18.951  0.00  0.00    +0.000 A 
ATOM      9  C   UNL     1       1.998   9.186  17.820  0.00  0.00    +0.000 A 
ATOM     10  C   UNL     1       2.165   7.799  17.901  0.00  0.00    +0.000 A 
ATOM     11  C   UNL     1       1.969   7.124  19.111  0.00  0.00    +0.000 A 
ATOM     12  C   UNL     1       1.626   7.896  20.232  0.00  0.00    +0.000 A 
ATOM     13  C   UNL     1       1.438   9.293  20.193  0.00  0.00    +0.000 A 
BRANCH  13  14
ATOM     14  C   UNL     1       0.954   9.999  21.446  0.00  0.00    +0.000 C 
ATOM     15  C   UNL     1      -0.526  10.200  21.698  0.00  0.00    +0.000 C 
ATOM     16  C   UNL     1       0.250   9.239  22.544  0.00  0.00    +0.000 C 
ENDBRANCH  13  14
BRANCH   8  18
ATOM     17  N   UNL     1       1.259  12.487  18.694  0.00  0.00    +0.000 NA
ATOM     18  C   UNL     1       1.415  11.339  18.802  0.00  0.00    +0.000 C 
ENDBRANCH   8  18
ENDBRANCH   1  11
BRANCH   4  19
ATOM     19  C   UNL     1       5.655   3.988  16.577  0.00  0.00    +0.000 C 
ATOM     20  C   UNL     1       5.114   3.924  15.143  0.00  0.00    +0.000 C 
ATOM     21  O   UNL     1       6.183   3.895  14.191  0.00  0.00    +0.000 OA
ATOM     22  C   UNL     1       6.988   5.073  14.245  0.00  0.00    +0.000 C 
ATOM     23  C   UNL     1       7.671   5.157  15.598  0.00  0.00    +0.000 C 
ATOM     24  C   UNL     1       6.617   5.183  16.706  0.00  0.00    +0.000 C 
BRANCH  24  25
ATOM     25  C   UNL     1       7.297   5.194  18.064  0.00  0.00    +0.000 C 
ATOM     26  N   UNL     1       7.862   5.203  19.191  0.00  0.00    +0.000 NA
ENDBRANCH  24  25
ENDBRANCH   4  19
BRANCH   6  27
ATOM     27  C   UNL     1       2.058   2.742  19.815  0.00  0.00    +0.000 C 
ATOM     28  N   UNL     1       1.471   1.621  19.300  0.00  0.00    +0.000 N 
ATOM     29  O   UNL     1       1.838   3.092  20.970  0.00  0.00    +0.000 OA
ATOM     30  H   UNL     1       1.736   1.225  18.411  0.00  0.00    +0.000 HD
ATOM     31  H   UNL     1       0.906   1.063  19.923  0.00  0.00    +0.000 HD
ENDBRANCH   6  27
TORSDOF 6
ENDMDL
MODEL 4
REMARK VINA RESULT:      -7.2      3.929      8.633
REMARK  Name = 
REMARK  6 active torsions:
REMARK  status: ('A' for Active; 'I' for Inactive)
REMARK    1  A    between atoms: C_2  and  C_3
REMARK    2  A    between atoms: C_6  and  N_7
REMARK    3  A    between atoms: N_10  and  C_11
REMARK    4  A    between atoms: C_16  and  C_17
REMARK    5  A    between atoms: C_20  and  C_21
REMARK    6  A    between atoms: C_25  and  C_26
REMARK                            x       y       z     vdW  Elec       q    Type
REMARK                         _______ _______ _______ _____ _____    ______ ____
ROOT
ATOM      1  N   UNL     1       0.971   9.296  20.467  0.00  0.00    +0.000 N 
ATOM      2  C   UNL     1      -0.080  10.088  20.117  0.00  0.00    +0.000 A 
ATOM      3  N   UNL     1      -0.651  10.173  18.909  0.00  0.00    +0.000 NA
ATOM      4  N   UNL     1      -1.637  11.061  19.046  0.00  0.00    +0.000 N 
ATOM      5  C   UNL     1      -1.760  11.534  20.316  0.00  0.00    +0.000 A 
ATOM      6  C   UNL     1      -0.758  10.928  21.054  0.00  0.00    +0.000 A 
ATOM      7  H   UNL     1       1.296   9.367  21.432  0.00  0.00    +0.000 HD
ENDROOT
BRANCH   1  11
ATOM      8  C   UNL     1       3.114   6.282  18.404  0.00  0.00    +0.000 A 
ATOM      9  C   UNL     1       2.972   7.567  17.860  0.00  0.00    +0.000 A 
ATOM     10  C   UNL     1       2.225   8.544  18.528  0.00  0.00    +0.000 A 
ATOM     11  C   UNL     1       1.601   8.258  19.747  0.00  0.00    +0.000 A 
ATOM     12  C   UNL     1       1.737   6.955  20.252  0.00  0.00    +0.000 A 
ATOM     13  C   UNL     1       2.488   5.944  19.618  0.00  0.00    +0.000 A 
BRANCH  13  14
ATOM     14  C   UNL     1       2.656   4.610  20.322  0.00  0.00    +0.000 C 
ATOM     15  C   UNL     1       1.467   3.907  20.941  0.00  0.00    +0.000 C 
ATOM     16  C   UNL     1       2.113   3.339  19.717  0.00  0.00    +0.000 C 
ENDBRANCH  13  14
BRANCH   8  18
ATOM     17  N   UNL     1       4.587   4.551  17.144  0.00  0.00    +0.000 NA
ATOM     18  C   UNL     1       3.936   5.334  17.706  0.00  0.00    +0.000 C 
ENDBRANCH   8  18
ENDBRANCH   1  11
BRANCH   4  19
ATOM     19  C   UNL     1      -2.413  11.458  17.879  0.00  0.00    +0.000 C 
ATOM     20  C   UNL     1      -1.954  10.675  16.643  0.00  0.00    +0.000 C 
ATOM     21  O   UNL     1      -2.707  11.052  15.486  0.00  0.00    +0.000 OA
ATOM     22  C   UNL     1      -4.098  10.764  15.627  0.00  0.00    +0.000 C 
ATOM     23  C   UNL     1      -4.675  11.595  16.759  0.00  0.00    +0.000 C 
ATOM     24  C   UNL     1      -3.932  11.282  18.058  0.00  0.00    +0.000 C 
BRANCH  24  25
ATOM     25  C   UNL     1      -4.457  12.165  19.178  0.00  0.00    +0.000 C 
ATOM     26  N   UNL     1      -4.893  12.897  20.107  0.00  0.00    +0.000 NA
ENDBRANCH  24  25
ENDBRANCH   4  19
BRANCH   6  27
ATOM     27  C   UNL     1      -0.464  11.095  22.466  0.00  0.00    +0.000 C 
ATOM     28  N   UNL     1      -1.122  12.110  23.104  0.00  0.00    +0.000 N 
ATOM     29  O   UNL     1       0.315  10.370  23.078  0.00  0.00    +0.000 OA
ATOM     30  H   UNL     1      -1.870  12.630  22.673  0.00  0.00    +0.000 HD
ATOM     31  H   UNL     1      -0.991  12.196  24.101  0.00  0.00    +0.000 HD
ENDBRANCH   6  27
TORSDOF 6
ENDMDL
MODEL 5
REMARK VINA RESULT:      -7.1      4.297      9.351
REMARK  Name = 
REMARK  6 active torsions:
REMARK  status: ('A' for Active; 'I' for Inactive)
REMARK    1  A    between atoms: C_2  and  C_3
REMARK    2  A    between atoms: C_6  and  N_7
REMARK    3  A    between atoms: N_10  and  C_11
REMARK    4  A    between atoms: C_16  and  C_17
REMARK    5  A    between atoms: C_20  and  C_21
REMARK    6  A    between atoms: C_25  and  C_26
REMARK                            x       y       z     vdW  Elec       q    Type
REMARK                         _______ _______ _______ _____ _____    ______ ____
ROOT
ATOM      1  N   UNL     1       1.533  10.217  18.990  0.00  0.00    +0.000 N 
ATOM      2  C   UNL     1       0.386  10.929  18.816  0.00  0.00    +0.000 A 
ATOM      3  N   UNL     1      -0.866  10.457  18.878  0.00  0.00    +0.000 NA
ATOM      4  N   UNL     1      -1.653  11.510  18.652  0.00  0.00    +0.000 N 
ATOM      5  C   UNL     1      -0.960  12.669  18.482  0.00  0.00    +0.000 A 
ATOM      6  C   UNL     1       0.380  12.338  18.576  0.00  0.00    +0.000 A 
ATOM      7  H   UNL     1       2.410  10.732  18.891  0.00  0.00    +0.000 HD
ENDROOT
BRANCH   1  11
ATOM      8  C   UNL     1       1.815   6.200  20.301  0.00  0.00    +0.000 A 
ATOM      9  C   UNL     1       1.269   7.193  21.128  0.00  0.00    +0.000 A 
ATOM     10  C   UNL     1       1.221   8.526  20.704  0.00  0.00    +0.000 A 
ATOM     11  C   UNL     1       1.718   8.896  19.450  0.00  0.00    +0.000 A 
ATOM     12  C   UNL     1       2.285   7.886  18.657  0.00  0.00    +0.000 A 
ATOM     13  C   UNL     1       2.346   6.530  19.040  0.00  0.00    +0.000 A 
BRANCH  13  14
ATOM     14  C   UNL     1       2.876   5.514  18.046  0.00  0.00    +0.000 C 
ATOM     15  C   UNL     1       4.148   5.781  17.269  0.00  0.00    +0.000 C 
ATOM     16  C   UNL     1       4.132   4.728  18.332  0.00  0.00    +0.000 C 
ENDBRANCH  13  14
BRANCH   8  18
ATOM     17  N   UNL     1       1.765   3.745  21.152  0.00  0.00    +0.000 NA
ATOM     18  C   UNL     1       1.791   4.841  20.761  0.00  0.00    +0.000 C 
ENDBRANCH   8  18
ENDBRANCH   1  11
BRANCH   4  19
ATOM     19  C   UNL     1      -3.095  11.324  18.561  0.00  0.00    +0.000 C 
ATOM     20  C   UNL     1      -3.812  12.225  19.573  0.00  0.00    +0.000 C 
ATOM     21  O   UNL     1      -5.232  12.056  19.497  0.00  0.00    +0.000 OA
ATOM     22  C   UNL     1      -5.753  12.422  18.220  0.00  0.00    +0.000 C 
ATOM     23  C   UNL     1      -5.190  11.494  17.158  0.00  0.00    +0.000 C 
ATOM     24  C   UNL     1      -3.663  11.583  17.154  0.00  0.00    +0.000 C 
BRANCH  24  25
ATOM     25  C   UNL     1      -3.093  10.603  16.144  0.00  0.00    +0.000 C 
ATOM     26  N   UNL     1      -2.620   9.789  15.305  0.00  0.00    +0.000 NA
ENDBRANCH  24  25
ENDBRANCH   4  19
BRANCH   6  27
ATOM     27  C   UNL     1       1.528  13.221  18.470  0.00  0.00    +0.000 C 
ATOM     28  N   UNL     1       2.356  13.010  17.403  0.00  0.00    +0.000 N 
ATOM     29  O   UNL     1       1.755  14.122  19.272  0.00  0.00    +0.000 OA
ATOM     30  H   UNL     1       2.126  12.378  16.651  0.00  0.00    +0.000 HD
ATOM     31  H   UNL     1       3.116  13.659  17.268  0.00  0.00    +0.000 HD
ENDBRANCH   6  27
TORSDOF 6
ENDMDL
MODEL 6
REMARK VINA RESULT:      -7.1      3.577      8.213
REMARK  Name = 
REMARK  6 active torsions:
REMARK  status: ('A' for Active; 'I' for Inactive)
REMARK    1  A    between atoms: C_2  and  C_3
REMARK    2  A    between atoms: C_6  and  N_7
REMARK    3  A    between atoms: N_10  and  C_11
REMARK    4  A    between atoms: C_16  and  C_17
REMARK    5  A    between atoms: C_20  and  C_21
REMARK    6  A    between atoms: C_25  and  C_26
REMARK                            x       y       z     vdW  Elec       q    Type
REMARK                         _______ _______ _______ _____ _____    ______ ____
ROOT
ATOM      1  N   UNL     1       1.852   8.172  20.122  0.00  0.00    +0.000 N 
ATOM      2  C   UNL     1       0.805   9.029  19.968  0.00  0.00    +0.000 A 
ATOM      3  N   UNL     1       0.194   9.347  18.820  0.00  0.00    +0.000 NA
ATOM      4  N   UNL     1      -0.769  10.207  19.158  0.00  0.00    +0.000 N 
ATOM      5  C   UNL     1      -0.837  10.435  20.498  0.00  0.00    +0.000 A 
ATOM      6  C   UNL     1       0.178   9.688  21.071  0.00  0.00    +0.000 A 
ATOM      7  H   UNL     1       2.212   8.056  21.071  0.00  0.00    +0.000 HD
ENDROOT
BRANCH   1  11
ATOM      8  C   UNL     1       3.852   5.530  17.486  0.00  0.00    +0.000 A 
ATOM      9  C   UNL     1       3.911   6.919  17.299  0.00  0.00    +0.000 A 
ATOM     10  C   UNL     1       3.211   7.782  18.149  0.00  0.00    +0.000 A 
ATOM     11  C   UNL     1       2.435   7.279  19.198  0.00  0.00    +0.000 A 
ATOM     12  C   UNL     1       2.370   5.884  19.342  0.00  0.00    +0.000 A 
ATOM     13  C   UNL     1       3.067   4.979  18.515  0.00  0.00    +0.000 A 
BRANCH  13  14
ATOM     14  C   UNL     1       3.010   3.499  18.845  0.00  0.00    +0.000 C 
ATOM     15  C   UNL     1       4.036   2.870  19.764  0.00  0.00    +0.000 C 
ATOM     16  C   UNL     1       2.620   3.023  20.222  0.00  0.00    +0.000 C 
ENDBRANCH  13  14
BRANCH   8  18
ATOM     17  N   UNL     1       5.264   4.027  15.904  0.00  0.00    +0.000 NA
ATOM     18  C   UNL     1       4.632   4.692  16.620  0.00  0.00    +0.000 C 
ENDBRANCH   8  18
ENDBRANCH   1  11
BRANCH   4  19
ATOM     19  C   UNL     1      -1.578  10.826  18.116  0.00  0.00    +0.000 C 
ATOM     20  C   UNL     1      -1.736   9.871  16.927  0.00  0.00    +0.000 C 
ATOM     21  O   UNL     1      -2.530  10.463  15.894  0.00  0.00    +0.000 OA
ATOM     22  C   UNL     1      -3.857  10.755  16.330  0.00  0.00    +0.000 C 
ATOM     23  C   UNL     1      -3.809  11.797  17.434  0.00  0.00    +0.000 C 
ATOM     24  C   UNL     1      -2.969  11.273  18.600  0.00  0.00    +0.000 C 
BRANCH  24  25
ATOM     25  C   UNL     1      -2.859  12.341  19.675  0.00  0.00    +0.000 C 
ATOM     26  N   UNL     1      -2.767  13.227  20.567  0.00  0.00    +0.000 NA
ENDBRANCH  24  25
ENDBRANCH   4  19
BRANCH   6  27
ATOM     27  C   UNL     1       0.524   9.583  22.477  0.00  0.00    +0.000 C 
ATOM     28  N   UNL     1      -0.521   9.566  23.356  0.00  0.00    +0.000 N 
ATOM     29  O   UNL     1       1.682   9.499  22.876  0.00  0.00    +0.000 OA
ATOM     30  H   UNL     1      -1.482   9.489  23.060  0.00  0.00    +0.000 HD
ATOM     31  H   UNL     1      -0.307   9.417  24.332  0.00  0.00    +0.000 HD
ENDBRANCH   6  27
TORSDOF 6
ENDMDL
MODEL 7
REMARK VINA RESULT:      -6.7      2.038      4.742
REMARK  Name = 
REMARK  6 active torsions:
REMARK  status: ('A' for Active; 'I' for Inactive)
REMARK    1  A    between atoms: C_2  and  C_3
REMARK    2  A    between atoms: C_6  and  N_7
REMARK    3  A    between atoms: N_10  and  C_11
REMARK    4  A    between atoms: C_16  and  C_17
REMARK    5  A    between atoms: C_20  and  C_21
REMARK    6  A    between atoms: C_25  and  C_26
REMARK                            x       y       z     vdW  Elec       q    Type
REMARK                         _______ _______ _______ _____ _____    ______ ____
ROOT
ATOM      1  N   UNL     1       3.011   8.358  17.970  0.00  0.00    +0.000 N 
ATOM      2  C   UNL     1       3.319   7.056  18.226  0.00  0.00    +0.000 A 
ATOM      3  N   UNL     1       2.702   6.244  19.093  0.00  0.00    +0.000 NA
ATOM      4  N   UNL     1       3.338   5.075  18.997  0.00  0.00    +0.000 N 
ATOM      5  C   UNL     1       4.329   5.080  18.065  0.00  0.00    +0.000 A 
ATOM      6  C   UNL     1       4.358   6.358  17.536  0.00  0.00    +0.000 A 
ATOM      7  H   UNL     1       3.598   8.840  17.287  0.00  0.00    +0.000 HD
ENDROOT
BRANCH   1  11
ATOM      8  C   UNL     1      -0.485  10.414  19.187  0.00  0.00    +0.000 A 
ATOM      9  C   UNL     1      -0.237  10.151  17.832  0.00  0.00    +0.000 A 
ATOM     10  C   UNL     1       0.942   9.510  17.435  0.00  0.00    +0.000 A 
ATOM     11  C   UNL     1       1.899   9.123  18.380  0.00  0.00    +0.000 A 
ATOM     12  C   UNL     1       1.637   9.426  19.725  0.00  0.00    +0.000 A 
ATOM     13  C   UNL     1       0.459  10.061  20.169  0.00  0.00    +0.000 A 
BRANCH  13  14
ATOM     14  C   UNL     1       0.239  10.228  21.662  0.00  0.00    +0.000 C 
ATOM     15  C   UNL     1      -0.511   9.179  22.456  0.00  0.00    +0.000 C 
ATOM     16  C   UNL     1       0.962   9.355  22.657  0.00  0.00    +0.000 C 
ENDBRANCH  13  14
BRANCH   8  18
ATOM     17  N   UNL     1      -2.744  11.531  19.819  0.00  0.00    +0.000 NA
ATOM     18  C   UNL     1      -1.734  11.024  19.545  0.00  0.00    +0.000 C 
ENDBRANCH   8  18
ENDBRANCH   1  11
BRANCH   4  19
ATOM     19  C   UNL     1       2.968   3.981  19.885  0.00  0.00    +0.000 C 
ATOM     20  C   UNL     1       2.651   4.517  21.286  0.00  0.00    +0.000 C 
ATOM     21  O   UNL     1       2.284   3.454  22.173  0.00  0.00    +0.000 OA
ATOM     22  C   UNL     1       1.103   2.776  21.745  0.00  0.00    +0.000 C 
ATOM     23  C   UNL     1       1.361   2.102  20.410  0.00  0.00    +0.000 C 
ATOM     24  C   UNL     1       1.776   3.149  19.376  0.00  0.00    +0.000 C 
BRANCH  24  25
ATOM     25  C   UNL     1       2.107   2.469  18.058  0.00  0.00    +0.000 C 
ATOM     26  N   UNL     1       2.380   1.905  16.964  0.00  0.00    +0.000 NA
ENDBRANCH  24  25
ENDBRANCH   4  19
BRANCH   6  27
ATOM     27  C   UNL     1       5.236   6.877  16.502  0.00  0.00    +0.000 C 
ATOM     28  N   UNL     1       6.535   7.093  16.866  0.00  0.00    +0.000 N 
ATOM     29  O   UNL     1       4.859   7.103  15.356  0.00  0.00    +0.000 OA
ATOM     30  H   UNL     1       6.913   6.787  17.749  0.00  0.00    +0.000 HD
ATOM     31  H   UNL     1       7.180   7.381  16.144  0.00  0.00    +0.000 HD
ENDBRANCH   6  27
TORSDOF 6
ENDMDL
MODEL 8
REMARK VINA RESULT:      -6.7      6.699     10.412
REMARK  Name = 
REMARK  6 active torsions:
REMARK  status: ('A' for Active; 'I' for Inactive)
REMARK    1  A    between atoms: C_2  and  C_3
REMARK    2  A    between atoms: C_6  and  N_7
REMARK    3  A    between atoms: N_10  and  C_11
REMARK    4  A    between atoms: C_16  and  C_17
REMARK    5  A    between atoms: C_20  and  C_21
REMARK    6  A    between atoms: C_25  and  C_26
REMARK                            x       y       z     vdW  Elec       q    Type
REMARK                         _______ _______ _______ _____ _____    ______ ____
ROOT
ATOM      1  N   UNL     1      -1.123  10.799  19.918  0.00  0.00    +0.000 N 
ATOM      2  C   UNL     1      -1.410  11.561  21.010  0.00  0.00    +0.000 A 
ATOM      3  N   UNL     1      -2.252  12.600  21.061  0.00  0.00    +0.000 NA
ATOM      4  N   UNL     1      -2.216  13.023  22.326  0.00  0.00    +0.000 N 
ATOM      5  C   UNL     1      -1.406  12.270  23.119  0.00  0.00    +0.000 A 
ATOM      6  C   UNL     1      -0.851  11.302  22.300  0.00  0.00    +0.000 A 
ATOM      7  H   UNL     1      -0.439  10.052  20.049  0.00  0.00    +0.000 HD
ENDROOT
BRANCH   1  11
ATOM      8  C   UNL     1      -3.073  10.440  16.177  0.00  0.00    +0.000 A 
ATOM      9  C   UNL     1      -1.816   9.857  16.394  0.00  0.00    +0.000 A 
ATOM     10  C   UNL     1      -1.160  10.018  17.620  0.00  0.00    +0.000 A 
ATOM     11  C   UNL     1      -1.740  10.766  18.649  0.00  0.00    +0.000 A 
ATOM     12  C   UNL     1      -2.984  11.363  18.391  0.00  0.00    +0.000 A 
ATOM     13  C   UNL     1      -3.684  11.218  17.176  0.00  0.00    +0.000 A 
BRANCH  13  14
ATOM     14  C   UNL     1      -5.075  11.815  17.061  0.00  0.00    +0.000 C 
ATOM     15  C   UNL     1      -6.229  11.250  17.864  0.00  0.00    +0.000 C 
ATOM     16  C   UNL     1      -5.680  12.602  18.197  0.00  0.00    +0.000 C 
ENDBRANCH  13  14
BRANCH   8  18
ATOM     17  N   UNL     1      -4.244  10.014  13.896  0.00  0.00    +0.000 NA
ATOM     18  C   UNL     1      -3.728  10.199  14.922  0.00  0.00    +0.000 C 
ENDBRANCH   8  18
ENDBRANCH   1  11
BRANCH   4  19
ATOM     19  C   UNL     1      -2.963  14.214  22.707  0.00  0.00    +0.000 C 
ATOM     20  C   UNL     1      -2.641  15.371  21.754  0.00  0.00    +0.000 C 
ATOM     21  O   UNL     1      -3.369  16.551  22.113  0.00  0.00    +0.000 OA
ATOM     22  C   UNL     1      -4.781  16.364  22.026  0.00  0.00    +0.000 C 
ATOM     23  C   UNL     1      -5.216  15.313  23.033  0.00  0.00    +0.000 C 
ATOM     24  C   UNL     1      -4.487  13.998  22.751  0.00  0.00    +0.000 C 
BRANCH  24  25
ATOM     25  C   UNL     1      -4.864  12.966  23.800  0.00  0.00    +0.000 C 
ATOM     26  N   UNL     1      -5.176  12.109  24.670  0.00  0.00    +0.000 NA
ENDBRANCH  24  25
ENDBRANCH   4  19
BRANCH   6  27
ATOM     27  C   UNL     1       0.079  10.249  22.665  0.00  0.00    +0.000 C 
ATOM     28  N   UNL     1      -0.354   9.362  23.611  0.00  0.00    +0.000 N 
ATOM     29  O   UNL     1       1.191  10.133  22.159  0.00  0.00    +0.000 OA
ATOM     30  H   UNL     1      -1.307   9.340  23.942  0.00  0.00    +0.000 HD
ATOM     31  H   UNL     1       0.245   8.579  23.824  0.00  0.00    +0.000 HD
ENDBRANCH   6  27
TORSDOF 6
ENDMDL
MODEL 9
REMARK VINA RESULT:      -6.7      2.141      6.798
REMARK  Name = 
REMARK  6 active torsions:
REMARK  status: ('A' for Active; 'I' for Inactive)
REMARK    1  A    between atoms: C_2  and  C_3
REMARK    2  A    between atoms: C_6  and  N_7
REMARK    3  A    between atoms: N_10  and  C_11
REMARK    4  A    between atoms: C_16  and  C_17
REMARK    5  A    between atoms: C_20  and  C_21
REMARK    6  A    between atoms: C_25  and  C_26
REMARK                            x       y       z     vdW  Elec       q    Type
REMARK                         _______ _______ _______ _____ _____    ______ ____
ROOT
ATOM      1  N   UNL     1       4.176   4.045  19.425  0.00  0.00    +0.000 N 
ATOM      2  C   UNL     1       3.129   4.780  19.892  0.00  0.00    +0.000 A 
ATOM      3  N   UNL     1       2.757   5.997  19.476  0.00  0.00    +0.000 NA
ATOM      4  N   UNL     1       1.686   6.309  20.208  0.00  0.00    +0.000 N 
ATOM      5  C   UNL     1       1.317   5.319  21.065  0.00  0.00    +0.000 A 
ATOM      6  C   UNL     1       2.235   4.297  20.898  0.00  0.00    +0.000 A 
ATOM      7  H   UNL     1       4.332   3.139  19.868  0.00  0.00    +0.000 HD
ENDROOT
BRANCH   1  11
ATOM      8  C   UNL     1       6.463   4.872  15.958  0.00  0.00    +0.000 A 
ATOM      9  C   UNL     1       5.431   3.922  15.933  0.00  0.00    +0.000 A 
ATOM     10  C   UNL     1       4.710   3.624  17.094  0.00  0.00    +0.000 A 
ATOM     11  C   UNL     1       5.005   4.261  18.303  0.00  0.00    +0.000 A 
ATOM     12  C   UNL     1       6.063   5.185  18.305  0.00  0.00    +0.000 A 
ATOM     13  C   UNL     1       6.808   5.522  17.156  0.00  0.00    +0.000 A 
BRANCH  13  14
ATOM     14  C   UNL     1       7.850   6.622  17.260  0.00  0.00    +0.000 C 
ATOM     15  C   UNL     1       7.435   8.064  17.465  0.00  0.00    +0.000 C 
ATOM     16  C   UNL     1       8.115   7.320  18.571  0.00  0.00    +0.000 C 
ENDBRANCH  13  14
BRANCH   8  18
ATOM     17  N   UNL     1       7.684   5.449  13.738  0.00  0.00    +0.000 NA
ATOM     18  C   UNL     1       7.135   5.180  14.728  0.00  0.00    +0.000 C 
ENDBRANCH   8  18
ENDBRANCH   1  11
BRANCH   4  19
ATOM     19  C   UNL     1       1.077   7.625  20.067  0.00  0.00    +0.000 C 
ATOM     20  C   UNL     1       0.530   8.105  21.416  0.00  0.00    +0.000 C 
ATOM     21  O   UNL     1      -0.071   9.399  21.297  0.00  0.00    +0.000 OA
ATOM     22  C   UNL     1       0.866  10.395  20.887  0.00  0.00    +0.000 C 
ATOM     23  C   UNL     1       1.375  10.069  19.494  0.00  0.00    +0.000 C 
ATOM     24  C   UNL     1       2.034   8.689  19.497  0.00  0.00    +0.000 C 
BRANCH  24  25
ATOM     25  C   UNL     1       2.479   8.328  18.091  0.00  0.00    +0.000 C 
ATOM     26  N   UNL     1       2.850   8.029  16.923  0.00  0.00    +0.000 NA
ENDBRANCH  24  25
ENDBRANCH   4  19
BRANCH   6  27
ATOM     27  C   UNL     1       2.279   3.016  21.578  0.00  0.00    +0.000 C 
ATOM     28  N   UNL     1       1.100   2.573  22.108  0.00  0.00    +0.000 N 
ATOM     29  O   UNL     1       3.302   2.343  21.673  0.00  0.00    +0.000 OA
ATOM     30  H   UNL     1       0.217   3.025  21.927  0.00  0.00    +0.000 HD
ATOM     31  H   UNL     1       1.091   1.650  22.519  0.00  0.00    +0.000 HD
ENDBRANCH   6  27
TORSDOF 6
ENDMDL
