MODEL 1
REMARK VINA RESULT:      -6.4      0.000      0.000
REMARK  Name = 
REMARK  5 active torsions:
REMARK  status: ('A' for Active; 'I' for Inactive)
REMARK    1  A    between atoms: C_1  and  C_2
REMARK    2  A    between atoms: C_2  and  C_3
REMARK    3  A    between atoms: C_2  and  N_4
REMARK    4  A    between atoms: C_6  and  S_7
REMARK    5  A    between atoms: S_7  and  N_10
REMARK                            x       y       z     vdW  Elec       q    Type
REMARK                         _______ _______ _______ _____ _____    ______ ____
ROOT
ATOM      1  S   UNL     1       4.834   5.560  17.705  0.00  0.00    +0.000 S 
ATOM      2  O   UNL     1       5.849   5.558  18.733  0.00  0.00    +0.000 OA
ATOM      3  O   UNL     1       4.048   6.729  17.396  0.00  0.00    +0.000 OA
ENDROOT
BRANCH   1   4
ATOM      4  N   UNL     1       3.751   4.254  18.011  0.00  0.00    +0.000 NA
ATOM      5  C   UNL     1       2.331   4.678  18.203  0.00  0.00    +0.000 C 
ATOM      6  C   UNL     1       1.340   3.522  18.294  0.00  0.00    +0.000 C 
ATOM      7  S   UNL     1       1.736   2.403  19.667  0.00  0.00    +0.000 S 
ATOM      8  C   UNL     1       3.425   2.012  19.129  0.00  0.00    +0.000 C 
ATOM      9  C   UNL     1       4.281   3.269  19.006  0.00  0.00    +0.000 C 
ENDBRANCH   1   4
BRANCH   1  12
ATOM     10  N   UNL     1       6.370   4.484  14.312  0.00  0.00    +0.000 N 
ATOM     11  C   UNL     1       5.281   4.567  15.133  0.00  0.00    +0.000 A 
ATOM     12  C   UNL     1       5.711   5.234  16.260  0.00  0.00    +0.000 A 
ATOM     13  C   UNL     1       7.047   5.569  15.999  0.00  0.00    +0.000 A 
ATOM     14  N   UNL     1       7.445   5.141  14.796  0.00  0.00    +0.000 NA
BRANCH  10  16
ATOM     15  C   UNL     1       5.055   3.541  12.447  0.00  0.00    +0.000 C 
ATOM     16  C   UNL     1       6.442   3.766  13.042  0.00  0.00    +0.000 C 
ATOM     17  C   UNL     1       7.347   4.473  12.031  0.00  0.00    +0.000 C 
ENDBRANCH  10  16
ENDBRANCH   1  12
TORSDOF 3
ENDMDL
MODEL 2
REMARK VINA RESULT:      -6.3      1.310      1.689
REMARK  Name = 
REMARK  5 active torsions:
REMARK  status: ('A' for Active; 'I' for Inactive)
REMARK    1  A    between atoms: C_1  and  C_2
REMARK    2  A    between atoms: C_2  and  C_3
REMARK    3  A    between atoms: C_2  and  N_4
REMARK    4  A    between atoms: C_6  and  S_7
REMARK    5  A    between atoms: S_7  and  N_10
REMARK                            x       y       z     vdW  Elec       q    Type
REMARK                         _______ _______ _______ _____ _____    ______ ____
ROOT
ATOM      1  S   UNL     1       5.261   5.281  18.746  0.00  0.00    +0.000 S 
ATOM      2  O   UNL     1       6.308   5.323  19.741  0.00  0.00    +0.000 OA
ATOM      3  O   UNL     1       4.376   6.394  18.509  0.00  0.00    +0.000 OA
ENDROOT
BRANCH   1   4
ATOM      4  N   UNL     1       4.295   3.883  19.035  0.00  0.00    +0.000 NA
ATOM      5  C   UNL     1       3.883   3.164  17.791  0.00  0.00    +0.000 C 
ATOM      6  C   UNL     1       3.184   1.832  18.040  0.00  0.00    +0.000 C 
ATOM      7  S   UNL     1       1.684   2.035  19.041  0.00  0.00    +0.000 S 
ATOM      8  C   UNL     1       2.492   2.830  20.459  0.00  0.00    +0.000 C 
ATOM      9  C   UNL     1       3.217   4.109  20.048  0.00  0.00    +0.000 C 
ENDBRANCH   1   4
BRANCH   1  12
ATOM     10  N   UNL     1       6.672   4.939  15.152  0.00  0.00    +0.000 N 
ATOM     11  C   UNL     1       5.678   5.365  15.986  0.00  0.00    +0.000 A 
ATOM     12  C   UNL     1       6.110   5.079  17.263  0.00  0.00    +0.000 A 
ATOM     13  C   UNL     1       7.397   4.547  17.103  0.00  0.00    +0.000 A 
ATOM     14  N   UNL     1       7.758   4.489  15.816  0.00  0.00    +0.000 NA
BRANCH  10  16
ATOM     15  C   UNL     1       7.983   5.301  13.091  0.00  0.00    +0.000 C 
ATOM     16  C   UNL     1       6.631   4.926  13.692  0.00  0.00    +0.000 C 
ATOM     17  C   UNL     1       6.156   3.581  13.140  0.00  0.00    +0.000 C 
ENDBRANCH  10  16
ENDBRANCH   1  12
TORSDOF 3
ENDMDL
MODEL 3
REMARK VINA RESULT:      -6.2      1.833      2.040
REMARK  Name = 
REMARK  5 active torsions:
REMARK  status: ('A' for Active; 'I' for Inactive)
REMARK    1  A    between atoms: C_1  and  C_2
REMARK    2  A    between atoms: C_2  and  C_3
REMARK    3  A    between atoms: C_2  and  N_4
REMARK    4  A    between atoms: C_6  and  S_7
REMARK    5  A    between atoms: S_7  and  N_10
REMARK                            x       y       z     vdW  Elec       q    Type
REMARK                         _______ _______ _______ _____ _____    ______ ____
ROOT
ATOM      1  S   UNL     1       6.502   5.635  16.479  0.00  0.00    +0.000 S 
ATOM      2  O   UNL     1       7.695   5.092  17.086  0.00  0.00    +0.000 OA
ATOM      3  O   UNL     1       6.320   7.048  16.259  0.00  0.00    +0.000 OA
ENDROOT
BRANCH   1   4
ATOM      4  N   UNL     1       5.136   5.050  17.352  0.00  0.00    +0.000 NA
ATOM      5  C   UNL     1       4.051   6.063  17.529  0.00  0.00    +0.000 C 
ATOM      6  C   UNL     1       2.769   5.507  18.139  0.00  0.00    +0.000 C 
ATOM      7  S   UNL     1       3.063   4.774  19.773  0.00  0.00    +0.000 S 
ATOM      8  C   UNL     1       4.317   3.577  19.235  0.00  0.00    +0.000 C 
ATOM      9  C   UNL     1       5.506   4.267  18.573  0.00  0.00    +0.000 C 
ENDBRANCH   1   4
BRANCH   1  12
ATOM     10  N   UNL     1       6.044   3.771  13.111  0.00  0.00    +0.000 N 
ATOM     11  C   UNL     1       5.547   4.122  14.333  0.00  0.00    +0.000 A 
ATOM     12  C   UNL     1       6.495   4.947  14.901  0.00  0.00    +0.000 A 
ATOM     13  C   UNL     1       7.490   5.087  13.924  0.00  0.00    +0.000 A 
ATOM     14  N   UNL     1       7.204   4.395  12.815  0.00  0.00    +0.000 NA
BRANCH  10  16
ATOM     15  C   UNL     1       4.386   3.479  11.304  0.00  0.00    +0.000 C 
ATOM     16  C   UNL     1       5.449   2.818  12.177  0.00  0.00    +0.000 C 
ATOM     17  C   UNL     1       6.502   2.130  11.306  0.00  0.00    +0.000 C 
ENDBRANCH  10  16
ENDBRANCH   1  12
TORSDOF 3
ENDMDL
MODEL 4
REMARK VINA RESULT:      -6.1      2.171      2.651
REMARK  Name = 
REMARK  5 active torsions:
REMARK  status: ('A' for Active; 'I' for Inactive)
REMARK    1  A    between atoms: C_1  and  C_2
REMARK    2  A    between atoms: C_2  and  C_3
REMARK    3  A    between atoms: C_2  and  N_4
REMARK    4  A    between atoms: C_6  and  S_7
REMARK    5  A    between atoms: S_7  and  N_10
REMARK                            x       y       z     vdW  Elec       q    Type
REMARK                         _______ _______ _______ _____ _____    ______ ____
ROOT
ATOM      1  S   UNL     1       6.948   5.123  16.137  0.00  0.00    +0.000 S 
ATOM      2  O   UNL     1       7.715   4.041  16.708  0.00  0.00    +0.000 OA
ATOM      3  O   UNL     1       7.406   6.490  16.158  0.00  0.00    +0.000 OA
ENDROOT
BRANCH   1   4
ATOM      4  N   UNL     1       5.363   5.080  16.814  0.00  0.00    +0.000 NA
ATOM      5  C   UNL     1       5.073   6.211  17.747  0.00  0.00    +0.000 C 
ATOM      6  C   UNL     1       3.621   6.283  18.209  0.00  0.00    +0.000 C 
ATOM      7  S   UNL     1       3.110   4.765  19.062  0.00  0.00    +0.000 S 
ATOM      8  C   UNL     1       3.495   3.628  17.701  0.00  0.00    +0.000 C 
ATOM      9  C   UNL     1       4.962   3.718  17.290  0.00  0.00    +0.000 C 
ENDBRANCH   1   4
BRANCH   1  12
ATOM     10  N   UNL     1       6.318   3.863  12.525  0.00  0.00    +0.000 N 
ATOM     11  C   UNL     1       5.896   3.971  13.820  0.00  0.00    +0.000 A 
ATOM     12  C   UNL     1       6.854   4.724  14.465  0.00  0.00    +0.000 A 
ATOM     13  C   UNL     1       7.774   5.077  13.468  0.00  0.00    +0.000 A 
ATOM     14  N   UNL     1       7.434   4.579  12.274  0.00  0.00    +0.000 NA
BRANCH  10  16
ATOM     15  C   UNL     1       6.093   1.594  11.576  0.00  0.00    +0.000 C 
ATOM     16  C   UNL     1       5.691   3.063  11.476  0.00  0.00    +0.000 C 
ATOM     17  C   UNL     1       4.168   3.201  11.478  0.00  0.00    +0.000 C 
ENDBRANCH  10  16
ENDBRANCH   1  12
TORSDOF 3
ENDMDL
MODEL 5
REMARK VINA RESULT:      -6.0      0.935      1.291
REMARK  Name = 
REMARK  5 active torsions:
REMARK  status: ('A' for Active; 'I' for Inactive)
REMARK    1  A    between atoms: C_1  and  C_2
REMARK    2  A    between atoms: C_2  and  C_3
REMARK    3  A    between atoms: C_2  and  N_4
REMARK    4  A    between atoms: C_6  and  S_7
REMARK    5  A    between atoms: S_7  and  N_10
REMARK                            x       y       z     vdW  Elec       q    Type
REMARK                         _______ _______ _______ _____ _____    ______ ____
ROOT
ATOM      1  S   UNL     1       5.072   5.090  18.482  0.00  0.00    +0.000 S 
ATOM      2  O   UNL     1       5.966   4.570  19.491  0.00  0.00    +0.000 OA
ATOM      3  O   UNL     1       4.586   6.447  18.504  0.00  0.00    +0.000 OA
ENDROOT
BRANCH   1   4
ATOM      4  N   UNL     1       3.711   4.037  18.370  0.00  0.00    +0.000 NA
ATOM      5  C   UNL     1       2.419   4.744  18.114  0.00  0.00    +0.000 C 
ATOM      6  C   UNL     1       1.242   3.814  17.835  0.00  0.00    +0.000 C 
ATOM      7  S   UNL     1       0.944   2.673  19.215  0.00  0.00    +0.000 S 
ATOM      8  C   UNL     1       2.602   1.936  19.231  0.00  0.00    +0.000 C 
ATOM      9  C   UNL     1       3.685   2.991  19.441  0.00  0.00    +0.000 C 
ENDBRANCH   1   4
BRANCH   1  12
ATOM     10  N   UNL     1       6.626   4.902  14.935  0.00  0.00    +0.000 N 
ATOM     11  C   UNL     1       5.565   5.217  15.735  0.00  0.00    +0.000 A 
ATOM     12  C   UNL     1       5.985   4.980  17.027  0.00  0.00    +0.000 A 
ATOM     13  C   UNL     1       7.326   4.590  16.909  0.00  0.00    +0.000 A 
ATOM     14  N   UNL     1       7.732   4.571  15.635  0.00  0.00    +0.000 NA
BRANCH  10  16
ATOM     15  C   UNL     1       8.000   5.271  12.918  0.00  0.00    +0.000 C 
ATOM     16  C   UNL     1       6.633   4.885  13.475  0.00  0.00    +0.000 C 
ATOM     17  C   UNL     1       6.189   3.533  12.911  0.00  0.00    +0.000 C 
ENDBRANCH  10  16
ENDBRANCH   1  12
TORSDOF 3
ENDMDL
MODEL 6
REMARK VINA RESULT:      -6.0      1.351      1.460
REMARK  Name = 
REMARK  5 active torsions:
REMARK  status: ('A' for Active; 'I' for Inactive)
REMARK    1  A    between atoms: C_1  and  C_2
REMARK    2  A    between atoms: C_2  and  C_3
REMARK    3  A    between atoms: C_2  and  N_4
REMARK    4  A    between atoms: C_6  and  S_7
REMARK    5  A    between atoms: S_7  and  N_10
REMARK                            x       y       z     vdW  Elec       q    Type
REMARK                         _______ _______ _______ _____ _____    ______ ____
ROOT
ATOM      1  S   UNL     1       4.971   5.024  18.729  0.00  0.00    +0.000 S 
ATOM      2  O   UNL     1       6.205   4.603  19.353  0.00  0.00    +0.000 OA
ATOM      3  O   UNL     1       4.337   6.280  19.042  0.00  0.00    +0.000 OA
ENDROOT
BRANCH   1   4
ATOM      4  N   UNL     1       3.806   3.770  18.936  0.00  0.00    +0.000 NA
ATOM      5  C   UNL     1       3.017   3.468  17.703  0.00  0.00    +0.000 C 
ATOM      6  C   UNL     1       2.114   2.245  17.822  0.00  0.00    +0.000 C 
ATOM      7  S   UNL     1       0.915   2.423  19.173  0.00  0.00    +0.000 S 
ATOM      8  C   UNL     1       2.133   2.691  20.491  0.00  0.00    +0.000 C 
ATOM      9  C   UNL     1       3.018   3.900  20.202  0.00  0.00    +0.000 C 
ENDBRANCH   1   4
BRANCH   1  12
ATOM     10  N   UNL     1       6.186   4.821  15.054  0.00  0.00    +0.000 N 
ATOM     11  C   UNL     1       6.015   4.217  16.267  0.00  0.00    +0.000 A 
ATOM     12  C   UNL     1       5.374   5.145  17.060  0.00  0.00    +0.000 A 
ATOM     13  C   UNL     1       5.143   6.245  16.223  0.00  0.00    +0.000 A 
ATOM     14  N   UNL     1       5.609   6.039  14.986  0.00  0.00    +0.000 NA
BRANCH  10  16
ATOM     15  C   UNL     1       5.974   3.614  12.910  0.00  0.00    +0.000 C 
ATOM     16  C   UNL     1       6.916   4.275  13.912  0.00  0.00    +0.000 C 
ATOM     17  C   UNL     1       7.776   5.333  13.218  0.00  0.00    +0.000 C 
ENDBRANCH  10  16
ENDBRANCH   1  12
TORSDOF 3
ENDMDL
MODEL 7
REMARK VINA RESULT:      -5.9      1.211      1.301
REMARK  Name = 
REMARK  5 active torsions:
REMARK  status: ('A' for Active; 'I' for Inactive)
REMARK    1  A    between atoms: C_1  and  C_2
REMARK    2  A    between atoms: C_2  and  C_3
REMARK    3  A    between atoms: C_2  and  N_4
REMARK    4  A    between atoms: C_6  and  S_7
REMARK    5  A    between atoms: S_7  and  N_10
REMARK                            x       y       z     vdW  Elec       q    Type
REMARK                         _______ _______ _______ _____ _____    ______ ____
ROOT
ATOM      1  S   UNL     1       5.199   4.881  18.490  0.00  0.00    +0.000 S 
ATOM      2  O   UNL     1       6.221   3.956  18.922  0.00  0.00    +0.000 OA
ATOM      3  O   UNL     1       5.183   6.263  18.902  0.00  0.00    +0.000 OA
ENDROOT
BRANCH   1   4
ATOM      4  N   UNL     1       3.659   4.197  18.855  0.00  0.00    +0.000 NA
ATOM      5  C   UNL     1       2.923   4.909  19.943  0.00  0.00    +0.000 C 
ATOM      6  C   UNL     1       1.491   4.426  20.150  0.00  0.00    +0.000 C 
ATOM      7  S   UNL     1       1.430   2.657  20.555  0.00  0.00    +0.000 S 
ATOM      8  C   UNL     1       2.298   2.079  19.070  0.00  0.00    +0.000 C 
ATOM      9  C   UNL     1       3.685   2.703  18.950  0.00  0.00    +0.000 C 
ENDBRANCH   1   4
BRANCH   1  12
ATOM     10  N   UNL     1       5.800   4.468  14.683  0.00  0.00    +0.000 N 
ATOM     11  C   UNL     1       5.622   3.897  15.910  0.00  0.00    +0.000 A 
ATOM     12  C   UNL     1       5.394   4.941  16.781  0.00  0.00    +0.000 A 
ATOM     13  C   UNL     1       5.387   6.091  15.979  0.00  0.00    +0.000 A 
ATOM     14  N   UNL     1       5.604   5.804  14.690  0.00  0.00    +0.000 NA
BRANCH  10  16
ATOM     15  C   UNL     1       4.985   3.603  12.519  0.00  0.00    +0.000 C 
ATOM     16  C   UNL     1       6.179   3.776  13.453  0.00  0.00    +0.000 C 
ATOM     17  C   UNL     1       7.328   4.478  12.727  0.00  0.00    +0.000 C 
ENDBRANCH  10  16
ENDBRANCH   1  12
TORSDOF 3
ENDMDL
MODEL 8
REMARK VINA RESULT:      -5.9      0.908      1.572
REMARK  Name = 
REMARK  5 active torsions:
REMARK  status: ('A' for Active; 'I' for Inactive)
REMARK    1  A    between atoms: C_1  and  C_2
REMARK    2  A    between atoms: C_2  and  C_3
REMARK    3  A    between atoms: C_2  and  N_4
REMARK    4  A    between atoms: C_6  and  S_7
REMARK    5  A    between atoms: S_7  and  N_10
REMARK                            x       y       z     vdW  Elec       q    Type
REMARK                         _______ _______ _______ _____ _____    ______ ____
ROOT
ATOM      1  S   UNL     1       4.971   5.692  18.501  0.00  0.00    +0.000 S 
ATOM      2  O   UNL     1       5.902   5.724  19.606  0.00  0.00    +0.000 OA
ATOM      3  O   UNL     1       4.299   6.875  18.022  0.00  0.00    +0.000 OA
ENDROOT
BRANCH   1   4
ATOM      4  N   UNL     1       3.775   4.497  18.835  0.00  0.00    +0.000 NA
ATOM      5  C   UNL     1       4.310   3.101  18.877  0.00  0.00    +0.000 C 
ATOM      6  C   UNL     1       3.301   2.059  19.347  0.00  0.00    +0.000 C 
ATOM      7  S   UNL     1       1.830   2.018  18.284  0.00  0.00    +0.000 S 
ATOM      8  C   UNL     1       1.381   3.764  18.491  0.00  0.00    +0.000 C 
ATOM      9  C   UNL     1       2.512   4.691  18.054  0.00  0.00    +0.000 C 
ENDBRANCH   1   4
BRANCH   1  12
ATOM     10  N   UNL     1       6.637   4.496  15.212  0.00  0.00    +0.000 N 
ATOM     11  C   UNL     1       5.555   5.028  15.851  0.00  0.00    +0.000 A 
ATOM     12  C   UNL     1       5.930   5.170  17.170  0.00  0.00    +0.000 A 
ATOM     13  C   UNL     1       7.270   4.762  17.215  0.00  0.00    +0.000 A 
ATOM     14  N   UNL     1       7.717   4.378  16.014  0.00  0.00    +0.000 NA
BRANCH  10  16
ATOM     15  C   UNL     1       5.293   3.873  13.237  0.00  0.00    +0.000 C 
ATOM     16  C   UNL     1       6.691   4.061  13.818  0.00  0.00    +0.000 C 
ATOM     17  C   UNL     1       7.507   5.018  12.947  0.00  0.00    +0.000 C 
ENDBRANCH  10  16
ENDBRANCH   1  12
TORSDOF 3
ENDMDL
MODEL 9
REMARK VINA RESULT:      -5.9      1.029      1.633
REMARK  Name = 
REMARK  5 active torsions:
REMARK  status: ('A' for Active; 'I' for Inactive)
REMARK    1  A    between atoms: C_1  and  C_2
REMARK    2  A    between atoms: C_2  and  C_3
REMARK    3  A    between atoms: C_2  and  N_4
REMARK    4  A    between atoms: C_6  and  S_7
REMARK    5  A    between atoms: S_7  and  N_10
REMARK                            x       y       z     vdW  Elec       q    Type
REMARK                         _______ _______ _______ _____ _____    ______ ____
ROOT
ATOM      1  S   UNL     1       5.365   4.975  18.388  0.00  0.00    +0.000 S 
ATOM      2  O   UNL     1       6.398   4.059  18.813  0.00  0.00    +0.000 OA
ATOM      3  O   UNL     1       5.358   6.365  18.774  0.00  0.00    +0.000 OA
ENDROOT
BRANCH   1   4
ATOM      4  N   UNL     1       3.836   4.298  18.803  0.00  0.00    +0.000 NA
ATOM      5  C   UNL     1       3.926   2.963  19.471  0.00  0.00    +0.000 C 
ATOM      6  C   UNL     1       2.596   2.439  20.003  0.00  0.00    +0.000 C 
ATOM      7  S   UNL     1       1.360   2.275  18.683  0.00  0.00    +0.000 S 
ATOM      8  C   UNL     1       1.415   4.006  18.139  0.00  0.00    +0.000 C 
ATOM      9  C   UNL     1       2.821   4.416  17.709  0.00  0.00    +0.000 C 
ENDBRANCH   1   4
BRANCH   1  12
ATOM     10  N   UNL     1       5.939   4.513  14.582  0.00  0.00    +0.000 N 
ATOM     11  C   UNL     1       5.854   3.965  15.830  0.00  0.00    +0.000 A 
ATOM     12  C   UNL     1       5.519   5.002  16.674  0.00  0.00    +0.000 A 
ATOM     13  C   UNL     1       5.361   6.117  15.838  0.00  0.00    +0.000 A 
ATOM     14  N   UNL     1       5.586   5.815  14.554  0.00  0.00    +0.000 NA
BRANCH  10  16
ATOM     15  C   UNL     1       5.189   3.449  12.485  0.00  0.00    +0.000 C 
ATOM     16  C   UNL     1       6.375   3.831  13.366  0.00  0.00    +0.000 C 
ATOM     17  C   UNL     1       7.386   4.658  12.571  0.00  0.00    +0.000 C 
ENDBRANCH  10  16
ENDBRANCH   1  12
TORSDOF 3
ENDMDL
