MODEL 1
REMARK VINA RESULT:      -7.0      0.000      0.000
REMARK  Name = 
REMARK  2 active torsions:
REMARK  status: ('A' for Active; 'I' for Inactive)
REMARK    1  A    between atoms: C_1  and  O_2
REMARK    2  A    between atoms: O_2  and  C_3
REMARK                            x       y       z     vdW  Elec       q    Type
REMARK                         _______ _______ _______ _____ _____    ______ ____
ROOT
ATOM      1  C   UNL     1       4.934   6.699  16.537  0.00  0.00    +0.000 C 
ATOM      2  C   UNL     1       3.671   7.085  16.791  0.00  0.00    +0.000 C 
ATOM      3  C   UNL     1       3.047   7.217  18.115  0.00  0.00    +0.000 A 
ATOM      4  C   UNL     1       2.090   8.235  18.278  0.00  0.00    +0.000 A 
ATOM      5  C   UNL     1       1.377   8.366  19.468  0.00  0.00    +0.000 A 
ATOM      6  C   UNL     1       1.599   7.472  20.508  0.00  0.00    +0.000 A 
ATOM      7  C   UNL     1       2.523   6.439  20.347  0.00  0.00    +0.000 A 
ATOM      8  C   UNL     1       3.257   6.296  19.156  0.00  0.00    +0.000 A 
ATOM      9  N   UNL     1       4.190   5.221  19.020  0.00  0.00    +0.000 N 
ATOM     10  C   UNL     1       3.856   3.932  19.437  0.00  0.00    +0.000 C 
ATOM     11  N   UNL     1       4.795   2.968  19.189  0.00  0.00    +0.000 N 
ATOM     12  O   UNL     1       2.782   3.571  19.914  0.00  0.00    +0.000 OA
ATOM     13  C   UNL     1       5.535   5.643  18.770  0.00  0.00    +0.000 A 
ATOM     14  C   UNL     1       6.526   5.314  19.722  0.00  0.00    +0.000 A 
ATOM     15  C   UNL     1       7.860   5.670  19.529  0.00  0.00    +0.000 A 
ATOM     16  C   UNL     1       8.224   6.361  18.382  0.00  0.00    +0.000 A 
ATOM     17  C   UNL     1       7.253   6.701  17.436  0.00  0.00    +0.000 A 
ATOM     18  C   UNL     1       5.896   6.363  17.615  0.00  0.00    +0.000 A 
ATOM     19  H   UNL     1       5.405   3.117  18.397  0.00  0.00    +0.000 HD
ATOM     20  H   UNL     1       4.441   2.027  19.294  0.00  0.00    +0.000 HD
ENDROOT
BRANCH   1  22
ATOM     21  C   UNL     1       5.651   5.302  14.710  0.00  0.00    +0.000 C 
ATOM     22  O   UNL     1       5.491   6.599  15.272  0.00  0.00    +0.000 OA
ENDBRANCH   1  22
TORSDOF 1
ENDMDL
MODEL 2
REMARK VINA RESULT:      -7.0      5.438      8.340
REMARK  Name = 
REMARK  2 active torsions:
REMARK  status: ('A' for Active; 'I' for Inactive)
REMARK    1  A    between atoms: C_1  and  O_2
REMARK    2  A    between atoms: O_2  and  C_3
REMARK                            x       y       z     vdW  Elec       q    Type
REMARK                         _______ _______ _______ _____ _____    ______ ____
ROOT
ATOM      1  C   UNL     1       0.571   9.698  18.482  0.00  0.00    +0.000 C 
ATOM      2  C   UNL     1       0.932   9.621  19.776  0.00  0.00    +0.000 C 
ATOM      3  C   UNL     1       0.125  10.030  20.933  0.00  0.00    +0.000 A 
ATOM      4  C   UNL     1       0.274   9.286  22.118  0.00  0.00    +0.000 A 
ATOM      5  C   UNL     1      -0.376   9.666  23.291  0.00  0.00    +0.000 A 
ATOM      6  C   UNL     1      -1.171  10.804  23.302  0.00  0.00    +0.000 A 
ATOM      7  C   UNL     1      -1.303  11.568  22.141  0.00  0.00    +0.000 A 
ATOM      8  C   UNL     1      -0.660  11.195  20.947  0.00  0.00    +0.000 A 
ATOM      9  N   UNL     1      -0.808  12.005  19.778  0.00  0.00    +0.000 N 
ATOM     10  C   UNL     1      -0.719  13.395  19.858  0.00  0.00    +0.000 C 
ATOM     11  N   UNL     1      -0.799  14.064  18.667  0.00  0.00    +0.000 N 
ATOM     12  O   UNL     1      -0.488  14.057  20.868  0.00  0.00    +0.000 OA
ATOM     13  C   UNL     1      -1.380  11.318  18.658  0.00  0.00    +0.000 A 
ATOM     14  C   UNL     1      -2.615  11.779  18.152  0.00  0.00    +0.000 A 
ATOM     15  C   UNL     1      -3.216  11.174  17.049  0.00  0.00    +0.000 A 
ATOM     16  C   UNL     1      -2.591  10.097  16.436  0.00  0.00    +0.000 A 
ATOM     17  C   UNL     1      -1.373   9.624  16.932  0.00  0.00    +0.000 A 
ATOM     18  C   UNL     1      -0.753  10.212  18.054  0.00  0.00    +0.000 A 
ATOM     19  H   UNL     1      -0.485  13.569  17.843  0.00  0.00    +0.000 HD
ATOM     20  H   UNL     1      -0.511  15.031  18.730  0.00  0.00    +0.000 HD
ENDROOT
BRANCH   1  22
ATOM     21  C   UNL     1       2.452   8.420  17.685  0.00  0.00    +0.000 C 
ATOM     22  O   UNL     1       1.357   9.289  17.417  0.00  0.00    +0.000 OA
ENDBRANCH   1  22
TORSDOF 1
ENDMDL
MODEL 3
REMARK VINA RESULT:      -6.9      1.886      3.128
REMARK  Name = 
REMARK  2 active torsions:
REMARK  status: ('A' for Active; 'I' for Inactive)
REMARK    1  A    between atoms: C_1  and  O_2
REMARK    2  A    between atoms: O_2  and  C_3
REMARK                            x       y       z     vdW  Elec       q    Type
REMARK                         _______ _______ _______ _____ _____    ______ ____
ROOT
ATOM      1  C   UNL     1       3.416   6.683  18.064  0.00  0.00    +0.000 C 
ATOM      2  C   UNL     1       2.492   6.077  18.830  0.00  0.00    +0.000 C 
ATOM      3  C   UNL     1       2.709   4.923  19.713  0.00  0.00    +0.000 A 
ATOM      4  C   UNL     1       1.951   4.864  20.896  0.00  0.00    +0.000 A 
ATOM      5  C   UNL     1       2.020   3.757  21.739  0.00  0.00    +0.000 A 
ATOM      6  C   UNL     1       2.835   2.683  21.403  0.00  0.00    +0.000 A 
ATOM      7  C   UNL     1       3.568   2.715  20.216  0.00  0.00    +0.000 A 
ATOM      8  C   UNL     1       3.516   3.828  19.357  0.00  0.00    +0.000 A 
ATOM      9  N   UNL     1       4.272   3.825  18.144  0.00  0.00    +0.000 N 
ATOM     10  C   UNL     1       4.301   2.695  17.326  0.00  0.00    +0.000 C 
ATOM     11  N   UNL     1       4.993   2.831  16.153  0.00  0.00    +0.000 N 
ATOM     12  O   UNL     1       3.700   1.640  17.513  0.00  0.00    +0.000 OA
ATOM     13  C   UNL     1       5.221   4.893  18.044  0.00  0.00    +0.000 A 
ATOM     14  C   UNL     1       6.591   4.561  17.952  0.00  0.00    +0.000 A 
ATOM     15  C   UNL     1       7.567   5.549  17.826  0.00  0.00    +0.000 A 
ATOM     16  C   UNL     1       7.188   6.883  17.790  0.00  0.00    +0.000 A 
ATOM     17  C   UNL     1       5.837   7.227  17.890  0.00  0.00    +0.000 A 
ATOM     18  C   UNL     1       4.834   6.246  18.031  0.00  0.00    +0.000 A 
ATOM     19  H   UNL     1       5.047   3.760  15.759  0.00  0.00    +0.000 HD
ATOM     20  H   UNL     1       4.812   2.088  15.493  0.00  0.00    +0.000 HD
ENDROOT
BRANCH   1  22
ATOM     21  C   UNL     1       2.258   8.766  17.714  0.00  0.00    +0.000 C 
ATOM     22  O   UNL     1       3.175   7.780  17.253  0.00  0.00    +0.000 OA
ENDBRANCH   1  22
TORSDOF 1
ENDMDL
MODEL 4
REMARK VINA RESULT:      -6.7      2.259      4.176
REMARK  Name = 
REMARK  2 active torsions:
REMARK  status: ('A' for Active; 'I' for Inactive)
REMARK    1  A    between atoms: C_1  and  O_2
REMARK    2  A    between atoms: O_2  and  C_3
REMARK                            x       y       z     vdW  Elec       q    Type
REMARK                         _______ _______ _______ _____ _____    ______ ____
ROOT
ATOM      1  C   UNL     1       6.266   4.390  18.639  0.00  0.00    +0.000 C 
ATOM      2  C   UNL     1       5.281   3.906  19.416  0.00  0.00    +0.000 C 
ATOM      3  C   UNL     1       3.889   3.662  19.012  0.00  0.00    +0.000 A 
ATOM      4  C   UNL     1       3.226   2.574  19.608  0.00  0.00    +0.000 A 
ATOM      5  C   UNL     1       1.877   2.332  19.359  0.00  0.00    +0.000 A 
ATOM      6  C   UNL     1       1.165   3.184  18.524  0.00  0.00    +0.000 A 
ATOM      7  C   UNL     1       1.804   4.285  17.951  0.00  0.00    +0.000 A 
ATOM      8  C   UNL     1       3.167   4.540  18.186  0.00  0.00    +0.000 A 
ATOM      9  N   UNL     1       3.789   5.682  17.592  0.00  0.00    +0.000 N 
ATOM     10  C   UNL     1       3.148   6.921  17.591  0.00  0.00    +0.000 C 
ATOM     11  N   UNL     1       3.868   7.960  17.064  0.00  0.00    +0.000 N 
ATOM     12  O   UNL     1       2.057   7.182  18.092  0.00  0.00    +0.000 OA
ATOM     13  C   UNL     1       4.893   5.368  16.736  0.00  0.00    +0.000 A 
ATOM     14  C   UNL     1       4.799   5.714  15.370  0.00  0.00    +0.000 A 
ATOM     15  C   UNL     1       5.847   5.461  14.486  0.00  0.00    +0.000 A 
ATOM     16  C   UNL     1       7.005   4.857  14.954  0.00  0.00    +0.000 A 
ATOM     17  C   UNL     1       7.109   4.501  16.301  0.00  0.00    +0.000 A 
ATOM     18  C   UNL     1       6.058   4.735  17.211  0.00  0.00    +0.000 A 
ATOM     19  H   UNL     1       4.875   7.894  17.124  0.00  0.00    +0.000 HD
ATOM     20  H   UNL     1       3.478   8.867  17.278  0.00  0.00    +0.000 HD
ENDROOT
BRANCH   1  22
ATOM     21  C   UNL     1       7.943   5.897  19.489  0.00  0.00    +0.000 C 
ATOM     22  O   UNL     1       7.573   4.593  19.053  0.00  0.00    +0.000 OA
ENDBRANCH   1  22
TORSDOF 1
ENDMDL
MODEL 5
REMARK VINA RESULT:      -6.6      1.901      4.758
REMARK  Name = 
REMARK  2 active torsions:
REMARK  status: ('A' for Active; 'I' for Inactive)
REMARK    1  A    between atoms: C_1  and  O_2
REMARK    2  A    between atoms: O_2  and  C_3
REMARK                            x       y       z     vdW  Elec       q    Type
REMARK                         _______ _______ _______ _____ _____    ______ ____
ROOT
ATOM      1  C   UNL     1       2.037   4.548  20.695  0.00  0.00    +0.000 C 
ATOM      2  C   UNL     1       2.049   5.893  20.724  0.00  0.00    +0.000 C 
ATOM      3  C   UNL     1       2.290   6.788  19.584  0.00  0.00    +0.000 A 
ATOM      4  C   UNL     1       1.605   8.017  19.574  0.00  0.00    +0.000 A 
ATOM      5  C   UNL     1       1.851   8.968  18.585  0.00  0.00    +0.000 A 
ATOM      6  C   UNL     1       2.798   8.712  17.602  0.00  0.00    +0.000 A 
ATOM      7  C   UNL     1       3.507   7.510  17.619  0.00  0.00    +0.000 A 
ATOM      8  C   UNL     1       3.266   6.537  18.605  0.00  0.00    +0.000 A 
ATOM      9  N   UNL     1       4.016   5.320  18.600  0.00  0.00    +0.000 N 
ATOM     10  C   UNL     1       5.395   5.334  18.386  0.00  0.00    +0.000 C 
ATOM     11  N   UNL     1       6.022   4.121  18.479  0.00  0.00    +0.000 N 
ATOM     12  O   UNL     1       6.100   6.327  18.216  0.00  0.00    +0.000 OA
ATOM     13  C   UNL     1       3.215   4.139  18.481  0.00  0.00    +0.000 A 
ATOM     14  C   UNL     1       3.404   3.316  17.348  0.00  0.00    +0.000 A 
ATOM     15  C   UNL     1       2.677   2.139  17.180  0.00  0.00    +0.000 A 
ATOM     16  C   UNL     1       1.749   1.766  18.142  0.00  0.00    +0.000 A 
ATOM     17  C   UNL     1       1.545   2.575  19.264  0.00  0.00    +0.000 A 
ATOM     18  C   UNL     1       2.260   3.776  19.448  0.00  0.00    +0.000 A 
ATOM     19  H   UNL     1       5.597   3.432  19.084  0.00  0.00    +0.000 HD
ATOM     20  H   UNL     1       7.028   4.194  18.543  0.00  0.00    +0.000 HD
ENDROOT
BRANCH   1  22
ATOM     21  C   UNL     1       2.513   2.514  21.895  0.00  0.00    +0.000 C 
ATOM     22  O   UNL     1       1.792   3.736  21.791  0.00  0.00    +0.000 OA
ENDBRANCH   1  22
TORSDOF 1
ENDMDL
MODEL 6
REMARK VINA RESULT:      -6.6      5.262      8.421
REMARK  Name = 
REMARK  2 active torsions:
REMARK  status: ('A' for Active; 'I' for Inactive)
REMARK    1  A    between atoms: C_1  and  O_2
REMARK    2  A    between atoms: O_2  and  C_3
REMARK                            x       y       z     vdW  Elec       q    Type
REMARK                         _______ _______ _______ _____ _____    ______ ____
ROOT
ATOM      1  C   UNL     1       0.013  11.232  21.765  0.00  0.00    +0.000 C 
ATOM      2  C   UNL     1       0.277   9.945  21.480  0.00  0.00    +0.000 C 
ATOM      3  C   UNL     1       0.873   9.429  20.240  0.00  0.00    +0.000 A 
ATOM      4  C   UNL     1       1.705   8.299  20.347  0.00  0.00    +0.000 A 
ATOM      5  C   UNL     1       2.230   7.685  19.212  0.00  0.00    +0.000 A 
ATOM      6  C   UNL     1       1.918   8.180  17.952  0.00  0.00    +0.000 A 
ATOM      7  C   UNL     1       1.069   9.281  17.831  0.00  0.00    +0.000 A 
ATOM      8  C   UNL     1       0.536   9.918  18.967  0.00  0.00    +0.000 A 
ATOM      9  N   UNL     1      -0.338  11.038  18.808  0.00  0.00    +0.000 N 
ATOM     10  C   UNL     1      -1.354  11.018  17.852  0.00  0.00    +0.000 C 
ATOM     11  N   UNL     1      -2.178  12.111  17.840  0.00  0.00    +0.000 N 
ATOM     12  O   UNL     1      -1.629  10.090  17.094  0.00  0.00    +0.000 OA
ATOM     13  C   UNL     1       0.130  12.238  19.433  0.00  0.00    +0.000 A 
ATOM     14  C   UNL     1       0.398  13.357  18.613  0.00  0.00    +0.000 A 
ATOM     15  C   UNL     1       0.831  14.565  19.158  0.00  0.00    +0.000 A 
ATOM     16  C   UNL     1       1.003  14.673  20.530  0.00  0.00    +0.000 A 
ATOM     17  C   UNL     1       0.751  13.572  21.353  0.00  0.00    +0.000 A 
ATOM     18  C   UNL     1       0.325  12.336  20.824  0.00  0.00    +0.000 A 
ATOM     19  H   UNL     1      -2.297  12.603  18.715  0.00  0.00    +0.000 HD
ATOM     20  H   UNL     1      -3.022  11.971  17.302  0.00  0.00    +0.000 HD
ENDROOT
BRANCH   1  22
ATOM     21  C   UNL     1      -1.955  11.634  23.095  0.00  0.00    +0.000 C 
ATOM     22  O   UNL     1      -0.539  11.682  22.953  0.00  0.00    +0.000 OA
ENDBRANCH   1  22
TORSDOF 1
ENDMDL
MODEL 7
REMARK VINA RESULT:      -6.3      2.101      5.003
REMARK  Name = 
REMARK  2 active torsions:
REMARK  status: ('A' for Active; 'I' for Inactive)
REMARK    1  A    between atoms: C_1  and  O_2
REMARK    2  A    between atoms: O_2  and  C_3
REMARK                            x       y       z     vdW  Elec       q    Type
REMARK                         _______ _______ _______ _____ _____    ______ ____
ROOT
ATOM      1  C   UNL     1       2.160   6.026  19.782  0.00  0.00    +0.000 C 
ATOM      2  C   UNL     1       2.921   6.866  19.058  0.00  0.00    +0.000 C 
ATOM      3  C   UNL     1       3.672   6.533  17.839  0.00  0.00    +0.000 A 
ATOM      4  C   UNL     1       3.792   7.539  16.862  0.00  0.00    +0.000 A 
ATOM      5  C   UNL     1       4.571   7.343  15.723  0.00  0.00    +0.000 A 
ATOM      6  C   UNL     1       5.254   6.146  15.551  0.00  0.00    +0.000 A 
ATOM      7  C   UNL     1       5.168   5.153  16.528  0.00  0.00    +0.000 A 
ATOM      8  C   UNL     1       4.381   5.331  17.680  0.00  0.00    +0.000 A 
ATOM      9  N   UNL     1       4.321   4.297  18.666  0.00  0.00    +0.000 N 
ATOM     10  C   UNL     1       5.480   3.637  19.076  0.00  0.00    +0.000 C 
ATOM     11  N   UNL     1       5.316   2.720  20.079  0.00  0.00    +0.000 N 
ATOM     12  O   UNL     1       6.626   3.861  18.692  0.00  0.00    +0.000 OA
ATOM     13  C   UNL     1       3.002   3.793  18.907  0.00  0.00    +0.000 A 
ATOM     14  C   UNL     1       2.748   2.432  18.629  0.00  0.00    +0.000 A 
ATOM     15  C   UNL     1       1.494   1.869  18.863  0.00  0.00    +0.000 A 
ATOM     16  C   UNL     1       0.476   2.658  19.379  0.00  0.00    +0.000 A 
ATOM     17  C   UNL     1       0.711   4.009  19.649  0.00  0.00    +0.000 A 
ATOM     18  C   UNL     1       1.966   4.603  19.408  0.00  0.00    +0.000 A 
ATOM     19  H   UNL     1       4.552   2.878  20.722  0.00  0.00    +0.000 HD
ATOM     20  H   UNL     1       6.186   2.428  20.502  0.00  0.00    +0.000 HD
ENDROOT
BRANCH   1  22
ATOM     21  C   UNL     1       1.219   7.764  21.160  0.00  0.00    +0.000 C 
ATOM     22  O   UNL     1       1.455   6.381  20.921  0.00  0.00    +0.000 OA
ENDBRANCH   1  22
TORSDOF 1
ENDMDL
MODEL 8
REMARK VINA RESULT:      -6.3      7.159      9.454
REMARK  Name = 
REMARK  2 active torsions:
REMARK  status: ('A' for Active; 'I' for Inactive)
REMARK    1  A    between atoms: C_1  and  O_2
REMARK    2  A    between atoms: O_2  and  C_3
REMARK                            x       y       z     vdW  Elec       q    Type
REMARK                         _______ _______ _______ _____ _____    ______ ____
ROOT
ATOM      1  C   UNL     1      -2.269  12.305  22.198  0.00  0.00    +0.000 C 
ATOM      2  C   UNL     1      -3.010  12.654  21.131  0.00  0.00    +0.000 C 
ATOM      3  C   UNL     1      -2.883  12.121  19.768  0.00  0.00    +0.000 A 
ATOM      4  C   UNL     1      -4.062  12.006  19.008  0.00  0.00    +0.000 A 
ATOM      5  C   UNL     1      -4.020  11.606  17.674  0.00  0.00    +0.000 A 
ATOM      6  C   UNL     1      -2.798  11.333  17.073  0.00  0.00    +0.000 A 
ATOM      7  C   UNL     1      -1.619  11.473  17.807  0.00  0.00    +0.000 A 
ATOM      8  C   UNL     1      -1.644  11.868  19.156  0.00  0.00    +0.000 A 
ATOM      9  N   UNL     1      -0.417  12.012  19.877  0.00  0.00    +0.000 N 
ATOM     10  C   UNL     1       0.678  12.652  19.296  0.00  0.00    +0.000 C 
ATOM     11  N   UNL     1       1.774  12.801  20.104  0.00  0.00    +0.000 N 
ATOM     12  O   UNL     1       0.720  13.166  18.181  0.00  0.00    +0.000 OA
ATOM     13  C   UNL     1      -0.315  11.172  21.032  0.00  0.00    +0.000 A 
ATOM     14  C   UNL     1       0.715  10.206  21.066  0.00  0.00    +0.000 A 
ATOM     15  C   UNL     1       0.888   9.372  22.170  0.00  0.00    +0.000 A 
ATOM     16  C   UNL     1       0.034   9.491  23.257  0.00  0.00    +0.000 A 
ATOM     17  C   UNL     1      -0.995  10.437  23.233  0.00  0.00    +0.000 A 
ATOM     18  C   UNL     1      -1.198  11.282  22.123  0.00  0.00    +0.000 A 
ATOM     19  H   UNL     1       1.603  12.860  21.098  0.00  0.00    +0.000 HD
ATOM     20  H   UNL     1       2.454  13.453  19.740  0.00  0.00    +0.000 HD
ENDROOT
BRANCH   1  22
ATOM     21  C   UNL     1      -3.731  12.805  24.046  0.00  0.00    +0.000 C 
ATOM     22  O   UNL     1      -2.428  12.821  23.474  0.00  0.00    +0.000 OA
ENDBRANCH   1  22
TORSDOF 1
ENDMDL
MODEL 9
REMARK VINA RESULT:      -6.1      2.017      4.780
REMARK  Name = 
REMARK  2 active torsions:
REMARK  status: ('A' for Active; 'I' for Inactive)
REMARK    1  A    between atoms: C_1  and  O_2
REMARK    2  A    between atoms: O_2  and  C_3
REMARK                            x       y       z     vdW  Elec       q    Type
REMARK                         _______ _______ _______ _____ _____    ______ ____
ROOT
ATOM      1  C   UNL     1       3.526   6.805  17.958  0.00  0.00    +0.000 C 
ATOM      2  C   UNL     1       4.219   6.952  16.815  0.00  0.00    +0.000 C 
ATOM      3  C   UNL     1       5.056   5.935  16.164  0.00  0.00    +0.000 A 
ATOM      4  C   UNL     1       5.106   5.946  14.757  0.00  0.00    +0.000 A 
ATOM      5  C   UNL     1       5.952   5.083  14.063  0.00  0.00    +0.000 A 
ATOM      6  C   UNL     1       6.774   4.210  14.763  0.00  0.00    +0.000 A 
ATOM      7  C   UNL     1       6.757   4.212  16.159  0.00  0.00    +0.000 A 
ATOM      8  C   UNL     1       5.904   5.070  16.876  0.00  0.00    +0.000 A 
ATOM      9  N   UNL     1       5.917   5.054  18.305  0.00  0.00    +0.000 N 
ATOM     10  C   UNL     1       7.124   5.019  19.005  0.00  0.00    +0.000 C 
ATOM     11  N   UNL     1       7.020   5.084  20.368  0.00  0.00    +0.000 N 
ATOM     12  O   UNL     1       8.253   5.028  18.520  0.00  0.00    +0.000 OA
ATOM     13  C   UNL     1       4.655   4.730  18.899  0.00  0.00    +0.000 A 
ATOM     14  C   UNL     1       4.569   3.563  19.689  0.00  0.00    +0.000 A 
ATOM     15  C   UNL     1       3.378   3.202  20.318  0.00  0.00    +0.000 A 
ATOM     16  C   UNL     1       2.255   4.002  20.165  0.00  0.00    +0.000 A 
ATOM     17  C   UNL     1       2.323   5.155  19.378  0.00  0.00    +0.000 A 
ATOM     18  C   UNL     1       3.512   5.533  18.722  0.00  0.00    +0.000 A 
ATOM     19  H   UNL     1       6.215   5.568  20.743  0.00  0.00    +0.000 HD
ATOM     20  H   UNL     1       7.898   5.281  20.828  0.00  0.00    +0.000 HD
ENDROOT
BRANCH   1  22
ATOM     21  C   UNL     1       2.161   8.771  17.685  0.00  0.00    +0.000 C 
ATOM     22  O   UNL     1       2.735   7.785  18.535  0.00  0.00    +0.000 OA
ENDBRANCH   1  22
TORSDOF 1
ENDMDL
