MODEL 1
REMARK VINA RESULT:      -8.3      0.000      0.000
REMARK  Name = 
REMARK  11 active torsions:
REMARK  status: ('A' for Active; 'I' for Inactive)
REMARK    1  A    between atoms: C_1  and  O_2
REMARK    2  A    between atoms: O_2  and  C_3
REMARK    3  A    between atoms: C_6  and  C_7
REMARK    4  A    between atoms: C_7  and  N_8
REMARK    5  A    between atoms: C_9  and  C_10
REMARK    6  A    between atoms: C_10  and  C_11
REMARK    7  A    between atoms: C_11  and  C_12
REMARK    8  A    between atoms: C_11  and  C_13
REMARK    9  A    between atoms: C_11  and  C_14
REMARK   10  A    between atoms: C_14  and  C_15
REMARK   11  A    between atoms: C_15  and  O_17
REMARK                            x       y       z     vdW  Elec       q    Type
REMARK                         _______ _______ _______ _____ _____    ______ ____
ROOT
ATOM      1  N   UNL     1       3.711   6.350  17.725  0.00  0.00    +0.000 N 
ATOM      2  C   UNL     1       3.505   5.384  18.691  0.00  0.00    +0.000 A 
ATOM      3  N   UNL     1       4.622   5.414  19.394  0.00  0.00    +0.000 NA
ATOM      4  C   UNL     1       5.560   5.556  18.381  0.00  0.00    +0.000 A 
ATOM      5  C   UNL     1       6.902   5.178  18.346  0.00  0.00    +0.000 A 
ATOM      6  C   UNL     1       7.366   4.699  17.113  0.00  0.00    +0.000 A 
ATOM      7  C   UNL     1       6.553   4.714  15.971  0.00  0.00    +0.000 A 
ATOM      8  C   UNL     1       5.323   5.393  15.951  0.00  0.00    +0.000 A 
ATOM      9  C   UNL     1       4.905   5.902  17.196  0.00  0.00    +0.000 A 
ENDROOT
BRANCH   1  10
ATOM     10  C   UNL     1       3.143   7.790  17.770  0.00  0.00    +0.000 C 
BRANCH  10  14
ATOM     11  C   UNL     1      -0.013  10.100  19.847  0.00  0.00    +0.000 A 
ATOM     12  C   UNL     1       0.710   9.150  20.585  0.00  0.00    +0.000 A 
ATOM     13  C   UNL     1       1.710   8.339  19.988  0.00  0.00    +0.000 A 
ATOM     14  C   UNL     1       1.998   8.478  18.624  0.00  0.00    +0.000 A 
ATOM     15  C   UNL     1       1.221   9.409  17.890  0.00  0.00    +0.000 A 
ATOM     16  C   UNL     1       0.229  10.201  18.484  0.00  0.00    +0.000 A 
BRANCH  11  18
ATOM     17  C   UNL     1      -0.667  12.256  20.612  0.00  0.00    +0.000 C 
ATOM     18  O   UNL     1      -0.930  10.852  20.534  0.00  0.00    +0.000 OA
ENDBRANCH  11  18
ENDBRANCH  10  14
ENDBRANCH   1  10
BRANCH   2  19
ATOM     19  C   UNL     1       2.738   4.126  18.270  0.00  0.00    +0.000 C 
BRANCH  19  20
ATOM     20  C   UNL     1       1.921   3.504  19.411  0.00  0.00    +0.000 C 
ATOM     21  C   UNL     1       1.381   4.648  20.299  0.00  0.00    +0.000 C 
ATOM     22  C   UNL     1       0.743   2.733  18.791  0.00  0.00    +0.000 C 
BRANCH  20  23
ATOM     23  C   UNL     1       2.860   2.592  20.226  0.00  0.00    +0.000 C 
BRANCH  23  24
ATOM     24  C   UNL     1       3.936   1.933  19.419  0.00  0.00    +0.000 C 
ATOM     25  O   UNL     1       3.714   1.088  18.559  0.00  0.00    +0.000 OA
BRANCH  24  26
ATOM     26  O   UNL     1       5.181   2.340  19.742  0.00  0.00    +0.000 OA
ATOM     27  H   UNL     1       5.243   3.270  20.034  0.00  0.00    +0.000 HD
ENDBRANCH  24  26
ENDBRANCH  23  24
ENDBRANCH  20  23
ENDBRANCH  19  20
ENDBRANCH   2  19
TORSDOF 8
ENDMDL
MODEL 2
REMARK VINA RESULT:      -8.3      1.938      4.369
REMARK  Name = 
REMARK  11 active torsions:
REMARK  status: ('A' for Active; 'I' for Inactive)
REMARK    1  A    between atoms: C_1  and  O_2
REMARK    2  A    between atoms: O_2  and  C_3
REMARK    3  A    between atoms: C_6  and  C_7
REMARK    4  A    between atoms: C_7  and  N_8
REMARK    5  A    between atoms: C_9  and  C_10
REMARK    6  A    between atoms: C_10  and  C_11
REMARK    7  A    between atoms: C_11  and  C_12
REMARK    8  A    between atoms: C_11  and  C_13
REMARK    9  A    between atoms: C_11  and  C_14
REMARK   10  A    between atoms: C_14  and  C_15
REMARK   11  A    between atoms: C_15  and  O_17
REMARK                            x       y       z     vdW  Elec       q    Type
REMARK                         _______ _______ _______ _____ _____    ______ ____
ROOT
ATOM      1  N   UNL     1       3.181   6.030  18.762  0.00  0.00    +0.000 N 
ATOM      2  C   UNL     1       4.177   5.378  18.061  0.00  0.00    +0.000 A 
ATOM      3  N   UNL     1       3.510   4.512  17.319  0.00  0.00    +0.000 NA
ATOM      4  C   UNL     1       2.551   4.081  18.226  0.00  0.00    +0.000 A 
ATOM      5  C   UNL     1       1.858   2.873  18.286  0.00  0.00    +0.000 A 
ATOM      6  C   UNL     1       1.612   2.377  19.574  0.00  0.00    +0.000 A 
ATOM      7  C   UNL     1       1.946   3.117  20.716  0.00  0.00    +0.000 A 
ATOM      8  C   UNL     1       2.345   4.462  20.634  0.00  0.00    +0.000 A 
ATOM      9  C   UNL     1       2.540   4.944  19.325  0.00  0.00    +0.000 A 
ENDROOT
BRANCH   1  10
ATOM     10  C   UNL     1       2.608   7.424  18.404  0.00  0.00    +0.000 C 
BRANCH  10  14
ATOM     11  C   UNL     1       0.066  10.005  20.951  0.00  0.00    +0.000 A 
ATOM     12  C   UNL     1       0.302  10.404  19.625  0.00  0.00    +0.000 A 
ATOM     13  C   UNL     1       1.137   9.657  18.754  0.00  0.00    +0.000 A 
ATOM     14  C   UNL     1       1.750   8.484  19.213  0.00  0.00    +0.000 A 
ATOM     15  C   UNL     1       1.536   8.128  20.569  0.00  0.00    +0.000 A 
ATOM     16  C   UNL     1       0.717   8.875  21.426  0.00  0.00    +0.000 A 
BRANCH  11  18
ATOM     17  C   UNL     1      -0.890  10.465  23.080  0.00  0.00    +0.000 C 
ATOM     18  O   UNL     1      -0.786  10.784  21.690  0.00  0.00    +0.000 OA
ENDBRANCH  11  18
ENDBRANCH  10  14
ENDBRANCH   1  10
BRANCH   2  19
ATOM     19  C   UNL     1       5.491   5.107  18.802  0.00  0.00    +0.000 C 
BRANCH  19  20
ATOM     20  C   UNL     1       6.728   5.612  18.047  0.00  0.00    +0.000 C 
ATOM     21  C   UNL     1       6.324   6.867  17.241  0.00  0.00    +0.000 C 
ATOM     22  C   UNL     1       7.801   5.989  19.083  0.00  0.00    +0.000 C 
BRANCH  20  23
ATOM     23  C   UNL     1       7.194   4.493  17.095  0.00  0.00    +0.000 C 
BRANCH  23  24
ATOM     24  C   UNL     1       6.927   4.763  15.646  0.00  0.00    +0.000 C 
ATOM     25  O   UNL     1       7.700   5.379  14.920  0.00  0.00    +0.000 OA
BRANCH  24  26
ATOM     26  O   UNL     1       5.743   4.282  15.214  0.00  0.00    +0.000 OA
ATOM     27  H   UNL     1       5.318   3.643  15.818  0.00  0.00    +0.000 HD
ENDBRANCH  24  26
ENDBRANCH  23  24
ENDBRANCH  20  23
ENDBRANCH  19  20
ENDBRANCH   2  19
TORSDOF 8
ENDMDL
MODEL 3
REMARK VINA RESULT:      -8.2      0.970      1.024
REMARK  Name = 
REMARK  11 active torsions:
REMARK  status: ('A' for Active; 'I' for Inactive)
REMARK    1  A    between atoms: C_1  and  O_2
REMARK    2  A    between atoms: O_2  and  C_3
REMARK    3  A    between atoms: C_6  and  C_7
REMARK    4  A    between atoms: C_7  and  N_8
REMARK    5  A    between atoms: C_9  and  C_10
REMARK    6  A    between atoms: C_10  and  C_11
REMARK    7  A    between atoms: C_11  and  C_12
REMARK    8  A    between atoms: C_11  and  C_13
REMARK    9  A    between atoms: C_11  and  C_14
REMARK   10  A    between atoms: C_14  and  C_15
REMARK   11  A    between atoms: C_15  and  O_17
REMARK                            x       y       z     vdW  Elec       q    Type
REMARK                         _______ _______ _______ _____ _____    ______ ____
ROOT
ATOM      1  N   UNL     1       3.179   6.459  17.965  0.00  0.00    +0.000 N 
ATOM      2  C   UNL     1       3.095   5.402  18.852  0.00  0.00    +0.000 A 
ATOM      3  N   UNL     1       4.196   5.523  19.572  0.00  0.00    +0.000 NA
ATOM      4  C   UNL     1       5.112   5.862  18.586  0.00  0.00    +0.000 A 
ATOM      5  C   UNL     1       6.493   5.664  18.543  0.00  0.00    +0.000 A 
ATOM      6  C   UNL     1       7.021   5.346  17.285  0.00  0.00    +0.000 A 
ATOM      7  C   UNL     1       6.218   5.344  16.135  0.00  0.00    +0.000 A 
ATOM      8  C   UNL     1       4.911   5.857  16.148  0.00  0.00    +0.000 A 
ATOM      9  C   UNL     1       4.424   6.211  17.421  0.00  0.00    +0.000 A 
ENDROOT
BRANCH   1  10
ATOM     10  C   UNL     1       2.429   7.806  18.111  0.00  0.00    +0.000 C 
BRANCH  10  14
ATOM     11  C   UNL     1       0.647  10.277  21.324  0.00  0.00    +0.000 A 
ATOM     12  C   UNL     1       1.075   8.978  21.644  0.00  0.00    +0.000 A 
ATOM     13  C   UNL     1       1.619   8.106  20.665  0.00  0.00    +0.000 A 
ATOM     14  C   UNL     1       1.742   8.537  19.338  0.00  0.00    +0.000 A 
ATOM     15  C   UNL     1       1.259   9.834  19.031  0.00  0.00    +0.000 A 
ATOM     16  C   UNL     1       0.715  10.688  20.000  0.00  0.00    +0.000 A 
BRANCH  11  18
ATOM     17  C   UNL     1      -1.005  10.565  23.011  0.00  0.00    +0.000 C 
ATOM     18  O   UNL     1       0.171  11.045  22.355  0.00  0.00    +0.000 OA
ENDBRANCH  11  18
ENDBRANCH  10  14
ENDBRANCH   1  10
BRANCH   2  19
ATOM     19  C   UNL     1       2.500   4.093  18.325  0.00  0.00    +0.000 C 
BRANCH  19  20
ATOM     20  C   UNL     1       1.778   3.277  19.406  0.00  0.00    +0.000 C 
ATOM     21  C   UNL     1       1.061   4.262  20.358  0.00  0.00    +0.000 C 
ATOM     22  C   UNL     1       0.737   2.380  18.714  0.00  0.00    +0.000 C 
BRANCH  20  23
ATOM     23  C   UNL     1       2.838   2.465  20.177  0.00  0.00    +0.000 C 
BRANCH  23  24
ATOM     24  C   UNL     1       3.942   1.922  19.324  0.00  0.00    +0.000 C 
ATOM     25  O   UNL     1       3.784   1.020  18.508  0.00  0.00    +0.000 OA
BRANCH  24  26
ATOM     26  O   UNL     1       5.139   2.503  19.550  0.00  0.00    +0.000 OA
ATOM     27  H   UNL     1       5.835   2.265  18.908  0.00  0.00    +0.000 HD
ENDBRANCH  24  26
ENDBRANCH  23  24
ENDBRANCH  20  23
ENDBRANCH  19  20
ENDBRANCH   2  19
TORSDOF 8
ENDMDL
MODEL 4
REMARK VINA RESULT:      -8.1      1.968      4.264
REMARK  Name = 
REMARK  11 active torsions:
REMARK  status: ('A' for Active; 'I' for Inactive)
REMARK    1  A    between atoms: C_1  and  O_2
REMARK    2  A    between atoms: O_2  and  C_3
REMARK    3  A    between atoms: C_6  and  C_7
REMARK    4  A    between atoms: C_7  and  N_8
REMARK    5  A    between atoms: C_9  and  C_10
REMARK    6  A    between atoms: C_10  and  C_11
REMARK    7  A    between atoms: C_11  and  C_12
REMARK    8  A    between atoms: C_11  and  C_13
REMARK    9  A    between atoms: C_11  and  C_14
REMARK   10  A    between atoms: C_14  and  C_15
REMARK   11  A    between atoms: C_15  and  O_17
REMARK                            x       y       z     vdW  Elec       q    Type
REMARK                         _______ _______ _______ _____ _____    ______ ____
ROOT
ATOM      1  N   UNL     1       3.161   5.818  18.908  0.00  0.00    +0.000 N 
ATOM      2  C   UNL     1       4.183   5.323  18.120  0.00  0.00    +0.000 A 
ATOM      3  N   UNL     1       3.554   4.536  17.267  0.00  0.00    +0.000 NA
ATOM      4  C   UNL     1       2.629   3.932  18.107  0.00  0.00    +0.000 A 
ATOM      5  C   UNL     1       1.999   2.692  18.001  0.00  0.00    +0.000 A 
ATOM      6  C   UNL     1       1.793   2.010  19.207  0.00  0.00    +0.000 A 
ATOM      7  C   UNL     1       2.101   2.600  20.441  0.00  0.00    +0.000 A 
ATOM      8  C   UNL     1       2.428   3.962  20.546  0.00  0.00    +0.000 A 
ATOM      9  C   UNL     1       2.584   4.632  19.316  0.00  0.00    +0.000 A 
ENDROOT
BRANCH   1  10
ATOM     10  C   UNL     1       2.512   7.216  18.751  0.00  0.00    +0.000 C 
BRANCH  10  14
ATOM     11  C   UNL     1       0.545  10.267  21.285  0.00  0.00    +0.000 A 
ATOM     12  C   UNL     1       0.850   9.023  21.859  0.00  0.00    +0.000 A 
ATOM     13  C   UNL     1       1.444   7.976  21.107  0.00  0.00    +0.000 A 
ATOM     14  C   UNL     1       1.741   8.172  19.752  0.00  0.00    +0.000 A 
ATOM     15  C   UNL     1       1.379   9.419  19.184  0.00  0.00    +0.000 A 
ATOM     16  C   UNL     1       0.786  10.446  19.930  0.00  0.00    +0.000 A 
BRANCH  11  18
ATOM     17  C   UNL     1      -0.971  10.759  23.052  0.00  0.00    +0.000 C 
ATOM     18  O   UNL     1       0.006  11.217  22.114  0.00  0.00    +0.000 OA
ENDBRANCH  11  18
ENDBRANCH  10  14
ENDBRANCH   1  10
BRANCH   2  19
ATOM     19  C   UNL     1       5.516   5.022  18.812  0.00  0.00    +0.000 C 
BRANCH  19  20
ATOM     20  C   UNL     1       6.729   5.601  18.069  0.00  0.00    +0.000 C 
ATOM     21  C   UNL     1       6.253   6.813  17.237  0.00  0.00    +0.000 C 
ATOM     22  C   UNL     1       7.755   6.066  19.117  0.00  0.00    +0.000 C 
BRANCH  20  23
ATOM     23  C   UNL     1       7.287   4.503  17.142  0.00  0.00    +0.000 C 
BRANCH  23  24
ATOM     24  C   UNL     1       6.905   4.656  15.702  0.00  0.00    +0.000 C 
ATOM     25  O   UNL     1       7.535   5.343  14.905  0.00  0.00    +0.000 OA
BRANCH  24  26
ATOM     26  O   UNL     1       5.786   3.983  15.364  0.00  0.00    +0.000 OA
ATOM     27  H   UNL     1       5.936   3.205  14.793  0.00  0.00    +0.000 HD
ENDBRANCH  24  26
ENDBRANCH  23  24
ENDBRANCH  20  23
ENDBRANCH  19  20
ENDBRANCH   2  19
TORSDOF 8
ENDMDL
MODEL 5
REMARK VINA RESULT:      -8.1      1.438      1.727
REMARK  Name = 
REMARK  11 active torsions:
REMARK  status: ('A' for Active; 'I' for Inactive)
REMARK    1  A    between atoms: C_1  and  O_2
REMARK    2  A    between atoms: O_2  and  C_3
REMARK    3  A    between atoms: C_6  and  C_7
REMARK    4  A    between atoms: C_7  and  N_8
REMARK    5  A    between atoms: C_9  and  C_10
REMARK    6  A    between atoms: C_10  and  C_11
REMARK    7  A    between atoms: C_11  and  C_12
REMARK    8  A    between atoms: C_11  and  C_13
REMARK    9  A    between atoms: C_11  and  C_14
REMARK   10  A    between atoms: C_14  and  C_15
REMARK   11  A    between atoms: C_15  and  O_17
REMARK                            x       y       z     vdW  Elec       q    Type
REMARK                         _______ _______ _______ _____ _____    ______ ____
ROOT
ATOM      1  N   UNL     1       3.954   5.823  17.802  0.00  0.00    +0.000 N 
ATOM      2  C   UNL     1       3.975   4.891  18.822  0.00  0.00    +0.000 A 
ATOM      3  N   UNL     1       5.139   5.106  19.406  0.00  0.00    +0.000 NA
ATOM      4  C   UNL     1       5.948   5.316  18.298  0.00  0.00    +0.000 A 
ATOM      5  C   UNL     1       7.320   5.118  18.142  0.00  0.00    +0.000 A 
ATOM      6  C   UNL     1       7.726   4.640  16.889  0.00  0.00    +0.000 A 
ATOM      7  C   UNL     1       6.813   4.487  15.835  0.00  0.00    +0.000 A 
ATOM      8  C   UNL     1       5.505   4.995  15.913  0.00  0.00    +0.000 A 
ATOM      9  C   UNL     1       5.142   5.510  17.173  0.00  0.00    +0.000 A 
ENDROOT
BRANCH   1  10
ATOM     10  C   UNL     1       3.201   7.176  17.849  0.00  0.00    +0.000 C 
BRANCH  10  14
ATOM     11  C   UNL     1       0.579   9.465  20.586  0.00  0.00    +0.000 A 
ATOM     12  C   UNL     1       1.156   8.275  21.058  0.00  0.00    +0.000 A 
ATOM     13  C   UNL     1       1.976   7.461  20.234  0.00  0.00    +0.000 A 
ATOM     14  C   UNL     1       2.228   7.840  18.909  0.00  0.00    +0.000 A 
ATOM     15  C   UNL     1       1.594   9.019  18.441  0.00  0.00    +0.000 A 
ATOM     16  C   UNL     1       0.779   9.814  19.257  0.00  0.00    +0.000 A 
BRANCH  11  18
ATOM     17  C   UNL     1      -0.253   9.663  22.806  0.00  0.00    +0.000 C 
ATOM     18  O   UNL     1      -0.166  10.190  21.480  0.00  0.00    +0.000 OA
ENDBRANCH  11  18
ENDBRANCH  10  14
ENDBRANCH   1  10
BRANCH   2  19
ATOM     19  C   UNL     1       3.350   3.522  18.530  0.00  0.00    +0.000 C 
BRANCH  19  20
ATOM     20  C   UNL     1       1.877   3.426  18.953  0.00  0.00    +0.000 C 
ATOM     21  C   UNL     1       1.038   4.288  17.983  0.00  0.00    +0.000 C 
ATOM     22  C   UNL     1       1.443   1.955  18.843  0.00  0.00    +0.000 C 
BRANCH  20  23
ATOM     23  C   UNL     1       1.759   3.971  20.391  0.00  0.00    +0.000 C 
BRANCH  23  24
ATOM     24  C   UNL     1       2.041   2.961  21.460  0.00  0.00    +0.000 C 
ATOM     25  O   UNL     1       3.159   2.511  21.687  0.00  0.00    +0.000 OA
BRANCH  24  26
ATOM     26  O   UNL     1       0.943   2.572  22.141  0.00  0.00    +0.000 OA
ATOM     27  H   UNL     1       0.122   2.550  21.612  0.00  0.00    +0.000 HD
ENDBRANCH  24  26
ENDBRANCH  23  24
ENDBRANCH  20  23
ENDBRANCH  19  20
ENDBRANCH   2  19
TORSDOF 8
ENDMDL
MODEL 6
REMARK VINA RESULT:      -8.1      1.827      4.230
REMARK  Name = 
REMARK  11 active torsions:
REMARK  status: ('A' for Active; 'I' for Inactive)
REMARK    1  A    between atoms: C_1  and  O_2
REMARK    2  A    between atoms: O_2  and  C_3
REMARK    3  A    between atoms: C_6  and  C_7
REMARK    4  A    between atoms: C_7  and  N_8
REMARK    5  A    between atoms: C_9  and  C_10
REMARK    6  A    between atoms: C_10  and  C_11
REMARK    7  A    between atoms: C_11  and  C_12
REMARK    8  A    between atoms: C_11  and  C_13
REMARK    9  A    between atoms: C_11  and  C_14
REMARK   10  A    between atoms: C_14  and  C_15
REMARK   11  A    between atoms: C_15  and  O_17
REMARK                            x       y       z     vdW  Elec       q    Type
REMARK                         _______ _______ _______ _____ _____    ______ ____
ROOT
ATOM      1  N   UNL     1       3.157   6.314  18.805  0.00  0.00    +0.000 N 
ATOM      2  C   UNL     1       4.100   5.593  18.098  0.00  0.00    +0.000 A 
ATOM      3  N   UNL     1       3.368   4.779  17.360  0.00  0.00    +0.000 NA
ATOM      4  C   UNL     1       2.387   4.416  18.272  0.00  0.00    +0.000 A 
ATOM      5  C   UNL     1       1.610   3.260  18.336  0.00  0.00    +0.000 A 
ATOM      6  C   UNL     1       1.337   2.781  19.624  0.00  0.00    +0.000 A 
ATOM      7  C   UNL     1       1.731   3.494  20.766  0.00  0.00    +0.000 A 
ATOM      8  C   UNL     1       2.224   4.807  20.682  0.00  0.00    +0.000 A 
ATOM      9  C   UNL     1       2.444   5.276  19.372  0.00  0.00    +0.000 A 
ENDROOT
BRANCH   1  10
ATOM     10  C   UNL     1       2.682   7.746  18.453  0.00  0.00    +0.000 C 
BRANCH  10  14
ATOM     11  C   UNL     1      -0.396  10.677  19.693  0.00  0.00    +0.000 A 
ATOM     12  C   UNL     1       0.172   9.853  20.678  0.00  0.00    +0.000 A 
ATOM     13  C   UNL     1       1.135   8.860  20.360  0.00  0.00    +0.000 A 
ATOM     14  C   UNL     1       1.543   8.684  19.031  0.00  0.00    +0.000 A 
ATOM     15  C   UNL     1       0.919   9.494  18.050  0.00  0.00    +0.000 A 
ATOM     16  C   UNL     1      -0.037  10.467  18.369  0.00  0.00    +0.000 A 
BRANCH  11  18
ATOM     17  C   UNL     1      -1.132  12.936  19.569  0.00  0.00    +0.000 C 
ATOM     18  O   UNL     1      -1.290  11.625  20.119  0.00  0.00    +0.000 OA
ENDBRANCH  11  18
ENDBRANCH  10  14
ENDBRANCH   1  10
BRANCH   2  19
ATOM     19  C   UNL     1       5.395   5.229  18.830  0.00  0.00    +0.000 C 
BRANCH  19  20
ATOM     20  C   UNL     1       6.661   5.646  18.067  0.00  0.00    +0.000 C 
ATOM     21  C   UNL     1       6.344   6.932  17.271  0.00  0.00    +0.000 C 
ATOM     22  C   UNL     1       7.767   5.936  19.096  0.00  0.00    +0.000 C 
BRANCH  20  23
ATOM     23  C   UNL     1       7.035   4.500  17.105  0.00  0.00    +0.000 C 
BRANCH  23  24
ATOM     24  C   UNL     1       6.826   4.817  15.656  0.00  0.00    +0.000 C 
ATOM     25  O   UNL     1       7.665   5.377  14.959  0.00  0.00    +0.000 OA
BRANCH  24  26
ATOM     26  O   UNL     1       5.615   4.447  15.189  0.00  0.00    +0.000 OA
ATOM     27  H   UNL     1       5.252   5.028  14.493  0.00  0.00    +0.000 HD
ENDBRANCH  24  26
ENDBRANCH  23  24
ENDBRANCH  20  23
ENDBRANCH  19  20
ENDBRANCH   2  19
TORSDOF 8
ENDMDL
MODEL 7
REMARK VINA RESULT:      -8.1      0.707      1.256
REMARK  Name = 
REMARK  11 active torsions:
REMARK  status: ('A' for Active; 'I' for Inactive)
REMARK    1  A    between atoms: C_1  and  O_2
REMARK    2  A    between atoms: O_2  and  C_3
REMARK    3  A    between atoms: C_6  and  C_7
REMARK    4  A    between atoms: C_7  and  N_8
REMARK    5  A    between atoms: C_9  and  C_10
REMARK    6  A    between atoms: C_10  and  C_11
REMARK    7  A    between atoms: C_11  and  C_12
REMARK    8  A    between atoms: C_11  and  C_13
REMARK    9  A    between atoms: C_11  and  C_14
REMARK   10  A    between atoms: C_14  and  C_15
REMARK   11  A    between atoms: C_15  and  O_17
REMARK                            x       y       z     vdW  Elec       q    Type
REMARK                         _______ _______ _______ _____ _____    ______ ____
ROOT
ATOM      1  N   UNL     1       3.442   6.369  17.665  0.00  0.00    +0.000 N 
ATOM      2  C   UNL     1       3.239   5.422  18.651  0.00  0.00    +0.000 A 
ATOM      3  N   UNL     1       4.321   5.528  19.400  0.00  0.00    +0.000 NA
ATOM      4  C   UNL     1       5.296   5.687  18.425  0.00  0.00    +0.000 A 
ATOM      5  C   UNL     1       6.655   5.375  18.460  0.00  0.00    +0.000 A 
ATOM      6  C   UNL     1       7.196   4.884  17.265  0.00  0.00    +0.000 A 
ATOM      7  C   UNL     1       6.435   4.827  16.088  0.00  0.00    +0.000 A 
ATOM      8  C   UNL     1       5.176   5.443  15.993  0.00  0.00    +0.000 A 
ATOM      9  C   UNL     1       4.679   5.966  17.203  0.00  0.00    +0.000 A 
ENDROOT
BRANCH   1  10
ATOM     10  C   UNL     1       2.804   7.780  17.642  0.00  0.00    +0.000 C 
BRANCH  10  14
ATOM     11  C   UNL     1       0.348   9.655  20.813  0.00  0.00    +0.000 A 
ATOM     12  C   UNL     1       0.461  10.318  19.580  0.00  0.00    +0.000 A 
ATOM     13  C   UNL     1       1.260   9.807  18.525  0.00  0.00    +0.000 A 
ATOM     14  C   UNL     1       1.962   8.608  18.700  0.00  0.00    +0.000 A 
ATOM     15  C   UNL     1       1.871   7.983  19.969  0.00  0.00    +0.000 A 
ATOM     16  C   UNL     1       1.087   8.497  21.010  0.00  0.00    +0.000 A 
BRANCH  11  18
ATOM     17  C   UNL     1      -0.497   9.602  23.037  0.00  0.00    +0.000 C 
ATOM     18  O   UNL     1      -0.480  10.221  21.748  0.00  0.00    +0.000 OA
ENDBRANCH  11  18
ENDBRANCH  10  14
ENDBRANCH   1  10
BRANCH   2  19
ATOM     19  C   UNL     1       2.553   4.117  18.235  0.00  0.00    +0.000 C 
BRANCH  19  20
ATOM     20  C   UNL     1       1.815   3.426  19.390  0.00  0.00    +0.000 C 
ATOM     21  C   UNL     1       1.208   4.519  20.299  0.00  0.00    +0.000 C 
ATOM     22  C   UNL     1       0.687   2.567  18.793  0.00  0.00    +0.000 C 
BRANCH  20  23
ATOM     23  C   UNL     1       2.842   2.587  20.177  0.00  0.00    +0.000 C 
BRANCH  23  24
ATOM     24  C   UNL     1       3.924   1.985  19.335  0.00  0.00    +0.000 C 
ATOM     25  O   UNL     1       3.717   1.134  18.476  0.00  0.00    +0.000 OA
BRANCH  24  26
ATOM     26  O   UNL     1       5.158   2.449  19.624  0.00  0.00    +0.000 OA
ATOM     27  H   UNL     1       5.171   3.306  20.093  0.00  0.00    +0.000 HD
ENDBRANCH  24  26
ENDBRANCH  23  24
ENDBRANCH  20  23
ENDBRANCH  19  20
ENDBRANCH   2  19
TORSDOF 8
ENDMDL
MODEL 8
REMARK VINA RESULT:      -8.0      1.800      4.223
REMARK  Name = 
REMARK  11 active torsions:
REMARK  status: ('A' for Active; 'I' for Inactive)
REMARK    1  A    between atoms: C_1  and  O_2
REMARK    2  A    between atoms: O_2  and  C_3
REMARK    3  A    between atoms: C_6  and  C_7
REMARK    4  A    between atoms: C_7  and  N_8
REMARK    5  A    between atoms: C_9  and  C_10
REMARK    6  A    between atoms: C_10  and  C_11
REMARK    7  A    between atoms: C_11  and  C_12
REMARK    8  A    between atoms: C_11  and  C_13
REMARK    9  A    between atoms: C_11  and  C_14
REMARK   10  A    between atoms: C_14  and  C_15
REMARK   11  A    between atoms: C_15  and  O_17
REMARK                            x       y       z     vdW  Elec       q    Type
REMARK                         _______ _______ _______ _____ _____    ______ ____
ROOT
ATOM      1  N   UNL     1       3.039   5.988  18.788  0.00  0.00    +0.000 N 
ATOM      2  C   UNL     1       3.674   5.139  17.902  0.00  0.00    +0.000 A 
ATOM      3  N   UNL     1       2.689   4.390  17.442  0.00  0.00    +0.000 NA
ATOM      4  C   UNL     1       1.963   4.175  18.606  0.00  0.00    +0.000 A 
ATOM      5  C   UNL     1       1.119   3.120  18.951  0.00  0.00    +0.000 A 
ATOM      6  C   UNL     1       1.163   2.722  20.294  0.00  0.00    +0.000 A 
ATOM      7  C   UNL     1       1.924   3.424  21.239  0.00  0.00    +0.000 A 
ATOM      8  C   UNL     1       2.507   4.667  20.940  0.00  0.00    +0.000 A 
ATOM      9  C   UNL     1       2.407   5.061  19.591  0.00  0.00    +0.000 A 
ENDROOT
BRANCH   1  10
ATOM     10  C   UNL     1       2.635   7.453  18.484  0.00  0.00    +0.000 C 
BRANCH  10  14
ATOM     11  C   UNL     1       0.024  10.639  20.107  0.00  0.00    +0.000 A 
ATOM     12  C   UNL     1       0.473   9.636  20.982  0.00  0.00    +0.000 A 
ATOM     13  C   UNL     1       1.279   8.557  20.536  0.00  0.00    +0.000 A 
ATOM     14  C   UNL     1       1.648   8.474  19.187  0.00  0.00    +0.000 A 
ATOM     15  C   UNL     1       1.143   9.471  18.314  0.00  0.00    +0.000 A 
ATOM     16  C   UNL     1       0.340  10.529  18.760  0.00  0.00    +0.000 A 
BRANCH  11  18
ATOM     17  C   UNL     1      -0.776  11.697  22.082  0.00  0.00    +0.000 C 
ATOM     18  O   UNL     1      -0.719  11.652  20.654  0.00  0.00    +0.000 OA
ENDBRANCH  11  18
ENDBRANCH  10  14
ENDBRANCH   1  10
BRANCH   2  19
ATOM     19  C   UNL     1       5.076   4.653  18.283  0.00  0.00    +0.000 C 
BRANCH  19  20
ATOM     20  C   UNL     1       6.155   5.061  17.270  0.00  0.00    +0.000 C 
ATOM     21  C   UNL     1       6.027   4.145  16.031  0.00  0.00    +0.000 C 
ATOM     22  C   UNL     1       5.900   6.521  16.860  0.00  0.00    +0.000 C 
BRANCH  20  23
ATOM     23  C   UNL     1       7.532   4.867  17.937  0.00  0.00    +0.000 C 
BRANCH  23  24
ATOM     24  C   UNL     1       7.764   5.730  19.139  0.00  0.00    +0.000 C 
ATOM     25  O   UNL     1       7.460   5.396  20.279  0.00  0.00    +0.000 OA
BRANCH  24  26
ATOM     26  O   UNL     1       8.320   6.924  18.849  0.00  0.00    +0.000 OA
ATOM     27  H   UNL     1       7.686   7.611  18.565  0.00  0.00    +0.000 HD
ENDBRANCH  24  26
ENDBRANCH  23  24
ENDBRANCH  20  23
ENDBRANCH  19  20
ENDBRANCH   2  19
TORSDOF 8
ENDMDL
MODEL 9
REMARK VINA RESULT:      -8.0      2.011      4.470
REMARK  Name = 
REMARK  11 active torsions:
REMARK  status: ('A' for Active; 'I' for Inactive)
REMARK    1  A    between atoms: C_1  and  O_2
REMARK    2  A    between atoms: O_2  and  C_3
REMARK    3  A    between atoms: C_6  and  C_7
REMARK    4  A    between atoms: C_7  and  N_8
REMARK    5  A    between atoms: C_9  and  C_10
REMARK    6  A    between atoms: C_10  and  C_11
REMARK    7  A    between atoms: C_11  and  C_12
REMARK    8  A    between atoms: C_11  and  C_13
REMARK    9  A    between atoms: C_11  and  C_14
REMARK   10  A    between atoms: C_14  and  C_15
REMARK   11  A    between atoms: C_15  and  O_17
REMARK                            x       y       z     vdW  Elec       q    Type
REMARK                         _______ _______ _______ _____ _____    ______ ____
ROOT
ATOM      1  N   UNL     1       2.644   6.236  19.143  0.00  0.00    +0.000 N 
ATOM      2  C   UNL     1       3.379   5.548  18.196  0.00  0.00    +0.000 A 
ATOM      3  N   UNL     1       2.483   4.757  17.634  0.00  0.00    +0.000 NA
ATOM      4  C   UNL     1       1.759   4.355  18.747  0.00  0.00    +0.000 A 
ATOM      5  C   UNL     1       1.017   3.193  18.959  0.00  0.00    +0.000 A 
ATOM      6  C   UNL     1       1.073   2.665  20.256  0.00  0.00    +0.000 A 
ATOM      7  C   UNL     1       1.741   3.337  21.290  0.00  0.00    +0.000 A 
ATOM      8  C   UNL     1       2.202   4.655  21.135  0.00  0.00    +0.000 A 
ATOM      9  C   UNL     1       2.091   5.174  19.830  0.00  0.00    +0.000 A 
ENDROOT
BRANCH   1  10
ATOM     10  C   UNL     1       2.102   7.677  18.974  0.00  0.00    +0.000 C 
BRANCH  10  14
ATOM     11  C   UNL     1       0.221  10.203  22.087  0.00  0.00    +0.000 A 
ATOM     12  C   UNL     1       0.174  10.643  20.755  0.00  0.00    +0.000 A 
ATOM     13  C   UNL     1       0.786   9.915  19.701  0.00  0.00    +0.000 A 
ATOM     14  C   UNL     1       1.461   8.720  19.981  0.00  0.00    +0.000 A 
ATOM     15  C   UNL     1       1.537   8.321  21.339  0.00  0.00    +0.000 A 
ATOM     16  C   UNL     1       0.937   9.049  22.375  0.00  0.00    +0.000 A 
BRANCH  11  18
ATOM     17  C   UNL     1      -0.960  12.214  22.555  0.00  0.00    +0.000 C 
ATOM     18  O   UNL     1      -0.435  10.966  23.017  0.00  0.00    +0.000 OA
ENDBRANCH  11  18
ENDBRANCH  10  14
ENDBRANCH   1  10
BRANCH   2  19
ATOM     19  C   UNL     1       4.815   5.164  18.569  0.00  0.00    +0.000 C 
BRANCH  19  20
ATOM     20  C   UNL     1       5.801   5.301  17.401  0.00  0.00    +0.000 C 
ATOM     21  C   UNL     1       5.404   4.281  16.309  0.00  0.00    +0.000 C 
ATOM     22  C   UNL     1       5.684   6.728  16.840  0.00  0.00    +0.000 C 
BRANCH  20  23
ATOM     23  C   UNL     1       7.214   4.989  17.933  0.00  0.00    +0.000 C 
BRANCH  23  24
ATOM     24  C   UNL     1       7.724   5.968  18.946  0.00  0.00    +0.000 C 
ATOM     25  O   UNL     1       8.195   7.061  18.651  0.00  0.00    +0.000 OA
BRANCH  24  26
ATOM     26  O   UNL     1       7.638   5.527  20.218  0.00  0.00    +0.000 OA
ATOM     27  H   UNL     1       6.808   5.764  20.676  0.00  0.00    +0.000 HD
ENDBRANCH  24  26
ENDBRANCH  23  24
ENDBRANCH  20  23
ENDBRANCH  19  20
ENDBRANCH   2  19
TORSDOF 8
ENDMDL
