MODEL 1
REMARK VINA RESULT:      -6.1      0.000      0.000
REMARK  Name = 
REMARK  6 active torsions:
REMARK  status: ('A' for Active; 'I' for Inactive)
REMARK    1  A    between atoms: C_2  and  C_3
REMARK    2  A    between atoms: N_5  and  C_6
REMARK    3  A    between atoms: C_6  and  O_7
REMARK    4  A    between atoms: O_7  and  C_8
REMARK    5  A    between atoms: C_8  and  C_9
REMARK    6  A    between atoms: C_9  and  O_10
REMARK                            x       y       z     vdW  Elec       q    Type
REMARK                         _______ _______ _______ _____ _____    ______ ____
ROOT
ATOM      1  C   UNL     1       5.727   4.078  15.939  0.00  0.00    +0.000 A 
ATOM      2  C   UNL     1       4.432   4.080  16.289  0.00  0.00    +0.000 A 
ATOM      3  N   UNL     1       4.016   4.284  17.596  0.00  0.00    +0.000 N 
ATOM      4  C   UNL     1       4.923   4.482  18.623  0.00  0.00    +0.000 A 
ATOM      5  O   UNL     1       4.622   4.788  19.775  0.00  0.00    +0.000 OA
ATOM      6  N   UNL     1       6.245   4.358  18.279  0.00  0.00    +0.000 N 
ATOM      7  C   UNL     1       6.740   4.279  17.006  0.00  0.00    +0.000 A 
ATOM      8  O   UNL     1       7.940   4.389  16.769  0.00  0.00    +0.000 OA
ATOM      9  H   UNL     1       6.917   4.544  19.011  0.00  0.00    +0.000 HD
ENDROOT
BRANCH   1  11
ATOM     10  C   UNL     1       6.486   3.883  13.227  0.00  0.00    +0.000 C 
ATOM     11  C   UNL     1       6.136   3.973  14.479  0.00  0.00    +0.000 C 
ENDBRANCH   1  11
BRANCH   3  12
ATOM     12  C   UNL     1       2.601   4.482  17.891  0.00  0.00    +0.000 C 
BRANCH  12  13
ATOM     13  O   UNL     1       1.840   3.346  17.478  0.00  0.00    +0.000 OA
BRANCH  13  14
ATOM     14  C   UNL     1       1.331   2.651  18.626  0.00  0.00    +0.000 C 
BRANCH  14  15
ATOM     15  C   UNL     1       1.055   3.643  19.753  0.00  0.00    +0.000 C 
BRANCH  15  16
ATOM     16  O   UNL     1       0.741   2.956  20.961  0.00  0.00    +0.000 OA
ATOM     17  H   UNL     1       1.355   3.307  21.634  0.00  0.00    +0.000 HD
ENDBRANCH  15  16
ENDBRANCH  14  15
ENDBRANCH  13  14
ENDBRANCH  12  13
ENDBRANCH   3  12
TORSDOF 6
ENDMDL
MODEL 2
REMARK VINA RESULT:      -6.0      2.181      2.771
REMARK  Name = 
REMARK  6 active torsions:
REMARK  status: ('A' for Active; 'I' for Inactive)
REMARK    1  A    between atoms: C_2  and  C_3
REMARK    2  A    between atoms: N_5  and  C_6
REMARK    3  A    between atoms: C_6  and  O_7
REMARK    4  A    between atoms: O_7  and  C_8
REMARK    5  A    between atoms: C_8  and  C_9
REMARK    6  A    between atoms: C_9  and  O_10
REMARK                            x       y       z     vdW  Elec       q    Type
REMARK                         _______ _______ _______ _____ _____    ______ ____
ROOT
ATOM      1  C   UNL     1       6.251   4.097  14.280  0.00  0.00    +0.000 A 
ATOM      2  C   UNL     1       5.593   3.753  15.398  0.00  0.00    +0.000 A 
ATOM      3  N   UNL     1       5.834   4.364  16.620  0.00  0.00    +0.000 N 
ATOM      4  C   UNL     1       6.785   5.361  16.756  0.00  0.00    +0.000 A 
ATOM      5  O   UNL     1       6.963   6.025  17.775  0.00  0.00    +0.000 OA
ATOM      6  N   UNL     1       7.536   5.620  15.638  0.00  0.00    +0.000 N 
ATOM      7  C   UNL     1       7.287   5.155  14.377  0.00  0.00    +0.000 A 
ATOM      8  O   UNL     1       7.871   5.603  13.393  0.00  0.00    +0.000 OA
ATOM      9  H   UNL     1       8.204   6.376  15.714  0.00  0.00    +0.000 HD
ENDROOT
BRANCH   1  11
ATOM     10  C   UNL     1       5.548   2.966  11.791  0.00  0.00    +0.000 C 
ATOM     11  C   UNL     1       5.873   3.488  12.940  0.00  0.00    +0.000 C 
ENDBRANCH   1  11
BRANCH   3  12
ATOM     12  C   UNL     1       4.955   4.103  17.754  0.00  0.00    +0.000 C 
BRANCH  12  13
ATOM     13  O   UNL     1       3.974   3.122  17.411  0.00  0.00    +0.000 OA
BRANCH  13  14
ATOM     14  C   UNL     1       3.482   2.484  18.599  0.00  0.00    +0.000 C 
BRANCH  14  15
ATOM     15  C   UNL     1       4.430   2.753  19.764  0.00  0.00    +0.000 C 
BRANCH  15  16
ATOM     16  O   UNL     1       5.161   1.577  20.099  0.00  0.00    +0.000 OA
ATOM     17  H   UNL     1       5.591   1.767  20.954  0.00  0.00    +0.000 HD
ENDBRANCH  15  16
ENDBRANCH  14  15
ENDBRANCH  13  14
ENDBRANCH  12  13
ENDBRANCH   3  12
TORSDOF 6
ENDMDL
MODEL 3
REMARK VINA RESULT:      -6.0      1.095      1.204
REMARK  Name = 
REMARK  6 active torsions:
REMARK  status: ('A' for Active; 'I' for Inactive)
REMARK    1  A    between atoms: C_2  and  C_3
REMARK    2  A    between atoms: N_5  and  C_6
REMARK    3  A    between atoms: C_6  and  O_7
REMARK    4  A    between atoms: O_7  and  C_8
REMARK    5  A    between atoms: C_8  and  C_9
REMARK    6  A    between atoms: C_9  and  O_10
REMARK                            x       y       z     vdW  Elec       q    Type
REMARK                         _______ _______ _______ _____ _____    ______ ____
ROOT
ATOM      1  C   UNL     1       5.773   4.240  16.007  0.00  0.00    +0.000 A 
ATOM      2  C   UNL     1       4.507   4.449  16.400  0.00  0.00    +0.000 A 
ATOM      3  N   UNL     1       4.177   4.738  17.716  0.00  0.00    +0.000 N 
ATOM      4  C   UNL     1       5.142   4.812  18.706  0.00  0.00    +0.000 A 
ATOM      5  O   UNL     1       4.935   5.182  19.860  0.00  0.00    +0.000 OA
ATOM      6  N   UNL     1       6.415   4.479  18.320  0.00  0.00    +0.000 N 
ATOM      7  C   UNL     1       6.844   4.301  17.033  0.00  0.00    +0.000 A 
ATOM      8  O   UNL     1       8.037   4.220  16.752  0.00  0.00    +0.000 OA
ATOM      9  H   UNL     1       7.134   4.572  19.024  0.00  0.00    +0.000 HD
ENDROOT
BRANCH   1  11
ATOM     10  C   UNL     1       6.389   3.880  13.275  0.00  0.00    +0.000 C 
ATOM     11  C   UNL     1       6.105   4.046  14.536  0.00  0.00    +0.000 C 
ENDBRANCH   1  11
BRANCH   3  12
ATOM     12  C   UNL     1       2.822   5.158  18.054  0.00  0.00    +0.000 C 
BRANCH  12  13
ATOM     13  O   UNL     1       1.873   4.182  17.623  0.00  0.00    +0.000 OA
BRANCH  13  14
ATOM     14  C   UNL     1       1.303   3.514  18.758  0.00  0.00    +0.000 C 
BRANCH  14  15
ATOM     15  C   UNL     1       2.002   2.174  18.976  0.00  0.00    +0.000 C 
BRANCH  15  16
ATOM     16  O   UNL     1       2.481   1.651  17.741  0.00  0.00    +0.000 OA
ATOM     17  H   UNL     1       2.636   0.700  17.898  0.00  0.00    +0.000 HD
ENDBRANCH  15  16
ENDBRANCH  14  15
ENDBRANCH  13  14
ENDBRANCH  12  13
ENDBRANCH   3  12
TORSDOF 6
ENDMDL
MODEL 4
REMARK VINA RESULT:      -5.9      1.858      2.586
REMARK  Name = 
REMARK  6 active torsions:
REMARK  status: ('A' for Active; 'I' for Inactive)
REMARK    1  A    between atoms: C_2  and  C_3
REMARK    2  A    between atoms: N_5  and  C_6
REMARK    3  A    between atoms: C_6  and  O_7
REMARK    4  A    between atoms: O_7  and  C_8
REMARK    5  A    between atoms: C_8  and  C_9
REMARK    6  A    between atoms: C_9  and  O_10
REMARK                            x       y       z     vdW  Elec       q    Type
REMARK                         _______ _______ _______ _____ _____    ______ ____
ROOT
ATOM      1  C   UNL     1       6.177   4.286  14.615  0.00  0.00    +0.000 A 
ATOM      2  C   UNL     1       5.447   4.028  15.711  0.00  0.00    +0.000 A 
ATOM      3  N   UNL     1       5.694   4.645  16.929  0.00  0.00    +0.000 N 
ATOM      4  C   UNL     1       6.723   5.557  17.084  0.00  0.00    +0.000 A 
ATOM      5  O   UNL     1       6.919   6.227  18.096  0.00  0.00    +0.000 OA
ATOM      6  N   UNL     1       7.538   5.723  15.994  0.00  0.00    +0.000 N 
ATOM      7  C   UNL     1       7.299   5.251  14.732  0.00  0.00    +0.000 A 
ATOM      8  O   UNL     1       7.958   5.622  13.764  0.00  0.00    +0.000 OA
ATOM      9  H   UNL     1       8.267   6.418  16.082  0.00  0.00    +0.000 HD
ENDROOT
BRANCH   1  11
ATOM     10  C   UNL     1       5.475   3.162  12.122  0.00  0.00    +0.000 C 
ATOM     11  C   UNL     1       5.799   3.681  13.272  0.00  0.00    +0.000 C 
ENDBRANCH   1  11
BRANCH   3  12
ATOM     12  C   UNL     1       4.751   4.489  18.031  0.00  0.00    +0.000 C 
BRANCH  12  13
ATOM     13  O   UNL     1       5.279   3.602  19.018  0.00  0.00    +0.000 OA
BRANCH  13  14
ATOM     14  C   UNL     1       4.248   2.721  19.489  0.00  0.00    +0.000 C 
BRANCH  14  15
ATOM     15  C   UNL     1       3.140   2.613  18.444  0.00  0.00    +0.000 C 
BRANCH  15  16
ATOM     16  O   UNL     1       2.454   1.370  18.567  0.00  0.00    +0.000 OA
ATOM     17  H   UNL     1       3.147   0.683  18.571  0.00  0.00    +0.000 HD
ENDBRANCH  15  16
ENDBRANCH  14  15
ENDBRANCH  13  14
ENDBRANCH  12  13
ENDBRANCH   3  12
TORSDOF 6
ENDMDL
MODEL 5
REMARK VINA RESULT:      -5.9      1.757      2.248
REMARK  Name = 
REMARK  6 active torsions:
REMARK  status: ('A' for Active; 'I' for Inactive)
REMARK    1  A    between atoms: C_2  and  C_3
REMARK    2  A    between atoms: N_5  and  C_6
REMARK    3  A    between atoms: C_6  and  O_7
REMARK    4  A    between atoms: O_7  and  C_8
REMARK    5  A    between atoms: C_8  and  C_9
REMARK    6  A    between atoms: C_9  and  O_10
REMARK                            x       y       z     vdW  Elec       q    Type
REMARK                         _______ _______ _______ _____ _____    ______ ____
ROOT
ATOM      1  C   UNL     1       6.193   4.163  14.553  0.00  0.00    +0.000 A 
ATOM      2  C   UNL     1       5.395   3.829  15.579  0.00  0.00    +0.000 A 
ATOM      3  N   UNL     1       5.510   4.416  16.831  0.00  0.00    +0.000 N 
ATOM      4  C   UNL     1       6.472   5.375  17.096  0.00  0.00    +0.000 A 
ATOM      5  O   UNL     1       6.550   6.019  18.140  0.00  0.00    +0.000 OA
ATOM      6  N   UNL     1       7.360   5.621  16.080  0.00  0.00    +0.000 N 
ATOM      7  C   UNL     1       7.247   5.181  14.790  0.00  0.00    +0.000 A 
ATOM      8  O   UNL     1       7.959   5.620  13.890  0.00  0.00    +0.000 OA
ATOM      9  H   UNL     1       8.039   6.351  16.248  0.00  0.00    +0.000 HD
ENDROOT
BRANCH   1  11
ATOM     10  C   UNL     1       5.754   3.089  11.980  0.00  0.00    +0.000 C 
ATOM     11  C   UNL     1       5.956   3.585  13.168  0.00  0.00    +0.000 C 
ENDBRANCH   1  11
BRANCH   3  12
ATOM     12  C   UNL     1       4.493   4.173  17.848  0.00  0.00    +0.000 C 
BRANCH  12  13
ATOM     13  O   UNL     1       3.258   4.789  17.478  0.00  0.00    +0.000 OA
BRANCH  13  14
ATOM     14  C   UNL     1       2.173   3.869  17.670  0.00  0.00    +0.000 C 
BRANCH  14  15
ATOM     15  C   UNL     1       2.714   2.448  17.804  0.00  0.00    +0.000 C 
BRANCH  15  16
ATOM     16  O   UNL     1       1.784   1.619  18.495  0.00  0.00    +0.000 OA
ATOM     17  H   UNL     1       1.612   0.862  17.903  0.00  0.00    +0.000 HD
ENDBRANCH  15  16
ENDBRANCH  14  15
ENDBRANCH  13  14
ENDBRANCH  12  13
ENDBRANCH   3  12
TORSDOF 6
ENDMDL
MODEL 6
REMARK VINA RESULT:      -5.9      1.938      2.753
REMARK  Name = 
REMARK  6 active torsions:
REMARK  status: ('A' for Active; 'I' for Inactive)
REMARK    1  A    between atoms: C_2  and  C_3
REMARK    2  A    between atoms: N_5  and  C_6
REMARK    3  A    between atoms: C_6  and  O_7
REMARK    4  A    between atoms: O_7  and  C_8
REMARK    5  A    between atoms: C_8  and  C_9
REMARK    6  A    between atoms: C_9  and  O_10
REMARK                            x       y       z     vdW  Elec       q    Type
REMARK                         _______ _______ _______ _____ _____    ______ ____
ROOT
ATOM      1  C   UNL     1       6.261   6.063  17.436  0.00  0.00    +0.000 A 
ATOM      2  C   UNL     1       4.956   6.195  17.718  0.00  0.00    +0.000 A 
ATOM      3  N   UNL     1       4.083   5.117  17.714  0.00  0.00    +0.000 N 
ATOM      4  C   UNL     1       4.512   3.839  17.401  0.00  0.00    +0.000 A 
ATOM      5  O   UNL     1       3.822   2.825  17.496  0.00  0.00    +0.000 OA
ATOM      6  N   UNL     1       5.818   3.733  16.996  0.00  0.00    +0.000 N 
ATOM      7  C   UNL     1       6.768   4.713  17.086  0.00  0.00    +0.000 A 
ATOM      8  O   UNL     1       7.961   4.478  16.909  0.00  0.00    +0.000 OA
ATOM      9  H   UNL     1       6.153   2.798  16.807  0.00  0.00    +0.000 HD
ENDROOT
BRANCH   1  11
ATOM     10  C   UNL     1       8.016   8.261  17.685  0.00  0.00    +0.000 C 
ATOM     11  C   UNL     1       7.206   7.246  17.570  0.00  0.00    +0.000 C 
ENDBRANCH   1  11
BRANCH   3  12
ATOM     12  C   UNL     1       2.726   5.273  18.225  0.00  0.00    +0.000 C 
BRANCH  12  13
ATOM     13  O   UNL     1       2.728   5.287  19.653  0.00  0.00    +0.000 OA
BRANCH  13  14
ATOM     14  C   UNL     1       1.780   4.334  20.156  0.00  0.00    +0.000 C 
BRANCH  14  15
ATOM     15  C   UNL     1       2.512   3.188  20.848  0.00  0.00    +0.000 C 
BRANCH  15  16
ATOM     16  O   UNL     1       2.182   3.144  22.233  0.00  0.00    +0.000 OA
ATOM     17  H   UNL     1       2.903   3.615  22.693  0.00  0.00    +0.000 HD
ENDBRANCH  15  16
ENDBRANCH  14  15
ENDBRANCH  13  14
ENDBRANCH  12  13
ENDBRANCH   3  12
TORSDOF 6
ENDMDL
MODEL 7
REMARK VINA RESULT:      -5.9      2.091      5.397
REMARK  Name = 
REMARK  6 active torsions:
REMARK  status: ('A' for Active; 'I' for Inactive)
REMARK    1  A    between atoms: C_2  and  C_3
REMARK    2  A    between atoms: N_5  and  C_6
REMARK    3  A    between atoms: C_6  and  O_7
REMARK    4  A    between atoms: O_7  and  C_8
REMARK    5  A    between atoms: C_8  and  C_9
REMARK    6  A    between atoms: C_9  and  O_10
REMARK                            x       y       z     vdW  Elec       q    Type
REMARK                         _______ _______ _______ _____ _____    ______ ____
ROOT
ATOM      1  C   UNL     1       3.940   3.853  17.923  0.00  0.00    +0.000 A 
ATOM      2  C   UNL     1       4.307   4.433  16.770  0.00  0.00    +0.000 A 
ATOM      3  N   UNL     1       5.630   4.722  16.473  0.00  0.00    +0.000 N 
ATOM      4  C   UNL     1       6.651   4.438  17.363  0.00  0.00    +0.000 A 
ATOM      5  O   UNL     1       7.850   4.555  17.116  0.00  0.00    +0.000 OA
ATOM      6  N   UNL     1       6.257   3.959  18.586  0.00  0.00    +0.000 N 
ATOM      7  C   UNL     1       4.998   3.536  18.915  0.00  0.00    +0.000 A 
ATOM      8  O   UNL     1       4.771   2.919  19.953  0.00  0.00    +0.000 OA
ATOM      9  H   UNL     1       6.996   3.707  19.227  0.00  0.00    +0.000 HD
ENDROOT
BRANCH   1  11
ATOM     10  C   UNL     1       1.256   3.092  18.361  0.00  0.00    +0.000 C 
ATOM     11  C   UNL     1       2.495   3.443  18.159  0.00  0.00    +0.000 C 
ENDBRANCH   1  11
BRANCH   3  12
ATOM     12  C   UNL     1       6.000   5.159  15.131  0.00  0.00    +0.000 C 
BRANCH  12  13
ATOM     13  O   UNL     1       5.334   4.367  14.146  0.00  0.00    +0.000 OA
BRANCH  13  14
ATOM     14  C   UNL     1       6.296   3.747  13.280  0.00  0.00    +0.000 C 
BRANCH  14  15
ATOM     15  C   UNL     1       5.594   3.165  12.057  0.00  0.00    +0.000 C 
BRANCH  15  16
ATOM     16  O   UNL     1       6.051   1.840  11.798  0.00  0.00    +0.000 OA
ATOM     17  H   UNL     1       6.794   1.691  12.413  0.00  0.00    +0.000 HD
ENDBRANCH  15  16
ENDBRANCH  14  15
ENDBRANCH  13  14
ENDBRANCH  12  13
ENDBRANCH   3  12
TORSDOF 6
ENDMDL
MODEL 8
REMARK VINA RESULT:      -5.8      1.097      1.140
REMARK  Name = 
REMARK  6 active torsions:
REMARK  status: ('A' for Active; 'I' for Inactive)
REMARK    1  A    between atoms: C_2  and  C_3
REMARK    2  A    between atoms: N_5  and  C_6
REMARK    3  A    between atoms: C_6  and  O_7
REMARK    4  A    between atoms: O_7  and  C_8
REMARK    5  A    between atoms: C_8  and  C_9
REMARK    6  A    between atoms: C_9  and  O_10
REMARK                            x       y       z     vdW  Elec       q    Type
REMARK                         _______ _______ _______ _____ _____    ______ ____
ROOT
ATOM      1  C   UNL     1       5.955   4.292  15.742  0.00  0.00    +0.000 A 
ATOM      2  C   UNL     1       5.055   3.717  16.555  0.00  0.00    +0.000 A 
ATOM      3  N   UNL     1       4.946   4.053  17.896  0.00  0.00    +0.000 N 
ATOM      4  C   UNL     1       5.776   4.996  18.477  0.00  0.00    +0.000 A 
ATOM      5  O   UNL     1       5.654   5.427  19.622  0.00  0.00    +0.000 OA
ATOM      6  N   UNL     1       6.770   5.489  17.671  0.00  0.00    +0.000 N 
ATOM      7  C   UNL     1       6.874   5.305  16.320  0.00  0.00    +0.000 A 
ATOM      8  O   UNL     1       7.662   5.952  15.635  0.00  0.00    +0.000 OA
ATOM      9  H   UNL     1       7.354   6.210  18.072  0.00  0.00    +0.000 HD
ENDROOT
BRANCH   1  11
ATOM     10  C   UNL     1       5.968   3.721  12.977  0.00  0.00    +0.000 C 
ATOM     11  C   UNL     1       5.962   3.985  14.253  0.00  0.00    +0.000 C 
ENDBRANCH   1  11
BRANCH   3  12
ATOM     12  C   UNL     1       3.825   3.556  18.685  0.00  0.00    +0.000 C 
BRANCH  12  13
ATOM     13  O   UNL     1       2.823   2.997  17.833  0.00  0.00    +0.000 OA
BRANCH  13  14
ATOM     14  C   UNL     1       1.536   3.538  18.167  0.00  0.00    +0.000 C 
BRANCH  14  15
ATOM     15  C   UNL     1       0.764   2.546  19.032  0.00  0.00    +0.000 C 
BRANCH  15  16
ATOM     16  O   UNL     1       0.508   3.097  20.321  0.00  0.00    +0.000 OA
ATOM     17  H   UNL     1       0.310   4.041  20.172  0.00  0.00    +0.000 HD
ENDBRANCH  15  16
ENDBRANCH  14  15
ENDBRANCH  13  14
ENDBRANCH  12  13
ENDBRANCH   3  12
TORSDOF 6
ENDMDL
MODEL 9
REMARK VINA RESULT:      -5.7      1.880      2.374
REMARK  Name = 
REMARK  6 active torsions:
REMARK  status: ('A' for Active; 'I' for Inactive)
REMARK    1  A    between atoms: C_2  and  C_3
REMARK    2  A    between atoms: N_5  and  C_6
REMARK    3  A    between atoms: C_6  and  O_7
REMARK    4  A    between atoms: O_7  and  C_8
REMARK    5  A    between atoms: C_8  and  C_9
REMARK    6  A    between atoms: C_9  and  O_10
REMARK                            x       y       z     vdW  Elec       q    Type
REMARK                         _______ _______ _______ _____ _____    ______ ____
ROOT
ATOM      1  C   UNL     1       6.140   4.243  14.712  0.00  0.00    +0.000 A 
ATOM      2  C   UNL     1       5.375   3.956  15.777  0.00  0.00    +0.000 A 
ATOM      3  N   UNL     1       5.563   4.563  17.010  0.00  0.00    +0.000 N 
ATOM      4  C   UNL     1       6.566   5.494  17.214  0.00  0.00    +0.000 A 
ATOM      5  O   UNL     1       6.710   6.156  18.240  0.00  0.00    +0.000 OA
ATOM      6  N   UNL     1       7.417   5.691  16.158  0.00  0.00    +0.000 N 
ATOM      7  C   UNL     1       7.235   5.230  14.883  0.00  0.00    +0.000 A 
ATOM      8  O   UNL     1       7.922   5.626  13.945  0.00  0.00    +0.000 OA
ATOM      9  H   UNL     1       8.127   6.401  16.281  0.00  0.00    +0.000 HD
ENDROOT
BRANCH   1  11
ATOM     10  C   UNL     1       5.556   3.135  12.182  0.00  0.00    +0.000 C 
ATOM     11  C   UNL     1       5.826   3.646  13.350  0.00  0.00    +0.000 C 
ENDBRANCH   1  11
BRANCH   3  12
ATOM     12  C   UNL     1       4.583   4.374  18.074  0.00  0.00    +0.000 C 
BRANCH  12  13
ATOM     13  O   UNL     1       5.136   3.585  19.129  0.00  0.00    +0.000 OA
BRANCH  13  14
ATOM     14  C   UNL     1       4.212   2.555  19.510  0.00  0.00    +0.000 C 
BRANCH  14  15
ATOM     15  C   UNL     1       3.114   3.143  20.392  0.00  0.00    +0.000 C 
BRANCH  15  16
ATOM     16  O   UNL     1       3.072   2.478  21.651  0.00  0.00    +0.000 OA
ATOM     17  H   UNL     1       2.269   2.808  22.099  0.00  0.00    +0.000 HD
ENDBRANCH  15  16
ENDBRANCH  14  15
ENDBRANCH  13  14
ENDBRANCH  12  13
ENDBRANCH   3  12
TORSDOF 6
ENDMDL
