MODEL 1
REMARK VINA RESULT:      -7.5      0.000      0.000
REMARK  Name = 
REMARK  4 active torsions:
REMARK  status: ('A' for Active; 'I' for Inactive)
REMARK    1  A    between atoms: C_7  and  C_8
REMARK    2  A    between atoms: C_11  and  S_12
REMARK    3  A    between atoms: S_12  and  C_13
REMARK    4  A    between atoms: C_13  and  C_14
REMARK                            x       y       z     vdW  Elec       q    Type
REMARK                         _______ _______ _______ _____ _____    ______ ____
ROOT
ATOM      1  C   UNL     1       2.976   7.250  18.093  0.00  0.00    +0.000 A 
ATOM      2  N   UNL     1       2.651   8.376  17.482  0.00  0.00    +0.000 NA
ATOM      3  N   UNL     1       1.860   9.203  18.260  0.00  0.00    +0.000 NA
ATOM      4  C   UNL     1       1.619   8.680  19.441  0.00  0.00    +0.000 A 
ATOM      5  S   UNL     1       2.328   7.146  19.693  0.00  0.00    +0.000 S 
ENDROOT
BRANCH   1  12
ATOM      6 CL   UNL     1       1.698   4.371  17.911  0.00  0.00    +0.000 Cl
ATOM      7  C   UNL     1       3.295   4.831  17.423  0.00  0.00    +0.000 A 
ATOM      8  C   UNL     1       4.095   3.811  16.886  0.00  0.00    +0.000 A 
ATOM      9  C   UNL     1       5.384   4.084  16.433  0.00  0.00    +0.000 A 
ATOM     10  C   UNL     1       5.880   5.378  16.519  0.00  0.00    +0.000 A 
ATOM     11  C   UNL     1       5.088   6.398  17.059  0.00  0.00    +0.000 A 
ATOM     12  C   UNL     1       3.775   6.151  17.517  0.00  0.00    +0.000 A 
ENDBRANCH   1  12
BRANCH   4  13
ATOM     13  S   UNL     1       0.610   9.474  20.624  0.00  0.00    +0.000 S 
BRANCH  13  14
ATOM     14  C   UNL     1       0.388  11.099  19.838  0.00  0.00    +0.000 C 
BRANCH  14  15
ATOM     15  C   UNL     1      -0.829  11.141  18.977  0.00  0.00    +0.000 A 
ATOM     16  N   UNL     1      -2.020  11.605  19.296  0.00  0.00    +0.000 NA
ATOM     17  C   UNL     1      -2.811  11.405  18.195  0.00  0.00    +0.000 A 
ATOM     18  C   UNL     1      -4.167  11.700  17.989  0.00  0.00    +0.000 A 
ATOM     19  C   UNL     1      -4.747  11.377  16.755  0.00  0.00    +0.000 A 
ATOM     20  C   UNL     1      -3.988  10.775  15.746  0.00  0.00    +0.000 A 
ATOM     21  C   UNL     1      -2.635  10.476  15.929  0.00  0.00    +0.000 A 
ATOM     22  C   UNL     1      -2.082  10.808  17.171  0.00  0.00    +0.000 A 
ATOM     23  N   UNL     1      -0.822  10.668  17.685  0.00  0.00    +0.000 N 
ATOM     24  H   UNL     1      -0.031  10.250  17.212  0.00  0.00    +0.000 HD
ENDBRANCH  14  15
ENDBRANCH  13  14
ENDBRANCH   4  13
TORSDOF 4
ENDMDL
MODEL 2
REMARK VINA RESULT:      -7.4      6.540      9.006
REMARK  Name = 
REMARK  4 active torsions:
REMARK  status: ('A' for Active; 'I' for Inactive)
REMARK    1  A    between atoms: C_7  and  C_8
REMARK    2  A    between atoms: C_11  and  S_12
REMARK    3  A    between atoms: S_12  and  C_13
REMARK    4  A    between atoms: C_13  and  C_14
REMARK                            x       y       z     vdW  Elec       q    Type
REMARK                         _______ _______ _______ _____ _____    ______ ____
ROOT
ATOM      1  C   UNL     1       4.850   4.889  18.348  0.00  0.00    +0.000 A 
ATOM      2  N   UNL     1       5.999   4.640  18.950  0.00  0.00    +0.000 NA
ATOM      3  N   UNL     1       6.973   5.581  18.668  0.00  0.00    +0.000 NA
ATOM      4  C   UNL     1       6.526   6.521  17.866  0.00  0.00    +0.000 A 
ATOM      5  S   UNL     1       4.896   6.330  17.392  0.00  0.00    +0.000 S 
ENDROOT
BRANCH   1  12
ATOM      6 CL   UNL     1       2.379   5.939  20.004  0.00  0.00    +0.000 Cl
ATOM      7  C   UNL     1       2.497   4.433  19.158  0.00  0.00    +0.000 A 
ATOM      8  C   UNL     1       1.368   3.600  19.216  0.00  0.00    +0.000 A 
ATOM      9  C   UNL     1       1.350   2.381  18.542  0.00  0.00    +0.000 A 
ATOM     10  C   UNL     1       2.463   1.987  17.810  0.00  0.00    +0.000 A 
ATOM     11  C   UNL     1       3.592   2.810  17.754  0.00  0.00    +0.000 A 
ATOM     12  C   UNL     1       3.635   4.055  18.419  0.00  0.00    +0.000 A 
ENDBRANCH   1  12
BRANCH   4  13
ATOM     13  S   UNL     1       7.542   7.821  17.297  0.00  0.00    +0.000 S 
BRANCH  13  14
ATOM     14  C   UNL     1       8.555   8.127  18.775  0.00  0.00    +0.000 C 
BRANCH  14  15
ATOM     15  C   UNL     1       9.016   9.543  18.854  0.00  0.00    +0.000 A 
ATOM     16  N   UNL     1       9.010  10.442  17.891  0.00  0.00    +0.000 NA
ATOM     17  C   UNL     1       9.551  11.579  18.431  0.00  0.00    +0.000 A 
ATOM     18  C   UNL     1       9.792  12.832  17.848  0.00  0.00    +0.000 A 
ATOM     19  C   UNL     1      10.376  13.837  18.630  0.00  0.00    +0.000 A 
ATOM     20  C   UNL     1      10.709  13.598  19.967  0.00  0.00    +0.000 A 
ATOM     21  C   UNL     1      10.475  12.359  20.568  0.00  0.00    +0.000 A 
ATOM     22  C   UNL     1       9.892  11.373  19.764  0.00  0.00    +0.000 A 
ATOM     23  N   UNL     1       9.525  10.079  20.014  0.00  0.00    +0.000 N 
ATOM     24  H   UNL     1       9.646   9.586  20.890  0.00  0.00    +0.000 HD
ENDBRANCH  14  15
ENDBRANCH  13  14
ENDBRANCH   4  13
TORSDOF 4
ENDMDL
MODEL 3
REMARK VINA RESULT:      -7.3      6.167      9.002
REMARK  Name = 
REMARK  4 active torsions:
REMARK  status: ('A' for Active; 'I' for Inactive)
REMARK    1  A    between atoms: C_7  and  C_8
REMARK    2  A    between atoms: C_11  and  S_12
REMARK    3  A    between atoms: S_12  and  C_13
REMARK    4  A    between atoms: C_13  and  C_14
REMARK                            x       y       z     vdW  Elec       q    Type
REMARK                         _______ _______ _______ _____ _____    ______ ____
ROOT
ATOM      1  C   UNL     1       4.965   5.101  17.573  0.00  0.00    +0.000 A 
ATOM      2  N   UNL     1       5.389   5.590  16.421  0.00  0.00    +0.000 NA
ATOM      3  N   UNL     1       6.514   6.385  16.553  0.00  0.00    +0.000 NA
ATOM      4  C   UNL     1       6.912   6.465  17.802  0.00  0.00    +0.000 A 
ATOM      5  S   UNL     1       5.950   5.588  18.909  0.00  0.00    +0.000 S 
ENDROOT
BRANCH   1  12
ATOM      6 CL   UNL     1       2.185   6.485  18.129  0.00  0.00    +0.000 Cl
ATOM      7  C   UNL     1       2.500   4.784  18.048  0.00  0.00    +0.000 A 
ATOM      8  C   UNL     1       1.396   3.940  18.247  0.00  0.00    +0.000 A 
ATOM      9  C   UNL     1       1.538   2.556  18.169  0.00  0.00    +0.000 A 
ATOM     10  C   UNL     1       2.786   2.010  17.898  0.00  0.00    +0.000 A 
ATOM     11  C   UNL     1       3.890   2.846  17.705  0.00  0.00    +0.000 A 
ATOM     12  C   UNL     1       3.774   4.252  17.768  0.00  0.00    +0.000 A 
ENDBRANCH   1  12
BRANCH   4  13
ATOM     13  S   UNL     1       8.280   7.437  18.285  0.00  0.00    +0.000 S 
BRANCH  13  14
ATOM     14  C   UNL     1       7.688   9.096  17.833  0.00  0.00    +0.000 C 
BRANCH  14  15
ATOM     15  C   UNL     1       8.598  10.168  18.330  0.00  0.00    +0.000 A 
ATOM     16  N   UNL     1       9.365  10.135  19.400  0.00  0.00    +0.000 NA
ATOM     17  C   UNL     1       9.991  11.353  19.455  0.00  0.00    +0.000 A 
ATOM     18  C   UNL     1      10.903  11.861  20.392  0.00  0.00    +0.000 A 
ATOM     19  C   UNL     1      11.390  13.163  20.220  0.00  0.00    +0.000 A 
ATOM     20  C   UNL     1      10.977  13.942  19.134  0.00  0.00    +0.000 A 
ATOM     21  C   UNL     1      10.072  13.455  18.188  0.00  0.00    +0.000 A 
ATOM     22  C   UNL     1       9.601  12.152  18.384  0.00  0.00    +0.000 A 
ATOM     23  N   UNL     1       8.732  11.370  17.674  0.00  0.00    +0.000 N 
ATOM     24  H   UNL     1       8.237  11.644  16.834  0.00  0.00    +0.000 HD
ENDBRANCH  14  15
ENDBRANCH  13  14
ENDBRANCH   4  13
TORSDOF 4
ENDMDL
MODEL 4
REMARK VINA RESULT:      -7.3      5.974      8.800
REMARK  Name = 
REMARK  4 active torsions:
REMARK  status: ('A' for Active; 'I' for Inactive)
REMARK    1  A    between atoms: C_7  and  C_8
REMARK    2  A    between atoms: C_11  and  S_12
REMARK    3  A    between atoms: S_12  and  C_13
REMARK    4  A    between atoms: C_13  and  C_14
REMARK                            x       y       z     vdW  Elec       q    Type
REMARK                         _______ _______ _______ _____ _____    ______ ____
ROOT
ATOM      1  C   UNL     1       4.128   5.083  18.505  0.00  0.00    +0.000 A 
ATOM      2  N   UNL     1       4.149   5.858  17.434  0.00  0.00    +0.000 NA
ATOM      3  N   UNL     1       5.366   6.490  17.248  0.00  0.00    +0.000 NA
ATOM      4  C   UNL     1       6.233   6.165  18.179  0.00  0.00    +0.000 A 
ATOM      5  S   UNL     1       5.636   5.074  19.352  0.00  0.00    +0.000 S 
ENDROOT
BRANCH   1  12
ATOM      6 CL   UNL     1       3.754   2.115  17.503  0.00  0.00    +0.000 Cl
ATOM      7  C   UNL     1       2.711   2.988  18.575  0.00  0.00    +0.000 A 
ATOM      8  C   UNL     1       1.587   2.293  19.047  0.00  0.00    +0.000 A 
ATOM      9  C   UNL     1       0.703   2.895  19.940  0.00  0.00    +0.000 A 
ATOM     10  C   UNL     1       0.937   4.198  20.361  0.00  0.00    +0.000 A 
ATOM     11  C   UNL     1       2.053   4.897  19.889  0.00  0.00    +0.000 A 
ATOM     12  C   UNL     1       2.970   4.309  18.991  0.00  0.00    +0.000 A 
ENDBRANCH   1  12
BRANCH   4  13
ATOM     13  S   UNL     1       7.841   6.841  18.233  0.00  0.00    +0.000 S 
BRANCH  13  14
ATOM     14  C   UNL     1       7.553   8.454  17.444  0.00  0.00    +0.000 C 
BRANCH  14  15
ATOM     15  C   UNL     1       8.342   9.541  18.092  0.00  0.00    +0.000 A 
ATOM     16  N   UNL     1       9.057   9.464  19.196  0.00  0.00    +0.000 NA
ATOM     17  C   UNL     1       9.570  10.718  19.403  0.00  0.00    +0.000 A 
ATOM     18  C   UNL     1      10.389  11.201  20.434  0.00  0.00    +0.000 A 
ATOM     19  C   UNL     1      10.768  12.550  20.416  0.00  0.00    +0.000 A 
ATOM     20  C   UNL     1      10.341  13.397  19.389  0.00  0.00    +0.000 A 
ATOM     21  C   UNL     1       9.528  12.936  18.351  0.00  0.00    +0.000 A 
ATOM     22  C   UNL     1       9.163  11.585  18.394  0.00  0.00    +0.000 A 
ATOM     23  N   UNL     1       8.401  10.810  17.564  0.00  0.00    +0.000 N 
ATOM     24  H   UNL     1       7.925  11.126  16.727  0.00  0.00    +0.000 HD
ENDBRANCH  14  15
ENDBRANCH  13  14
ENDBRANCH   4  13
TORSDOF 4
ENDMDL
MODEL 5
REMARK VINA RESULT:      -7.3      1.366      1.413
REMARK  Name = 
REMARK  4 active torsions:
REMARK  status: ('A' for Active; 'I' for Inactive)
REMARK    1  A    between atoms: C_7  and  C_8
REMARK    2  A    between atoms: C_11  and  S_12
REMARK    3  A    between atoms: S_12  and  C_13
REMARK    4  A    between atoms: C_13  and  C_14
REMARK                            x       y       z     vdW  Elec       q    Type
REMARK                         _______ _______ _______ _____ _____    ______ ____
ROOT
ATOM      1  C   UNL     1       3.449   6.219  18.592  0.00  0.00    +0.000 A 
ATOM      2  N   UNL     1       3.097   5.641  19.728  0.00  0.00    +0.000 NA
ATOM      3  N   UNL     1       2.216   6.405  20.472  0.00  0.00    +0.000 NA
ATOM      4  C   UNL     1       1.920   7.535  19.871  0.00  0.00    +0.000 A 
ATOM      5  S   UNL     1       2.691   7.757  18.363  0.00  0.00    +0.000 S 
ENDROOT
BRANCH   1  12
ATOM      6 CL   UNL     1       2.764   3.491  17.161  0.00  0.00    +0.000 Cl
ATOM      7  C   UNL     1       4.186   4.453  16.937  0.00  0.00    +0.000 A 
ATOM      8  C   UNL     1       5.125   3.963  16.016  0.00  0.00    +0.000 A 
ATOM      9  C   UNL     1       6.288   4.679  15.739  0.00  0.00    +0.000 A 
ATOM     10  C   UNL     1       6.520   5.885  16.386  0.00  0.00    +0.000 A 
ATOM     11  C   UNL     1       5.590   6.376  17.309  0.00  0.00    +0.000 A 
ATOM     12  C   UNL     1       4.398   5.676  17.602  0.00  0.00    +0.000 A 
ENDBRANCH   1  12
BRANCH   4  13
ATOM     13  S   UNL     1       0.866   8.726  20.591  0.00  0.00    +0.000 S 
BRANCH  13  14
ATOM     14  C   UNL     1       0.995  10.068  19.370  0.00  0.00    +0.000 C 
BRANCH  14  15
ATOM     15  C   UNL     1      -0.319  10.369  18.732  0.00  0.00    +0.000 A 
ATOM     16  N   UNL     1      -1.344  11.001  19.267  0.00  0.00    +0.000 NA
ATOM     17  C   UNL     1      -2.325  11.010  18.310  0.00  0.00    +0.000 A 
ATOM     18  C   UNL     1      -3.624  11.538  18.350  0.00  0.00    +0.000 A 
ATOM     19  C   UNL     1      -4.442  11.400  17.221  0.00  0.00    +0.000 A 
ATOM     20  C   UNL     1      -3.972  10.751  16.074  0.00  0.00    +0.000 A 
ATOM     21  C   UNL     1      -2.681  10.221  16.012  0.00  0.00    +0.000 A 
ATOM     22  C   UNL     1      -1.885  10.371  17.154  0.00  0.00    +0.000 A 
ATOM     23  N   UNL     1      -0.603   9.991  17.440  0.00  0.00    +0.000 N 
ATOM     24  H   UNL     1       0.016   9.480  16.823  0.00  0.00    +0.000 HD
ENDBRANCH  14  15
ENDBRANCH  13  14
ENDBRANCH   4  13
TORSDOF 4
ENDMDL
MODEL 6
REMARK VINA RESULT:      -7.3      6.475      8.912
REMARK  Name = 
REMARK  4 active torsions:
REMARK  status: ('A' for Active; 'I' for Inactive)
REMARK    1  A    between atoms: C_7  and  C_8
REMARK    2  A    between atoms: C_11  and  S_12
REMARK    3  A    between atoms: S_12  and  C_13
REMARK    4  A    between atoms: C_13  and  C_14
REMARK                            x       y       z     vdW  Elec       q    Type
REMARK                         _______ _______ _______ _____ _____    ______ ____
ROOT
ATOM      1  C   UNL     1       4.898   4.302  18.036  0.00  0.00    +0.000 A 
ATOM      2  N   UNL     1       5.690   4.174  16.986  0.00  0.00    +0.000 NA
ATOM      3  N   UNL     1       6.831   4.952  17.072  0.00  0.00    +0.000 NA
ATOM      4  C   UNL     1       6.871   5.639  18.190  0.00  0.00    +0.000 A 
ATOM      5  S   UNL     1       5.528   5.397  19.218  0.00  0.00    +0.000 S 
ENDROOT
BRANCH   1  12
ATOM      6 CL   UNL     1       2.282   6.064  18.092  0.00  0.00    +0.000 Cl
ATOM      7  C   UNL     1       2.382   4.346  18.292  0.00  0.00    +0.000 A 
ATOM      8  C   UNL     1       1.165   3.675  18.493  0.00  0.00    +0.000 A 
ATOM      9  C   UNL     1       1.134   2.289  18.632  0.00  0.00    +0.000 A 
ATOM     10  C   UNL     1       2.320   1.569  18.575  0.00  0.00    +0.000 A 
ATOM     11  C   UNL     1       3.535   2.233  18.380  0.00  0.00    +0.000 A 
ATOM     12  C   UNL     1       3.596   3.635  18.226  0.00  0.00    +0.000 A 
ENDBRANCH   1  12
BRANCH   4  13
ATOM     13  S   UNL     1       8.170   6.747  18.558  0.00  0.00    +0.000 S 
BRANCH  13  14
ATOM     14  C   UNL     1       7.587   8.242  17.702  0.00  0.00    +0.000 C 
BRANCH  14  15
ATOM     15  C   UNL     1       8.321   9.462  18.146  0.00  0.00    +0.000 A 
ATOM     16  N   UNL     1       8.367  10.632  17.544  0.00  0.00    +0.000 NA
ATOM     17  C   UNL     1       9.183  11.421  18.312  0.00  0.00    +0.000 A 
ATOM     18  C   UNL     1       9.588  12.752  18.131  0.00  0.00    +0.000 A 
ATOM     19  C   UNL     1      10.450  13.328  19.073  0.00  0.00    +0.000 A 
ATOM     20  C   UNL     1      10.897  12.592  20.175  0.00  0.00    +0.000 A 
ATOM     21  C   UNL     1      10.503  11.266  20.377  0.00  0.00    +0.000 A 
ATOM     22  C   UNL     1       9.643  10.716  19.420  0.00  0.00    +0.000 A 
ATOM     23  N   UNL     1       9.066   9.481  19.302  0.00  0.00    +0.000 N 
ATOM     24  H   UNL     1       9.199   8.701  19.934  0.00  0.00    +0.000 HD
ENDBRANCH  14  15
ENDBRANCH  13  14
ENDBRANCH   4  13
TORSDOF 4
ENDMDL
MODEL 7
REMARK VINA RESULT:      -7.3      6.472      8.859
REMARK  Name = 
REMARK  4 active torsions:
REMARK  status: ('A' for Active; 'I' for Inactive)
REMARK    1  A    between atoms: C_7  and  C_8
REMARK    2  A    between atoms: C_11  and  S_12
REMARK    3  A    between atoms: S_12  and  C_13
REMARK    4  A    between atoms: C_13  and  C_14
REMARK                            x       y       z     vdW  Elec       q    Type
REMARK                         _______ _______ _______ _____ _____    ______ ____
ROOT
ATOM      1  C   UNL     1       4.854   4.344  18.159  0.00  0.00    +0.000 A 
ATOM      2  N   UNL     1       5.711   4.055  17.196  0.00  0.00    +0.000 NA
ATOM      3  N   UNL     1       6.871   4.805  17.262  0.00  0.00    +0.000 NA
ATOM      4  C   UNL     1       6.861   5.633  18.281  0.00  0.00    +0.000 A 
ATOM      5  S   UNL     1       5.442   5.567  19.231  0.00  0.00    +0.000 S 
ENDROOT
BRANCH   1  12
ATOM      6 CL   UNL     1       4.550   1.839  20.054  0.00  0.00    +0.000 Cl
ATOM      7  C   UNL     1       3.295   2.611  19.143  0.00  0.00    +0.000 A 
ATOM      8  C   UNL     1       2.010   2.060  19.271  0.00  0.00    +0.000 A 
ATOM      9  C   UNL     1       0.925   2.627  18.605  0.00  0.00    +0.000 A 
ATOM     10  C   UNL     1       1.122   3.744  17.803  0.00  0.00    +0.000 A 
ATOM     11  C   UNL     1       2.402   4.293  17.668  0.00  0.00    +0.000 A 
ATOM     12  C   UNL     1       3.517   3.745  18.339  0.00  0.00    +0.000 A 
ENDBRANCH   1  12
BRANCH   4  13
ATOM     13  S   UNL     1       8.172   6.742  18.595  0.00  0.00    +0.000 S 
BRANCH  13  14
ATOM     14  C   UNL     1       7.607   8.199  17.665  0.00  0.00    +0.000 C 
BRANCH  14  15
ATOM     15  C   UNL     1       8.275   9.450  18.128  0.00  0.00    +0.000 A 
ATOM     16  N   UNL     1       8.223  10.641  17.566  0.00  0.00    +0.000 NA
ATOM     17  C   UNL     1       9.012  11.457  18.334  0.00  0.00    +0.000 A 
ATOM     18  C   UNL     1       9.322  12.817  18.186  0.00  0.00    +0.000 A 
ATOM     19  C   UNL     1      10.178  13.417  19.118  0.00  0.00    +0.000 A 
ATOM     20  C   UNL     1      10.712  12.677  20.178  0.00  0.00    +0.000 A 
ATOM     21  C   UNL     1      10.414  11.321  20.345  0.00  0.00    +0.000 A 
ATOM     22  C   UNL     1       9.557  10.747  19.400  0.00  0.00    +0.000 A 
ATOM     23  N   UNL     1       9.059   9.481  19.257  0.00  0.00    +0.000 N 
ATOM     24  H   UNL     1       9.266   8.691  19.856  0.00  0.00    +0.000 HD
ENDBRANCH  14  15
ENDBRANCH  13  14
ENDBRANCH   4  13
TORSDOF 4
ENDMDL
MODEL 8
REMARK VINA RESULT:      -7.2      6.358      7.723
REMARK  Name = 
REMARK  4 active torsions:
REMARK  status: ('A' for Active; 'I' for Inactive)
REMARK    1  A    between atoms: C_7  and  C_8
REMARK    2  A    between atoms: C_11  and  S_12
REMARK    3  A    between atoms: S_12  and  C_13
REMARK    4  A    between atoms: C_13  and  C_14
REMARK                            x       y       z     vdW  Elec       q    Type
REMARK                         _______ _______ _______ _____ _____    ______ ____
ROOT
ATOM      1  C   UNL     1       6.396   5.363  14.973  0.00  0.00    +0.000 A 
ATOM      2  N   UNL     1       5.652   6.408  15.289  0.00  0.00    +0.000 NA
ATOM      3  N   UNL     1       5.981   6.954  16.518  0.00  0.00    +0.000 NA
ATOM      4  C   UNL     1       6.973   6.309  17.089  0.00  0.00    +0.000 A 
ATOM      5  S   UNL     1       7.576   4.992  16.182  0.00  0.00    +0.000 S 
ENDROOT
BRANCH   1  12
ATOM      6 CL   UNL     1       8.577   5.648  12.710  0.00  0.00    +0.000 Cl
ATOM      7  C   UNL     1       7.177   4.628  12.681  0.00  0.00    +0.000 A 
ATOM      8  C   UNL     1       7.006   3.846  11.529  0.00  0.00    +0.000 A 
ATOM      9  C   UNL     1       5.930   2.968  11.420  0.00  0.00    +0.000 A 
ATOM     10  C   UNL     1       5.017   2.872  12.462  0.00  0.00    +0.000 A 
ATOM     11  C   UNL     1       5.179   3.654  13.611  0.00  0.00    +0.000 A 
ATOM     12  C   UNL     1       6.266   4.545  13.752  0.00  0.00    +0.000 A 
ENDBRANCH   1  12
BRANCH   4  13
ATOM     13  S   UNL     1       7.579   6.740  18.668  0.00  0.00    +0.000 S 
BRANCH  13  14
ATOM     14  C   UNL     1       7.065   5.286  19.632  0.00  0.00    +0.000 C 
BRANCH  14  15
ATOM     15  C   UNL     1       5.700   4.819  19.253  0.00  0.00    +0.000 A 
ATOM     16  N   UNL     1       4.573   5.497  19.328  0.00  0.00    +0.000 NA
ATOM     17  C   UNL     1       3.590   4.645  18.897  0.00  0.00    +0.000 A 
ATOM     18  C   UNL     1       2.206   4.843  18.784  0.00  0.00    +0.000 A 
ATOM     19  C   UNL     1       1.410   3.787  18.320  0.00  0.00    +0.000 A 
ATOM     20  C   UNL     1       1.984   2.560  17.973  0.00  0.00    +0.000 A 
ATOM     21  C   UNL     1       3.361   2.342  18.076  0.00  0.00    +0.000 A 
ATOM     22  C   UNL     1       4.132   3.413  18.542  0.00  0.00    +0.000 A 
ATOM     23  N   UNL     1       5.475   3.556  18.759  0.00  0.00    +0.000 N 
ATOM     24  H   UNL     1       6.178   2.840  18.621  0.00  0.00    +0.000 HD
ENDBRANCH  14  15
ENDBRANCH  13  14
ENDBRANCH   4  13
TORSDOF 4
ENDMDL
MODEL 9
REMARK VINA RESULT:      -7.2      2.129      2.661
REMARK  Name = 
REMARK  4 active torsions:
REMARK  status: ('A' for Active; 'I' for Inactive)
REMARK    1  A    between atoms: C_7  and  C_8
REMARK    2  A    between atoms: C_11  and  S_12
REMARK    3  A    between atoms: S_12  and  C_13
REMARK    4  A    between atoms: C_13  and  C_14
REMARK                            x       y       z     vdW  Elec       q    Type
REMARK                         _______ _______ _______ _____ _____    ______ ____
ROOT
ATOM      1  C   UNL     1       2.485   6.110  19.065  0.00  0.00    +0.000 A 
ATOM      2  N   UNL     1       3.185   6.361  17.972  0.00  0.00    +0.000 NA
ATOM      3  N   UNL     1       3.136   7.690  17.593  0.00  0.00    +0.000 NA
ATOM      4  C   UNL     1       2.407   8.407  18.416  0.00  0.00    +0.000 A 
ATOM      5  S   UNL     1       1.723   7.523  19.708  0.00  0.00    +0.000 S 
ENDROOT
BRANCH   1  12
ATOM      6 CL   UNL     1       2.276   3.556  17.224  0.00  0.00    +0.000 Cl
ATOM      7  C   UNL     1       2.181   3.601  18.952  0.00  0.00    +0.000 A 
ATOM      8  C   UNL     1       1.996   2.366  19.593  0.00  0.00    +0.000 A 
ATOM      9  C   UNL     1       1.939   2.289  20.984  0.00  0.00    +0.000 A 
ATOM     10  C   UNL     1       2.061   3.449  21.738  0.00  0.00    +0.000 A 
ATOM     11  C   UNL     1       2.239   4.683  21.104  0.00  0.00    +0.000 A 
ATOM     12  C   UNL     1       2.311   4.789  19.698  0.00  0.00    +0.000 A 
ENDBRANCH   1  12
BRANCH   4  13
ATOM     13  S   UNL     1       2.123  10.112  18.168  0.00  0.00    +0.000 S 
BRANCH  13  14
ATOM     14  C   UNL     1       0.782  10.405  19.361  0.00  0.00    +0.000 C 
BRANCH  14  15
ATOM     15  C   UNL     1      -0.529  10.625  18.685  0.00  0.00    +0.000 A 
ATOM     16  N   UNL     1      -1.596  11.218  19.180  0.00  0.00    +0.000 NA
ATOM     17  C   UNL     1      -2.552  11.155  18.200  0.00  0.00    +0.000 A 
ATOM     18  C   UNL     1      -3.876  11.619  18.198  0.00  0.00    +0.000 A 
ATOM     19  C   UNL     1      -4.659  11.413  17.053  0.00  0.00    +0.000 A 
ATOM     20  C   UNL     1      -4.130  10.762  15.934  0.00  0.00    +0.000 A 
ATOM     21  C   UNL     1      -2.812  10.295  15.915  0.00  0.00    +0.000 A 
ATOM     22  C   UNL     1      -2.054  10.512  17.071  0.00  0.00    +0.000 A 
ATOM     23  N   UNL     1      -0.762  10.203  17.397  0.00  0.00    +0.000 N 
ATOM     24  H   UNL     1      -0.103   9.709  16.807  0.00  0.00    +0.000 HD
ENDBRANCH  14  15
ENDBRANCH  13  14
ENDBRANCH   4  13
TORSDOF 4
ENDMDL
