MODEL 1
REMARK VINA RESULT:      -6.9      0.000      0.000
REMARK  Name = 
REMARK  23 active torsions:
REMARK  status: ('A' for Active; 'I' for Inactive)
REMARK    1  A    between atoms: C_1  and  C_2
REMARK    2  A    between atoms: C_2  and  C_3
REMARK    3  A    between atoms: C_2  and  C_4
REMARK    4  A    between atoms: C_4  and  C_5
REMARK    5  A    between atoms: N_7  and  C_8
REMARK    6  A    between atoms: C_8  and  C_9
REMARK    7  A    between atoms: C_8  and  C_14
REMARK    8  A    between atoms: C_9  and  C_10
REMARK    9  A    between atoms: C_10  and  C_11
REMARK   10  A    between atoms: C_11  and  C_12
REMARK   11  A    between atoms: C_12  and  N_13
REMARK   12  A    between atoms: N_16  and  C_17
REMARK   13  A    between atoms: C_17  and  C_18
REMARK   14  A    between atoms: C_17  and  C_23
REMARK   15  A    between atoms: C_18  and  C_19
REMARK   16  A    between atoms: C_19  and  C_20
REMARK   17  A    between atoms: C_20  and  C_21
REMARK   18  A    between atoms: C_21  and  N_22
REMARK   19  A    between atoms: N_25  and  C_26
REMARK   20  A    between atoms: C_26  and  C_27
REMARK   21  A    between atoms: C_27  and  C_28
REMARK   22  A    between atoms: C_28  and  C_29
REMARK   23  A    between atoms: C_29  and  N_30
REMARK                            x       y       z     vdW  Elec       q    Type
REMARK                         _______ _______ _______ _____ _____    ______ ____
ROOT
ATOM      1  C   UNL     1       6.629   5.817  18.008  0.00  0.00    +0.000 C 
ENDROOT
BRANCH   1   2
ATOM      2  C   UNL     1       7.406   7.018  17.418  0.00  0.00    +0.000 C 
ATOM      3  O   UNL     1       7.679   7.091  16.220  0.00  0.00    +0.000 OA
ATOM      4  N   UNL     1       7.804   7.993  18.305  0.00  0.00    +0.000 N 
ATOM      5  H   UNL     1       7.540   7.921  19.279  0.00  0.00    +0.000 HD
BRANCH   4   6
ATOM      6  C   UNL     1       8.409   9.219  17.837  0.00  0.00    +0.000 C 
BRANCH   6   7
ATOM      7  C   UNL     1       9.114   9.978  18.950  0.00  0.00    +0.000 C 
BRANCH   7   8
ATOM      8  C   UNL     1       9.307  11.462  18.615  0.00  0.00    +0.000 C 
BRANCH   8   9
ATOM      9  C   UNL     1      10.777  11.850  18.773  0.00  0.00    +0.000 C 
BRANCH   9  10
ATOM     10  N   UNL     1      11.404  12.038  17.483  0.00  0.00    +0.000 N 
ATOM     11  C   UNL     1      11.447  13.173  16.763  0.00  0.00    +0.000 C 
ATOM     12  N   UNL     1      10.828  14.274  16.973  0.00  0.00    +0.000 NA
ATOM     13  N   UNL     1      12.320  13.122  15.738  0.00  0.00    +0.000 N 
ATOM     14  H   UNL     1      11.873  11.234  17.089  0.00  0.00    +0.000 HD
ATOM     15  H   UNL     1      10.266  14.198  17.819  0.00  0.00    +0.000 HD
ATOM     16  H   UNL     1      12.055  12.457  15.026  0.00  0.00    +0.000 HD
ATOM     17  H   UNL     1      12.362  14.047  15.318  0.00  0.00    +0.000 HD
ENDBRANCH   9  10
ENDBRANCH   8   9
ENDBRANCH   7   8
ENDBRANCH   6   7
ENDBRANCH   4   6
ENDBRANCH   1   2
BRANCH   1  20
ATOM     18  C   UNL     1       4.499   5.410  19.214  0.00  0.00    +0.000 C 
ATOM     19  O   UNL     1       5.001   4.519  19.893  0.00  0.00    +0.000 OA
ATOM     20  N   UNL     1       5.224   6.126  18.284  0.00  0.00    +0.000 N 
ATOM     21  H   UNL     1       4.722   6.731  17.650  0.00  0.00    +0.000 HD
BRANCH  18  22
ATOM     22  C   UNL     1       3.002   5.815  19.358  0.00  0.00    +0.000 C 
BRANCH  22  25
ATOM     23  C   UNL     1       2.300   8.050  18.485  0.00  0.00    +0.000 C 
ATOM     24  O   UNL     1       2.473   8.861  17.590  0.00  0.00    +0.000 OA
ATOM     25  N   UNL     1       2.613   6.723  18.268  0.00  0.00    +0.000 N 
ATOM     26  H   UNL     1       2.910   6.507  17.323  0.00  0.00    +0.000 HD
BRANCH  23  27
ATOM     27  C   UNL     1       1.846   8.364  19.885  0.00  0.00    +0.000 C 
BRANCH  27  29
ATOM     28  C   UNL     1      -0.143   8.790  21.382  0.00  0.00    +0.000 C 
ATOM     29  C   UNL     1       0.549   9.127  20.064  0.00  0.00    +0.000 C 
ATOM     30  C   UNL     1       0.945  10.609  19.989  0.00  0.00    +0.000 C 
ENDBRANCH  27  29
ENDBRANCH  23  27
ENDBRANCH  22  25
BRANCH  22  31
ATOM     31  C   UNL     1       2.043   4.629  19.439  0.00  0.00    +0.000 C 
BRANCH  31  32
ATOM     32  C   UNL     1       1.622   4.158  18.046  0.00  0.00    +0.000 C 
BRANCH  32  33
ATOM     33  C   UNL     1       2.716   3.370  17.338  0.00  0.00    +0.000 C 
BRANCH  33  34
ATOM     34  C   UNL     1       2.823   1.980  17.963  0.00  0.00    +0.000 C 
BRANCH  34  35
ATOM     35  N   UNL     1       4.115   1.811  18.608  0.00  0.00    +0.000 NA
ATOM     36  H   UNL     1       4.059   1.057  19.291  0.00  0.00    +0.000 HD
ATOM     37  H   UNL     1       4.336   2.656  19.131  0.00  0.00    +0.000 HD
ENDBRANCH  34  35
ENDBRANCH  33  34
ENDBRANCH  32  33
ENDBRANCH  31  32
ENDBRANCH  22  31
ENDBRANCH  18  22
ENDBRANCH   1  20
BRANCH   1  38
ATOM     38  C   UNL     1       6.682   4.582  17.091  0.00  0.00    +0.000 C 
BRANCH  38  39
ATOM     39  C   UNL     1       6.014   4.715  15.717  0.00  0.00    +0.000 C 
BRANCH  39  40
ATOM     40  C   UNL     1       6.138   3.492  14.807  0.00  0.00    +0.000 C 
BRANCH  40  41
ATOM     41  C   UNL     1       5.518   3.725  13.433  0.00  0.00    +0.000 C 
BRANCH  41  42
ATOM     42  N   UNL     1       6.299   3.056  12.400  0.00  0.00    +0.000 NA
ATOM     43  H   UNL     1       7.085   2.567  12.824  0.00  0.00    +0.000 HD
ATOM     44  H   UNL     1       6.694   3.755  11.774  0.00  0.00    +0.000 HD
ENDBRANCH  41  42
ENDBRANCH  40  41
ENDBRANCH  39  40
ENDBRANCH  38  39
ENDBRANCH   1  38
TORSDOF 21
ENDMDL
MODEL 2
REMARK VINA RESULT:      -6.8      4.082      7.071
REMARK  Name = 
REMARK  23 active torsions:
REMARK  status: ('A' for Active; 'I' for Inactive)
REMARK    1  A    between atoms: C_1  and  C_2
REMARK    2  A    between atoms: C_2  and  C_3
REMARK    3  A    between atoms: C_2  and  C_4
REMARK    4  A    between atoms: C_4  and  C_5
REMARK    5  A    between atoms: N_7  and  C_8
REMARK    6  A    between atoms: C_8  and  C_9
REMARK    7  A    between atoms: C_8  and  C_14
REMARK    8  A    between atoms: C_9  and  C_10
REMARK    9  A    between atoms: C_10  and  C_11
REMARK   10  A    between atoms: C_11  and  C_12
REMARK   11  A    between atoms: C_12  and  N_13
REMARK   12  A    between atoms: N_16  and  C_17
REMARK   13  A    between atoms: C_17  and  C_18
REMARK   14  A    between atoms: C_17  and  C_23
REMARK   15  A    between atoms: C_18  and  C_19
REMARK   16  A    between atoms: C_19  and  C_20
REMARK   17  A    between atoms: C_20  and  C_21
REMARK   18  A    between atoms: C_21  and  N_22
REMARK   19  A    between atoms: N_25  and  C_26
REMARK   20  A    between atoms: C_26  and  C_27
REMARK   21  A    between atoms: C_27  and  C_28
REMARK   22  A    between atoms: C_28  and  C_29
REMARK   23  A    between atoms: C_29  and  N_30
REMARK                            x       y       z     vdW  Elec       q    Type
REMARK                         _______ _______ _______ _____ _____    ______ ____
ROOT
ATOM      1  C   UNL     1       2.650   7.305  18.666  0.00  0.00    +0.000 C 
ENDROOT
BRANCH   1   2
ATOM      2  C   UNL     1       3.708   7.357  17.538  0.00  0.00    +0.000 C 
ATOM      3  O   UNL     1       3.471   7.873  16.446  0.00  0.00    +0.000 OA
ATOM      4  N   UNL     1       4.926   6.771  17.804  0.00  0.00    +0.000 N 
ATOM      5  H   UNL     1       5.103   6.380  18.721  0.00  0.00    +0.000 HD
BRANCH   4   6
ATOM      6  C   UNL     1       6.025   6.890  16.874  0.00  0.00    +0.000 C 
BRANCH   6   7
ATOM      7  C   UNL     1       7.339   7.215  17.569  0.00  0.00    +0.000 C 
BRANCH   7   8
ATOM      8  C   UNL     1       7.782   6.106  18.531  0.00  0.00    +0.000 C 
BRANCH   8   9
ATOM      9  C   UNL     1       7.429   4.735  17.953  0.00  0.00    +0.000 C 
BRANCH   9  10
ATOM     10  N   UNL     1       6.517   4.026  18.823  0.00  0.00    +0.000 N 
ATOM     11  C   UNL     1       5.323   3.503  18.491  0.00  0.00    +0.000 C 
ATOM     12  N   UNL     1       4.668   3.643  17.400  0.00  0.00    +0.000 NA
ATOM     13  N   UNL     1       4.824   2.675  19.429  0.00  0.00    +0.000 N 
ATOM     14  H   UNL     1       6.818   3.897  19.780  0.00  0.00    +0.000 HD
ATOM     15  H   UNL     1       5.195   4.228  16.753  0.00  0.00    +0.000 HD
ATOM     16  H   UNL     1       4.589   3.148  20.289  0.00  0.00    +0.000 HD
ATOM     17  H   UNL     1       3.981   2.250  19.052  0.00  0.00    +0.000 HD
ENDBRANCH   9  10
ENDBRANCH   8   9
ENDBRANCH   7   8
ENDBRANCH   6   7
ENDBRANCH   4   6
ENDBRANCH   1   2
BRANCH   1  20
ATOM     18  C   UNL     1       1.180   8.996  19.733  0.00  0.00    +0.000 C 
ATOM     19  O   UNL     1       1.551   8.674  20.858  0.00  0.00    +0.000 OA
ATOM     20  N   UNL     1       1.684   8.403  18.593  0.00  0.00    +0.000 N 
ATOM     21  H   UNL     1       1.227   8.597  17.713  0.00  0.00    +0.000 HD
BRANCH  18  22
ATOM     22  C   UNL     1       0.118  10.111  19.499  0.00  0.00    +0.000 C 
BRANCH  22  25
ATOM     23  C   UNL     1       0.311  12.180  20.889  0.00  0.00    +0.000 C 
ATOM     24  O   UNL     1       1.099  12.973  21.380  0.00  0.00    +0.000 OA
ATOM     25  N   UNL     1       0.695  11.433  19.794  0.00  0.00    +0.000 N 
ATOM     26  H   UNL     1       1.612  11.658  19.427  0.00  0.00    +0.000 HD
BRANCH  23  27
ATOM     27  C   UNL     1      -1.058  11.852  21.422  0.00  0.00    +0.000 C 
BRANCH  27  29
ATOM     28  C   UNL     1      -2.630  11.878  23.398  0.00  0.00    +0.000 C 
ATOM     29  C   UNL     1      -1.209  11.609  22.910  0.00  0.00    +0.000 C 
ATOM     30  C   UNL     1      -0.800  10.144  23.118  0.00  0.00    +0.000 C 
ENDBRANCH  27  29
ENDBRANCH  23  27
ENDBRANCH  22  25
BRANCH  22  31
ATOM     31  C   UNL     1      -0.503  10.094  18.104  0.00  0.00    +0.000 C 
BRANCH  31  32
ATOM     32  C   UNL     1      -1.784  10.927  18.055  0.00  0.00    +0.000 C 
BRANCH  32  33
ATOM     33  C   UNL     1      -3.018  10.088  17.753  0.00  0.00    +0.000 C 
BRANCH  33  34
ATOM     34  C   UNL     1      -3.840  10.772  16.662  0.00  0.00    +0.000 C 
BRANCH  34  35
ATOM     35  N   UNL     1      -2.965  11.416  15.695  0.00  0.00    +0.000 NA
ATOM     36  H   UNL     1      -2.688  10.740  14.985  0.00  0.00    +0.000 HD
ATOM     37  H   UNL     1      -2.109  11.705  16.165  0.00  0.00    +0.000 HD
ENDBRANCH  34  35
ENDBRANCH  33  34
ENDBRANCH  32  33
ENDBRANCH  31  32
ENDBRANCH  22  31
ENDBRANCH  18  22
ENDBRANCH   1  20
BRANCH   1  38
ATOM     38  C   UNL     1       1.874   5.977  18.675  0.00  0.00    +0.000 C 
BRANCH  38  39
ATOM     39  C   UNL     1       1.790   5.238  20.017  0.00  0.00    +0.000 C 
BRANCH  39  40
ATOM     40  C   UNL     1       1.553   3.730  19.920  0.00  0.00    +0.000 C 
BRANCH  40  41
ATOM     41  C   UNL     1       1.235   3.282  18.496  0.00  0.00    +0.000 C 
BRANCH  41  42
ATOM     42  N   UNL     1       1.947   2.052  18.176  0.00  0.00    +0.000 NA
ATOM     43  H   UNL     1       1.628   1.692  17.279  0.00  0.00    +0.000 HD
ATOM     44  H   UNL     1       1.721   1.344  18.872  0.00  0.00    +0.000 HD
ENDBRANCH  41  42
ENDBRANCH  40  41
ENDBRANCH  39  40
ENDBRANCH  38  39
ENDBRANCH   1  38
TORSDOF 21
ENDMDL
MODEL 3
REMARK VINA RESULT:      -6.7      3.629      7.871
REMARK  Name = 
REMARK  23 active torsions:
REMARK  status: ('A' for Active; 'I' for Inactive)
REMARK    1  A    between atoms: C_1  and  C_2
REMARK    2  A    between atoms: C_2  and  C_3
REMARK    3  A    between atoms: C_2  and  C_4
REMARK    4  A    between atoms: C_4  and  C_5
REMARK    5  A    between atoms: N_7  and  C_8
REMARK    6  A    between atoms: C_8  and  C_9
REMARK    7  A    between atoms: C_8  and  C_14
REMARK    8  A    between atoms: C_9  and  C_10
REMARK    9  A    between atoms: C_10  and  C_11
REMARK   10  A    between atoms: C_11  and  C_12
REMARK   11  A    between atoms: C_12  and  N_13
REMARK   12  A    between atoms: N_16  and  C_17
REMARK   13  A    between atoms: C_17  and  C_18
REMARK   14  A    between atoms: C_17  and  C_23
REMARK   15  A    between atoms: C_18  and  C_19
REMARK   16  A    between atoms: C_19  and  C_20
REMARK   17  A    between atoms: C_20  and  C_21
REMARK   18  A    between atoms: C_21  and  N_22
REMARK   19  A    between atoms: N_25  and  C_26
REMARK   20  A    between atoms: C_26  and  C_27
REMARK   21  A    between atoms: C_27  and  C_28
REMARK   22  A    between atoms: C_28  and  C_29
REMARK   23  A    between atoms: C_29  and  N_30
REMARK                            x       y       z     vdW  Elec       q    Type
REMARK                         _______ _______ _______ _____ _____    ______ ____
ROOT
ATOM      1  C   UNL     1       2.874   5.565  18.648  0.00  0.00    +0.000 C 
ENDROOT
BRANCH   1   2
ATOM      2  C   UNL     1       2.324   6.955  19.047  0.00  0.00    +0.000 C 
ATOM      3  O   UNL     1       1.989   7.215  20.202  0.00  0.00    +0.000 OA
ATOM      4  N   UNL     1       2.200   7.884  18.038  0.00  0.00    +0.000 N 
ATOM      5  H   UNL     1       2.511   7.652  17.103  0.00  0.00    +0.000 HD
BRANCH   4   6
ATOM      6  C   UNL     1       1.833   9.250  18.330  0.00  0.00    +0.000 C 
BRANCH   6   7
ATOM      7  C   UNL     1       0.405   9.567  17.913  0.00  0.00    +0.000 C 
BRANCH   7   8
ATOM      8  C   UNL     1      -0.395  10.245  19.032  0.00  0.00    +0.000 C 
BRANCH   8   9
ATOM      9  C   UNL     1       0.538  10.660  20.169  0.00  0.00    +0.000 C 
BRANCH   9  10
ATOM     10  N   UNL     1      -0.109  11.605  21.051  0.00  0.00    +0.000 N 
ATOM     11  C   UNL     1      -0.645  11.350  22.258  0.00  0.00    +0.000 C 
ATOM     12  N   UNL     1      -0.838  10.216  22.820  0.00  0.00    +0.000 NA
ATOM     13  N   UNL     1      -0.934  12.463  22.959  0.00  0.00    +0.000 N 
ATOM     14  H   UNL     1      -0.148  12.564  20.732  0.00  0.00    +0.000 HD
ATOM     15  H   UNL     1      -0.505   9.469  22.214  0.00  0.00    +0.000 HD
ATOM     16  H   UNL     1      -1.669  13.014  22.540  0.00  0.00    +0.000 HD
ATOM     17  H   UNL     1      -1.233  12.178  23.888  0.00  0.00    +0.000 HD
ENDBRANCH   9  10
ENDBRANCH   8   9
ENDBRANCH   7   8
ENDBRANCH   6   7
ENDBRANCH   4   6
ENDBRANCH   1   2
BRANCH   1  20
ATOM     18  C   UNL     1       4.216   4.533  16.834  0.00  0.00    +0.000 C 
ATOM     19  O   UNL     1       3.630   3.461  16.948  0.00  0.00    +0.000 OA
ATOM     20  N   UNL     1       3.896   5.634  17.601  0.00  0.00    +0.000 N 
ATOM     21  H   UNL     1       4.514   6.433  17.572  0.00  0.00    +0.000 HD
BRANCH  18  22
ATOM     22  C   UNL     1       5.362   4.743  15.800  0.00  0.00    +0.000 C 
BRANCH  22  25
ATOM     23  C   UNL     1       7.560   4.692  16.988  0.00  0.00    +0.000 C 
ATOM     24  O   UNL     1       8.264   4.036  17.740  0.00  0.00    +0.000 OA
ATOM     25  N   UNL     1       6.584   4.057  16.247  0.00  0.00    +0.000 N 
ATOM     26  H   UNL     1       6.572   3.047  16.338  0.00  0.00    +0.000 HD
BRANCH  23  27
ATOM     27  C   UNL     1       7.585   6.189  16.838  0.00  0.00    +0.000 C 
BRANCH  27  29
ATOM     28  C   UNL     1       8.085   6.430  19.301  0.00  0.00    +0.000 C 
ATOM     29  C   UNL     1       7.402   7.037  18.080  0.00  0.00    +0.000 C 
ATOM     30  C   UNL     1       7.990   8.409  17.718  0.00  0.00    +0.000 C 
ENDBRANCH  27  29
ENDBRANCH  23  27
ENDBRANCH  22  25
BRANCH  22  31
ATOM     31  C   UNL     1       4.999   4.322  14.377  0.00  0.00    +0.000 C 
BRANCH  31  32
ATOM     32  C   UNL     1       6.158   3.589  13.701  0.00  0.00    +0.000 C 
BRANCH  32  33
ATOM     33  C   UNL     1       6.369   4.028  12.258  0.00  0.00    +0.000 C 
BRANCH  33  34
ATOM     34  C   UNL     1       7.661   4.837  12.159  0.00  0.00    +0.000 C 
BRANCH  34  35
ATOM     35  N   UNL     1       7.967   5.464  13.436  0.00  0.00    +0.000 NA
ATOM     36  H   UNL     1       8.875   5.923  13.381  0.00  0.00    +0.000 HD
ATOM     37  H   UNL     1       8.055   4.740  14.147  0.00  0.00    +0.000 HD
ENDBRANCH  34  35
ENDBRANCH  33  34
ENDBRANCH  32  33
ENDBRANCH  31  32
ENDBRANCH  22  31
ENDBRANCH  18  22
ENDBRANCH   1  20
BRANCH   1  38
ATOM     38  C   UNL     1       3.461   4.804  19.849  0.00  0.00    +0.000 C 
BRANCH  38  39
ATOM     39  C   UNL     1       2.616   3.658  20.419  0.00  0.00    +0.000 C 
BRANCH  39  40
ATOM     40  C   UNL     1       1.158   3.627  19.958  0.00  0.00    +0.000 C 
BRANCH  40  41
ATOM     41  C   UNL     1       0.894   2.521  18.940  0.00  0.00    +0.000 C 
BRANCH  41  42
ATOM     42  N   UNL     1       2.053   1.646  18.824  0.00  0.00    +0.000 NA
ATOM     43  H   UNL     1       2.059   1.201  17.908  0.00  0.00    +0.000 HD
ATOM     44  H   UNL     1       1.979   0.899  19.511  0.00  0.00    +0.000 HD
ENDBRANCH  41  42
ENDBRANCH  40  41
ENDBRANCH  39  40
ENDBRANCH  38  39
ENDBRANCH   1  38
TORSDOF 21
ENDMDL
MODEL 4
REMARK VINA RESULT:      -6.7      1.875      3.976
REMARK  Name = 
REMARK  23 active torsions:
REMARK  status: ('A' for Active; 'I' for Inactive)
REMARK    1  A    between atoms: C_1  and  C_2
REMARK    2  A    between atoms: C_2  and  C_3
REMARK    3  A    between atoms: C_2  and  C_4
REMARK    4  A    between atoms: C_4  and  C_5
REMARK    5  A    between atoms: N_7  and  C_8
REMARK    6  A    between atoms: C_8  and  C_9
REMARK    7  A    between atoms: C_8  and  C_14
REMARK    8  A    between atoms: C_9  and  C_10
REMARK    9  A    between atoms: C_10  and  C_11
REMARK   10  A    between atoms: C_11  and  C_12
REMARK   11  A    between atoms: C_12  and  N_13
REMARK   12  A    between atoms: N_16  and  C_17
REMARK   13  A    between atoms: C_17  and  C_18
REMARK   14  A    between atoms: C_17  and  C_23
REMARK   15  A    between atoms: C_18  and  C_19
REMARK   16  A    between atoms: C_19  and  C_20
REMARK   17  A    between atoms: C_20  and  C_21
REMARK   18  A    between atoms: C_21  and  N_22
REMARK   19  A    between atoms: N_25  and  C_26
REMARK   20  A    between atoms: C_26  and  C_27
REMARK   21  A    between atoms: C_27  and  C_28
REMARK   22  A    between atoms: C_28  and  C_29
REMARK   23  A    between atoms: C_29  and  N_30
REMARK                            x       y       z     vdW  Elec       q    Type
REMARK                         _______ _______ _______ _____ _____    ______ ____
ROOT
ATOM      1  C   UNL     1       6.686   5.391  17.479  0.00  0.00    +0.000 C 
ENDROOT
BRANCH   1   2
ATOM      2  C   UNL     1       7.603   6.324  18.307  0.00  0.00    +0.000 C 
ATOM      3  O   UNL     1       8.217   5.923  19.295  0.00  0.00    +0.000 OA
ATOM      4  N   UNL     1       7.678   7.638  17.901  0.00  0.00    +0.000 N 
ATOM      5  H   UNL     1       7.184   7.932  17.067  0.00  0.00    +0.000 HD
BRANCH   4   6
ATOM      6  C   UNL     1       8.611   8.552  18.517  0.00  0.00    +0.000 C 
BRANCH   6   7
ATOM      7  C   UNL     1       8.438   9.979  18.018  0.00  0.00    +0.000 C 
BRANCH   7   8
ATOM      8  C   UNL     1       9.678  10.843  18.278  0.00  0.00    +0.000 C 
BRANCH   8   9
ATOM      9  C   UNL     1       9.358  12.314  18.010  0.00  0.00    +0.000 C 
BRANCH   9  10
ATOM     10  N   UNL     1      10.237  12.859  16.999  0.00  0.00    +0.000 N 
ATOM     11  C   UNL     1      11.573  12.995  17.076  0.00  0.00    +0.000 C 
ATOM     12  N   UNL     1      12.333  12.823  18.091  0.00  0.00    +0.000 NA
ATOM     13  N   UNL     1      12.149  13.279  15.892  0.00  0.00    +0.000 N 
ATOM     14  H   UNL     1       9.801  13.154  16.135  0.00  0.00    +0.000 HD
ATOM     15  H   UNL     1      11.778  12.537  18.895  0.00  0.00    +0.000 HD
ATOM     16  H   UNL     1      11.889  14.186  15.533  0.00  0.00    +0.000 HD
ATOM     17  H   UNL     1      13.158  13.261  16.024  0.00  0.00    +0.000 HD
ENDBRANCH   9  10
ENDBRANCH   8   9
ENDBRANCH   7   8
ENDBRANCH   6   7
ENDBRANCH   4   6
ENDBRANCH   1   2
BRANCH   1  20
ATOM     18  C   UNL     1       4.859   4.984  19.108  0.00  0.00    +0.000 C 
ATOM     19  O   UNL     1       5.638   4.522  19.936  0.00  0.00    +0.000 OA
ATOM     20  N   UNL     1       5.281   5.465  17.886  0.00  0.00    +0.000 N 
ATOM     21  H   UNL     1       4.580   5.683  17.191  0.00  0.00    +0.000 HD
BRANCH  18  22
ATOM     22  C   UNL     1       3.327   5.079  19.377  0.00  0.00    +0.000 C 
BRANCH  22  25
ATOM     23  C   UNL     1       3.132   2.878  20.546  0.00  0.00    +0.000 C 
ATOM     24  O   UNL     1       3.302   2.304  21.610  0.00  0.00    +0.000 OA
ATOM     25  N   UNL     1       2.961   4.248  20.534  0.00  0.00    +0.000 N 
ATOM     26  H   UNL     1       2.920   4.678  21.451  0.00  0.00    +0.000 HD
BRANCH  23  27
ATOM     27  C   UNL     1       3.177   2.241  19.183  0.00  0.00    +0.000 C 
BRANCH  27  29
ATOM     28  C   UNL     1       0.670   2.548  19.213  0.00  0.00    +0.000 C 
ATOM     29  C   UNL     1       1.893   2.171  18.381  0.00  0.00    +0.000 C 
ATOM     30  C   UNL     1       2.104   3.136  17.205  0.00  0.00    +0.000 C 
ENDBRANCH  27  29
ENDBRANCH  23  27
ENDBRANCH  22  25
BRANCH  22  31
ATOM     31  C   UNL     1       2.816   6.507  19.556  0.00  0.00    +0.000 C 
BRANCH  31  32
ATOM     32  C   UNL     1       2.167   7.030  18.274  0.00  0.00    +0.000 C 
BRANCH  32  33
ATOM     33  C   UNL     1       2.703   8.393  17.859  0.00  0.00    +0.000 C 
BRANCH  33  34
ATOM     34  C   UNL     1       1.711   9.476  18.279  0.00  0.00    +0.000 C 
BRANCH  34  35
ATOM     35  N   UNL     1       1.991  10.721  17.580  0.00  0.00    +0.000 NA
ATOM     36  H   UNL     1       1.117  11.138  17.262  0.00  0.00    +0.000 HD
ATOM     37  H   UNL     1       2.531  10.514  16.740  0.00  0.00    +0.000 HD
ENDBRANCH  34  35
ENDBRANCH  33  34
ENDBRANCH  32  33
ENDBRANCH  31  32
ENDBRANCH  22  31
ENDBRANCH  18  22
ENDBRANCH   1  20
BRANCH   1  38
ATOM     38  C   UNL     1       6.770   5.682  15.971  0.00  0.00    +0.000 C 
BRANCH  38  39
ATOM     39  C   UNL     1       7.085   4.490  15.057  0.00  0.00    +0.000 C 
BRANCH  39  40
ATOM     40  C   UNL     1       5.972   4.100  14.083  0.00  0.00    +0.000 C 
BRANCH  40  41
ATOM     41  C   UNL     1       6.496   3.860  12.670  0.00  0.00    +0.000 C 
BRANCH  41  42
ATOM     42  N   UNL     1       6.049   2.565  12.173  0.00  0.00    +0.000 NA
ATOM     43  H   UNL     1       5.395   2.149  12.834  0.00  0.00    +0.000 HD
ATOM     44  H   UNL     1       6.847   1.935  12.115  0.00  0.00    +0.000 HD
ENDBRANCH  41  42
ENDBRANCH  40  41
ENDBRANCH  39  40
ENDBRANCH  38  39
ENDBRANCH   1  38
TORSDOF 21
ENDMDL
MODEL 5
REMARK VINA RESULT:      -6.6      3.867      7.956
REMARK  Name = 
REMARK  23 active torsions:
REMARK  status: ('A' for Active; 'I' for Inactive)
REMARK    1  A    between atoms: C_1  and  C_2
REMARK    2  A    between atoms: C_2  and  C_3
REMARK    3  A    between atoms: C_2  and  C_4
REMARK    4  A    between atoms: C_4  and  C_5
REMARK    5  A    between atoms: N_7  and  C_8
REMARK    6  A    between atoms: C_8  and  C_9
REMARK    7  A    between atoms: C_8  and  C_14
REMARK    8  A    between atoms: C_9  and  C_10
REMARK    9  A    between atoms: C_10  and  C_11
REMARK   10  A    between atoms: C_11  and  C_12
REMARK   11  A    between atoms: C_12  and  N_13
REMARK   12  A    between atoms: N_16  and  C_17
REMARK   13  A    between atoms: C_17  and  C_18
REMARK   14  A    between atoms: C_17  and  C_23
REMARK   15  A    between atoms: C_18  and  C_19
REMARK   16  A    between atoms: C_19  and  C_20
REMARK   17  A    between atoms: C_20  and  C_21
REMARK   18  A    between atoms: C_21  and  N_22
REMARK   19  A    between atoms: N_25  and  C_26
REMARK   20  A    between atoms: C_26  and  C_27
REMARK   21  A    between atoms: C_27  and  C_28
REMARK   22  A    between atoms: C_28  and  C_29
REMARK   23  A    between atoms: C_29  and  N_30
REMARK                            x       y       z     vdW  Elec       q    Type
REMARK                         _______ _______ _______ _____ _____    ______ ____
ROOT
ATOM      1  C   UNL     1       2.315   5.731  19.657  0.00  0.00    +0.000 C 
ENDROOT
BRANCH   1   2
ATOM      2  C   UNL     1       2.024   7.226  19.925  0.00  0.00    +0.000 C 
ATOM      3  O   UNL     1       2.213   8.090  19.069  0.00  0.00    +0.000 OA
ATOM      4  N   UNL     1       1.568   7.552  21.184  0.00  0.00    +0.000 N 
ATOM      5  H   UNL     1       1.395   6.817  21.858  0.00  0.00    +0.000 HD
BRANCH   4   6
ATOM      6  C   UNL     1       1.134   8.895  21.490  0.00  0.00    +0.000 C 
BRANCH   6   7
ATOM      7  C   UNL     1      -0.004   8.920  22.499  0.00  0.00    +0.000 C 
BRANCH   7   8
ATOM      8  C   UNL     1      -0.464  10.345  22.829  0.00  0.00    +0.000 C 
BRANCH   8   9
ATOM      9  C   UNL     1      -0.151  11.282  21.661  0.00  0.00    +0.000 C 
BRANCH   9  10
ATOM     10  N   UNL     1      -0.229  12.665  22.073  0.00  0.00    +0.000 N 
ATOM     11  C   UNL     1      -1.209  13.242  22.793  0.00  0.00    +0.000 C 
ATOM     12  N   UNL     1      -2.340  12.750  23.134  0.00  0.00    +0.000 NA
ATOM     13  N   UNL     1      -0.885  14.466  23.250  0.00  0.00    +0.000 N 
ATOM     14  H   UNL     1       0.544  13.259  21.805  0.00  0.00    +0.000 HD
ATOM     15  H   UNL     1      -2.421  11.795  22.789  0.00  0.00    +0.000 HD
ATOM     16  H   UNL     1      -0.769  15.146  22.512  0.00  0.00    +0.000 HD
ATOM     17  H   UNL     1      -1.635  14.779  23.862  0.00  0.00    +0.000 HD
ENDBRANCH   9  10
ENDBRANCH   8   9
ENDBRANCH   7   8
ENDBRANCH   6   7
ENDBRANCH   4   6
ENDBRANCH   1   2
BRANCH   1  20
ATOM     18  C   UNL     1       3.813   4.814  17.904  0.00  0.00    +0.000 C 
ATOM     19  O   UNL     1       2.864   4.408  17.241  0.00  0.00    +0.000 OA
ATOM     20  N   UNL     1       3.646   5.501  19.088  0.00  0.00    +0.000 N 
ATOM     21  H   UNL     1       4.460   5.668  19.663  0.00  0.00    +0.000 HD
BRANCH  18  22
ATOM     22  C   UNL     1       5.289   4.598  17.454  0.00  0.00    +0.000 C 
BRANCH  22  25
ATOM     23  C   UNL     1       7.113   5.249  19.034  0.00  0.00    +0.000 C 
ATOM     24  O   UNL     1       7.438   5.283  20.210  0.00  0.00    +0.000 OA
ATOM     25  N   UNL     1       6.147   4.352  18.623  0.00  0.00    +0.000 N 
ATOM     26  H   UNL     1       5.820   3.721  19.346  0.00  0.00    +0.000 HD
BRANCH  23  27
ATOM     27  C   UNL     1       7.607   6.174  17.955  0.00  0.00    +0.000 C 
BRANCH  27  29
ATOM     28  C   UNL     1       8.039   8.648  17.688  0.00  0.00    +0.000 C 
ATOM     29  C   UNL     1       6.989   7.554  17.854  0.00  0.00    +0.000 C 
ATOM     30  C   UNL     1       6.044   7.480  16.645  0.00  0.00    +0.000 C 
ENDBRANCH  27  29
ENDBRANCH  23  27
ENDBRANCH  22  25
BRANCH  22  31
ATOM     31  C   UNL     1       5.465   3.491  16.415  0.00  0.00    +0.000 C 
BRANCH  31  32
ATOM     32  C   UNL     1       6.507   3.876  15.364  0.00  0.00    +0.000 C 
BRANCH  32  33
ATOM     33  C   UNL     1       5.890   4.551  14.147  0.00  0.00    +0.000 C 
BRANCH  33  34
ATOM     34  C   UNL     1       6.627   4.096  12.888  0.00  0.00    +0.000 C 
BRANCH  34  35
ATOM     35  N   UNL     1       6.268   2.726  12.557  0.00  0.00    +0.000 NA
ATOM     36  H   UNL     1       6.833   2.407  11.771  0.00  0.00    +0.000 HD
ATOM     37  H   UNL     1       5.300   2.705  12.240  0.00  0.00    +0.000 HD
ENDBRANCH  34  35
ENDBRANCH  33  34
ENDBRANCH  32  33
ENDBRANCH  31  32
ENDBRANCH  22  31
ENDBRANCH  18  22
ENDBRANCH   1  20
BRANCH   1  38
ATOM     38  C   UNL     1       2.177   4.874  20.927  0.00  0.00    +0.000 C 
BRANCH  38  39
ATOM     39  C   UNL     1       1.178   3.711  20.867  0.00  0.00    +0.000 C 
BRANCH  39  40
ATOM     40  C   UNL     1       1.724   2.408  20.281  0.00  0.00    +0.000 C 
BRANCH  40  41
ATOM     41  C   UNL     1       1.153   2.110  18.897  0.00  0.00    +0.000 C 
BRANCH  41  42
ATOM     42  N   UNL     1       2.199   1.624  18.007  0.00  0.00    +0.000 NA
ATOM     43  H   UNL     1       2.039   0.641  17.791  0.00  0.00    +0.000 HD
ATOM     44  H   UNL     1       3.096   1.675  18.485  0.00  0.00    +0.000 HD
ENDBRANCH  41  42
ENDBRANCH  40  41
ENDBRANCH  39  40
ENDBRANCH  38  39
ENDBRANCH   1  38
TORSDOF 21
ENDMDL
MODEL 6
REMARK VINA RESULT:      -6.6      4.790      9.688
REMARK  Name = 
REMARK  23 active torsions:
REMARK  status: ('A' for Active; 'I' for Inactive)
REMARK    1  A    between atoms: C_1  and  C_2
REMARK    2  A    between atoms: C_2  and  C_3
REMARK    3  A    between atoms: C_2  and  C_4
REMARK    4  A    between atoms: C_4  and  C_5
REMARK    5  A    between atoms: N_7  and  C_8
REMARK    6  A    between atoms: C_8  and  C_9
REMARK    7  A    between atoms: C_8  and  C_14
REMARK    8  A    between atoms: C_9  and  C_10
REMARK    9  A    between atoms: C_10  and  C_11
REMARK   10  A    between atoms: C_11  and  C_12
REMARK   11  A    between atoms: C_12  and  N_13
REMARK   12  A    between atoms: N_16  and  C_17
REMARK   13  A    between atoms: C_17  and  C_18
REMARK   14  A    between atoms: C_17  and  C_23
REMARK   15  A    between atoms: C_18  and  C_19
REMARK   16  A    between atoms: C_19  and  C_20
REMARK   17  A    between atoms: C_20  and  C_21
REMARK   18  A    between atoms: C_21  and  N_22
REMARK   19  A    between atoms: N_25  and  C_26
REMARK   20  A    between atoms: C_26  and  C_27
REMARK   21  A    between atoms: C_27  and  C_28
REMARK   22  A    between atoms: C_28  and  C_29
REMARK   23  A    between atoms: C_29  and  N_30
REMARK                            x       y       z     vdW  Elec       q    Type
REMARK                         _______ _______ _______ _____ _____    ______ ____
ROOT
ATOM      1  C   UNL     1       1.618   9.711  19.076  0.00  0.00    +0.000 C 
ENDROOT
BRANCH   1   2
ATOM      2  C   UNL     1       0.090   9.936  18.971  0.00  0.00    +0.000 C 
ATOM      3  O   UNL     1      -0.659   9.776  19.934  0.00  0.00    +0.000 OA
ATOM      4  N   UNL     1      -0.399  10.298  17.735  0.00  0.00    +0.000 N 
ATOM      5  H   UNL     1       0.244  10.451  16.968  0.00  0.00    +0.000 HD
BRANCH   4   6
ATOM      6  C   UNL     1      -1.785  10.668  17.566  0.00  0.00    +0.000 C 
BRANCH   6   7
ATOM      7  C   UNL     1      -2.537   9.698  16.667  0.00  0.00    +0.000 C 
BRANCH   7   8
ATOM      8  C   UNL     1      -3.586  10.400  15.797  0.00  0.00    +0.000 C 
BRANCH   8   9
ATOM      9  C   UNL     1      -3.330  10.100  14.320  0.00  0.00    +0.000 C 
BRANCH   9  10
ATOM     10  N   UNL     1      -4.575   9.956  13.598  0.00  0.00    +0.000 N 
ATOM     11  C   UNL     1      -4.725   9.721  12.282  0.00  0.00    +0.000 C 
ATOM     12  N   UNL     1      -3.831   9.726  11.366  0.00  0.00    +0.000 NA
ATOM     13  N   UNL     1      -5.981   9.371  11.942  0.00  0.00    +0.000 N 
ATOM     14  H   UNL     1      -5.423  10.024  14.145  0.00  0.00    +0.000 HD
ATOM     15  H   UNL     1      -2.920   9.929  11.772  0.00  0.00    +0.000 HD
ATOM     16  H   UNL     1      -6.649  10.116  12.078  0.00  0.00    +0.000 HD
ATOM     17  H   UNL     1      -5.977   9.114  10.958  0.00  0.00    +0.000 HD
ENDBRANCH   9  10
ENDBRANCH   8   9
ENDBRANCH   7   8
ENDBRANCH   6   7
ENDBRANCH   4   6
ENDBRANCH   1   2
BRANCH   1  20
ATOM     18  C   UNL     1       2.231   7.351  19.537  0.00  0.00    +0.000 C 
ATOM     19  O   UNL     1       2.026   7.485  20.739  0.00  0.00    +0.000 OA
ATOM     20  N   UNL     1       2.030   8.377  18.635  0.00  0.00    +0.000 N 
ATOM     21  H   UNL     1       2.365   8.254  17.690  0.00  0.00    +0.000 HD
BRANCH  18  22
ATOM     22  C   UNL     1       2.724   6.005  18.926  0.00  0.00    +0.000 C 
BRANCH  22  25
ATOM     23  C   UNL     1       5.185   5.580  18.997  0.00  0.00    +0.000 C 
ATOM     24  O   UNL     1       6.190   5.690  19.683  0.00  0.00    +0.000 OA
ATOM     25  N   UNL     1       3.948   5.555  19.607  0.00  0.00    +0.000 N 
ATOM     26  H   UNL     1       3.974   5.561  20.620  0.00  0.00    +0.000 HD
BRANCH  23  27
ATOM     27  C   UNL     1       5.143   5.554  17.493  0.00  0.00    +0.000 C 
BRANCH  27  29
ATOM     28  C   UNL     1       5.343   4.272  15.327  0.00  0.00    +0.000 C 
ATOM     29  C   UNL     1       5.804   4.394  16.776  0.00  0.00    +0.000 C 
ATOM     30  C   UNL     1       7.311   4.670  16.876  0.00  0.00    +0.000 C 
ENDBRANCH  27  29
ENDBRANCH  23  27
ENDBRANCH  22  25
BRANCH  22  31
ATOM     31  C   UNL     1       1.669   4.900  18.929  0.00  0.00    +0.000 C 
BRANCH  31  32
ATOM     32  C   UNL     1       1.566   4.226  17.560  0.00  0.00    +0.000 C 
BRANCH  32  33
ATOM     33  C   UNL     1       2.456   2.996  17.443  0.00  0.00    +0.000 C 
BRANCH  33  34
ATOM     34  C   UNL     1       2.718   2.428  18.837  0.00  0.00    +0.000 C 
BRANCH  34  35
ATOM     35  N   UNL     1       4.133   2.138  19.010  0.00  0.00    +0.000 NA
ATOM     36  H   UNL     1       4.637   3.004  19.199  0.00  0.00    +0.000 HD
ATOM     37  H   UNL     1       4.505   1.776  18.134  0.00  0.00    +0.000 HD
ENDBRANCH  34  35
ENDBRANCH  33  34
ENDBRANCH  32  33
ENDBRANCH  31  32
ENDBRANCH  22  31
ENDBRANCH  18  22
ENDBRANCH   1  20
BRANCH   1  38
ATOM     38  C   UNL     1       2.416  10.754  18.274  0.00  0.00    +0.000 C 
BRANCH  38  39
ATOM     39  C   UNL     1       1.916  12.203  18.340  0.00  0.00    +0.000 C 
BRANCH  39  40
ATOM     40  C   UNL     1       2.452  13.028  19.511  0.00  0.00    +0.000 C 
BRANCH  40  41
ATOM     41  C   UNL     1       1.525  12.987  20.722  0.00  0.00    +0.000 C 
BRANCH  41  42
ATOM     42  N   UNL     1       0.307  13.742  20.459  0.00  0.00    +0.000 NA
ATOM     43  H   UNL     1       0.481  14.737  20.594  0.00  0.00    +0.000 HD
ATOM     44  H   UNL     1      -0.405  13.477  21.136  0.00  0.00    +0.000 HD
ENDBRANCH  41  42
ENDBRANCH  40  41
ENDBRANCH  39  40
ENDBRANCH  38  39
ENDBRANCH   1  38
TORSDOF 21
ENDMDL
MODEL 7
REMARK VINA RESULT:      -6.6      3.957      6.706
REMARK  Name = 
REMARK  23 active torsions:
REMARK  status: ('A' for Active; 'I' for Inactive)
REMARK    1  A    between atoms: C_1  and  C_2
REMARK    2  A    between atoms: C_2  and  C_3
REMARK    3  A    between atoms: C_2  and  C_4
REMARK    4  A    between atoms: C_4  and  C_5
REMARK    5  A    between atoms: N_7  and  C_8
REMARK    6  A    between atoms: C_8  and  C_9
REMARK    7  A    between atoms: C_8  and  C_14
REMARK    8  A    between atoms: C_9  and  C_10
REMARK    9  A    between atoms: C_10  and  C_11
REMARK   10  A    between atoms: C_11  and  C_12
REMARK   11  A    between atoms: C_12  and  N_13
REMARK   12  A    between atoms: N_16  and  C_17
REMARK   13  A    between atoms: C_17  and  C_18
REMARK   14  A    between atoms: C_17  and  C_23
REMARK   15  A    between atoms: C_18  and  C_19
REMARK   16  A    between atoms: C_19  and  C_20
REMARK   17  A    between atoms: C_20  and  C_21
REMARK   18  A    between atoms: C_21  and  N_22
REMARK   19  A    between atoms: N_25  and  C_26
REMARK   20  A    between atoms: C_26  and  C_27
REMARK   21  A    between atoms: C_27  and  C_28
REMARK   22  A    between atoms: C_28  and  C_29
REMARK   23  A    between atoms: C_29  and  N_30
REMARK                            x       y       z     vdW  Elec       q    Type
REMARK                         _______ _______ _______ _____ _____    ______ ____
ROOT
ATOM      1  C   UNL     1       2.462   6.454  19.677  0.00  0.00    +0.000 C 
ENDROOT
BRANCH   1   2
ATOM      2  C   UNL     1       2.758   5.655  18.386  0.00  0.00    +0.000 C 
ATOM      3  O   UNL     1       1.858   5.214  17.673  0.00  0.00    +0.000 OA
ATOM      4  N   UNL     1       4.084   5.436  18.084  0.00  0.00    +0.000 N 
ATOM      5  H   UNL     1       4.804   5.835  18.673  0.00  0.00    +0.000 HD
BRANCH   4   6
ATOM      6  C   UNL     1       4.469   4.826  16.833  0.00  0.00    +0.000 C 
BRANCH   6   7
ATOM      7  C   UNL     1       5.301   5.758  15.966  0.00  0.00    +0.000 C 
BRANCH   7   8
ATOM      8  C   UNL     1       6.704   5.994  16.540  0.00  0.00    +0.000 C 
BRANCH   8   9
ATOM      9  C   UNL     1       7.351   4.660  16.912  0.00  0.00    +0.000 C 
BRANCH   9  10
ATOM     10  N   UNL     1       7.716   4.634  18.310  0.00  0.00    +0.000 N 
ATOM     11  C   UNL     1       8.023   5.689  19.087  0.00  0.00    +0.000 C 
ATOM     12  N   UNL     1       8.209   6.906  18.738  0.00  0.00    +0.000 NA
ATOM     13  N   UNL     1       8.060   5.392  20.400  0.00  0.00    +0.000 N 
ATOM     14  H   UNL     1       7.726   3.726  18.756  0.00  0.00    +0.000 HD
ATOM     15  H   UNL     1       8.076   7.002  17.733  0.00  0.00    +0.000 HD
ATOM     16  H   UNL     1       8.807   4.757  20.641  0.00  0.00    +0.000 HD
ATOM     17  H   UNL     1       8.194   6.260  20.912  0.00  0.00    +0.000 HD
ENDBRANCH   9  10
ENDBRANCH   8   9
ENDBRANCH   7   8
ENDBRANCH   6   7
ENDBRANCH   4   6
ENDBRANCH   1   2
BRANCH   1  20
ATOM     18  C   UNL     1       2.026   8.607  18.523  0.00  0.00    +0.000 C 
ATOM     19  O   UNL     1       3.033   8.492  17.831  0.00  0.00    +0.000 OA
ATOM     20  N   UNL     1       1.645   7.646  19.437  0.00  0.00    +0.000 N 
ATOM     21  H   UNL     1       0.902   7.870  20.084  0.00  0.00    +0.000 HD
BRANCH  18  22
ATOM     22  C   UNL     1       1.087   9.845  18.417  0.00  0.00    +0.000 C 
BRANCH  22  25
ATOM     23  C   UNL     1       2.118  12.121  18.494  0.00  0.00    +0.000 C 
ATOM     24  O   UNL     1       3.087  12.781  18.152  0.00  0.00    +0.000 OA
ATOM     25  N   UNL     1       1.799  10.974  17.797  0.00  0.00    +0.000 N 
ATOM     26  H   UNL     1       2.376  10.798  16.981  0.00  0.00    +0.000 HD
BRANCH  23  27
ATOM     27  C   UNL     1       1.250  12.385  19.695  0.00  0.00    +0.000 C 
BRANCH  27  29
ATOM     28  C   UNL     1       1.107  14.900  19.871  0.00  0.00    +0.000 C 
ATOM     29  C   UNL     1       0.340  13.597  19.670  0.00  0.00    +0.000 C 
ATOM     30  C   UNL     1      -0.353  13.546  18.300  0.00  0.00    +0.000 C 
ENDBRANCH  27  29
ENDBRANCH  23  27
ENDBRANCH  22  25
BRANCH  22  31
ATOM     31  C   UNL     1      -0.224   9.568  17.684  0.00  0.00    +0.000 C 
BRANCH  31  32
ATOM     32  C   UNL     1      -1.425  10.090  18.475  0.00  0.00    +0.000 C 
BRANCH  32  33
ATOM     33  C   UNL     1      -2.701  10.130  17.645  0.00  0.00    +0.000 C 
BRANCH  33  34
ATOM     34  C   UNL     1      -2.474  11.000  16.410  0.00  0.00    +0.000 C 
BRANCH  34  35
ATOM     35  N   UNL     1      -2.993  10.340  15.222  0.00  0.00    +0.000 NA
ATOM     36  H   UNL     1      -2.563   9.421  15.128  0.00  0.00    +0.000 HD
ATOM     37  H   UNL     1      -2.713  10.872  14.400  0.00  0.00    +0.000 HD
ENDBRANCH  34  35
ENDBRANCH  33  34
ENDBRANCH  32  33
ENDBRANCH  31  32
ENDBRANCH  22  31
ENDBRANCH  18  22
ENDBRANCH   1  20
BRANCH   1  38
ATOM     38  C   UNL     1       1.764   5.596  20.746  0.00  0.00    +0.000 C 
BRANCH  38  39
ATOM     39  C   UNL     1       2.347   4.199  20.997  0.00  0.00    +0.000 C 
BRANCH  39  40
ATOM     40  C   UNL     1       1.329   3.057  21.007  0.00  0.00    +0.000 C 
BRANCH  40  41
ATOM     41  C   UNL     1       0.811   2.728  19.610  0.00  0.00    +0.000 C 
BRANCH  41  42
ATOM     42  N   UNL     1       1.728   1.826  18.925  0.00  0.00    +0.000 NA
ATOM     43  H   UNL     1       1.580   0.872  19.249  0.00  0.00    +0.000 HD
ATOM     44  H   UNL     1       2.685   2.072  19.170  0.00  0.00    +0.000 HD
ENDBRANCH  41  42
ENDBRANCH  40  41
ENDBRANCH  39  40
ENDBRANCH  38  39
ENDBRANCH   1  38
TORSDOF 21
ENDMDL
MODEL 8
REMARK VINA RESULT:      -6.6      4.578      7.917
REMARK  Name = 
REMARK  23 active torsions:
REMARK  status: ('A' for Active; 'I' for Inactive)
REMARK    1  A    between atoms: C_1  and  C_2
REMARK    2  A    between atoms: C_2  and  C_3
REMARK    3  A    between atoms: C_2  and  C_4
REMARK    4  A    between atoms: C_4  and  C_5
REMARK    5  A    between atoms: N_7  and  C_8
REMARK    6  A    between atoms: C_8  and  C_9
REMARK    7  A    between atoms: C_8  and  C_14
REMARK    8  A    between atoms: C_9  and  C_10
REMARK    9  A    between atoms: C_10  and  C_11
REMARK   10  A    between atoms: C_11  and  C_12
REMARK   11  A    between atoms: C_12  and  N_13
REMARK   12  A    between atoms: N_16  and  C_17
REMARK   13  A    between atoms: C_17  and  C_18
REMARK   14  A    between atoms: C_17  and  C_23
REMARK   15  A    between atoms: C_18  and  C_19
REMARK   16  A    between atoms: C_19  and  C_20
REMARK   17  A    between atoms: C_20  and  C_21
REMARK   18  A    between atoms: C_21  and  N_22
REMARK   19  A    between atoms: N_25  and  C_26
REMARK   20  A    between atoms: C_26  and  C_27
REMARK   21  A    between atoms: C_27  and  C_28
REMARK   22  A    between atoms: C_28  and  C_29
REMARK   23  A    between atoms: C_29  and  N_30
REMARK                            x       y       z     vdW  Elec       q    Type
REMARK                         _______ _______ _______ _____ _____    ______ ____
ROOT
ATOM      1  C   UNL     1       2.760   6.816  17.925  0.00  0.00    +0.000 C 
ENDROOT
BRANCH   1   2
ATOM      2  C   UNL     1       2.691   5.883  19.157  0.00  0.00    +0.000 C 
ATOM      3  O   UNL     1       3.651   5.731  19.913  0.00  0.00    +0.000 OA
ATOM      4  N   UNL     1       1.509   5.204  19.355  0.00  0.00    +0.000 N 
ATOM      5  H   UNL     1       0.727   5.371  18.734  0.00  0.00    +0.000 HD
BRANCH   4   6
ATOM      6  C   UNL     1       1.294   4.421  20.549  0.00  0.00    +0.000 C 
BRANCH   6   7
ATOM      7  C   UNL     1       1.112   2.942  20.246  0.00  0.00    +0.000 C 
BRANCH   7   8
ATOM      8  C   UNL     1       1.007   2.661  18.743  0.00  0.00    +0.000 C 
BRANCH   8   9
ATOM      9  C   UNL     1       2.377   2.281  18.182  0.00  0.00    +0.000 C 
BRANCH   9  10
ATOM     10  N   UNL     1       3.248   1.796  19.229  0.00  0.00    +0.000 N 
ATOM     11  C   UNL     1       4.441   2.302  19.589  0.00  0.00    +0.000 C 
ATOM     12  N   UNL     1       5.131   3.207  19.003  0.00  0.00    +0.000 NA
ATOM     13  N   UNL     1       4.896   1.816  20.760  0.00  0.00    +0.000 N 
ATOM     14  H   UNL     1       2.917   0.999  19.756  0.00  0.00    +0.000 HD
ATOM     15  H   UNL     1       4.636   3.540  18.178  0.00  0.00    +0.000 HD
ATOM     16  H   UNL     1       5.114   0.830  20.720  0.00  0.00    +0.000 HD
ATOM     17  H   UNL     1       5.742   2.325  21.002  0.00  0.00    +0.000 HD
ENDBRANCH   9  10
ENDBRANCH   8   9
ENDBRANCH   7   8
ENDBRANCH   6   7
ENDBRANCH   4   6
ENDBRANCH   1   2
BRANCH   1  20
ATOM     18  C   UNL     1       1.553   8.534  19.248  0.00  0.00    +0.000 C 
ATOM     19  O   UNL     1       2.059   8.146  20.297  0.00  0.00    +0.000 OA
ATOM     20  N   UNL     1       1.858   7.965  18.028  0.00  0.00    +0.000 N 
ATOM     21  H   UNL     1       1.294   8.220  17.229  0.00  0.00    +0.000 HD
BRANCH  18  22
ATOM     22  C   UNL     1       0.535   9.712  19.207  0.00  0.00    +0.000 C 
BRANCH  22  25
ATOM     23  C   UNL     1       0.864  11.693  20.694  0.00  0.00    +0.000 C 
ATOM     24  O   UNL     1       1.703  12.404  21.225  0.00  0.00    +0.000 OA
ATOM     25  N   UNL     1       1.201  10.974  19.566  0.00  0.00    +0.000 N 
ATOM     26  H   UNL     1       2.135  11.151  19.213  0.00  0.00    +0.000 HD
BRANCH  23  27
ATOM     27  C   UNL     1      -0.528  11.439  21.206  0.00  0.00    +0.000 C 
BRANCH  27  29
ATOM     28  C   UNL     1      -2.108  11.681  23.161  0.00  0.00    +0.000 C 
ATOM     29  C   UNL     1      -0.720  11.249  22.698  0.00  0.00    +0.000 C 
ATOM     30  C   UNL     1      -0.474   9.753  22.944  0.00  0.00    +0.000 C 
ENDBRANCH  27  29
ENDBRANCH  23  27
ENDBRANCH  22  25
BRANCH  22  31
ATOM     31  C   UNL     1      -0.198   9.851  17.874  0.00  0.00    +0.000 C 
BRANCH  31  32
ATOM     32  C   UNL     1      -1.707   9.988  18.081  0.00  0.00    +0.000 C 
BRANCH  32  33
ATOM     33  C   UNL     1      -2.253  11.313  17.568  0.00  0.00    +0.000 C 
BRANCH  33  34
ATOM     34  C   UNL     1      -3.368  11.044  16.559  0.00  0.00    +0.000 C 
BRANCH  34  35
ATOM     35  N   UNL     1      -4.434  12.022  16.708  0.00  0.00    +0.000 NA
ATOM     36  H   UNL     1      -5.186  11.622  17.268  0.00  0.00    +0.000 HD
ATOM     37  H   UNL     1      -4.834  12.218  15.791  0.00  0.00    +0.000 HD
ENDBRANCH  34  35
ENDBRANCH  33  34
ENDBRANCH  32  33
ENDBRANCH  31  32
ENDBRANCH  22  31
ENDBRANCH  18  22
ENDBRANCH   1  20
BRANCH   1  38
ATOM     38  C   UNL     1       4.184   7.339  17.669  0.00  0.00    +0.000 C 
BRANCH  38  39
ATOM     39  C   UNL     1       5.227   6.307  17.224  0.00  0.00    +0.000 C 
BRANCH  39  40
ATOM     40  C   UNL     1       5.269   6.025  15.720  0.00  0.00    +0.000 C 
BRANCH  40  41
ATOM     41  C   UNL     1       6.358   5.023  15.348  0.00  0.00    +0.000 C 
BRANCH  41  42
ATOM     42  N   UNL     1       6.559   4.062  16.424  0.00  0.00    +0.000 NA
ATOM     43  H   UNL     1       6.462   4.528  17.325  0.00  0.00    +0.000 HD
ATOM     44  H   UNL     1       7.512   3.705  16.381  0.00  0.00    +0.000 HD
ENDBRANCH  41  42
ENDBRANCH  40  41
ENDBRANCH  39  40
ENDBRANCH  38  39
ENDBRANCH   1  38
TORSDOF 21
ENDMDL
MODEL 9
REMARK VINA RESULT:      -6.6      1.748      4.305
REMARK  Name = 
REMARK  23 active torsions:
REMARK  status: ('A' for Active; 'I' for Inactive)
REMARK    1  A    between atoms: C_1  and  C_2
REMARK    2  A    between atoms: C_2  and  C_3
REMARK    3  A    between atoms: C_2  and  C_4
REMARK    4  A    between atoms: C_4  and  C_5
REMARK    5  A    between atoms: N_7  and  C_8
REMARK    6  A    between atoms: C_8  and  C_9
REMARK    7  A    between atoms: C_8  and  C_14
REMARK    8  A    between atoms: C_9  and  C_10
REMARK    9  A    between atoms: C_10  and  C_11
REMARK   10  A    between atoms: C_11  and  C_12
REMARK   11  A    between atoms: C_12  and  N_13
REMARK   12  A    between atoms: N_16  and  C_17
REMARK   13  A    between atoms: C_17  and  C_18
REMARK   14  A    between atoms: C_17  and  C_23
REMARK   15  A    between atoms: C_18  and  C_19
REMARK   16  A    between atoms: C_19  and  C_20
REMARK   17  A    between atoms: C_20  and  C_21
REMARK   18  A    between atoms: C_21  and  N_22
REMARK   19  A    between atoms: N_25  and  C_26
REMARK   20  A    between atoms: C_26  and  C_27
REMARK   21  A    between atoms: C_27  and  C_28
REMARK   22  A    between atoms: C_28  and  C_29
REMARK   23  A    between atoms: C_29  and  N_30
REMARK                            x       y       z     vdW  Elec       q    Type
REMARK                         _______ _______ _______ _____ _____    ______ ____
ROOT
ATOM      1  C   UNL     1       5.521   4.791  18.228  0.00  0.00    +0.000 C 
ENDROOT
BRANCH   1   2
ATOM      2  C   UNL     1       6.722   5.610  18.756  0.00  0.00    +0.000 C 
ATOM      3  O   UNL     1       7.335   5.284  19.773  0.00  0.00    +0.000 OA
ATOM      4  N   UNL     1       7.059   6.741  18.047  0.00  0.00    +0.000 N 
ATOM      5  H   UNL     1       6.556   6.968  17.199  0.00  0.00    +0.000 HD
BRANCH   4   6
ATOM      6  C   UNL     1       8.248   7.494  18.374  0.00  0.00    +0.000 C 
BRANCH   6   7
ATOM      7  C   UNL     1       8.153   8.946  17.933  0.00  0.00    +0.000 C 
BRANCH   7   8
ATOM      8  C   UNL     1       8.977   9.884  18.824  0.00  0.00    +0.000 C 
BRANCH   8   9
ATOM      9  C   UNL     1       9.132  11.248  18.151  0.00  0.00    +0.000 C 
BRANCH   9  10
ATOM     10  N   UNL     1      10.122  12.052  18.832  0.00  0.00    +0.000 N 
ATOM     11  C   UNL     1      11.399  12.251  18.459  0.00  0.00    +0.000 C 
ATOM     12  N   UNL     1      12.056  11.668  17.528  0.00  0.00    +0.000 NA
ATOM     13  N   UNL     1      12.001  13.250  19.132  0.00  0.00    +0.000 N 
ATOM     14  H   UNL     1       9.816  12.527  19.671  0.00  0.00    +0.000 HD
ATOM     15  H   UNL     1      11.459  10.994  17.053  0.00  0.00    +0.000 HD
ATOM     16  H   UNL     1      12.122  13.049  20.114  0.00  0.00    +0.000 HD
ATOM     17  H   UNL     1      12.918  13.397  18.716  0.00  0.00    +0.000 HD
ENDBRANCH   9  10
ENDBRANCH   8   9
ENDBRANCH   7   8
ENDBRANCH   6   7
ENDBRANCH   4   6
ENDBRANCH   1   2
BRANCH   1  20
ATOM     18  C   UNL     1       3.564   6.194  18.830  0.00  0.00    +0.000 C 
ATOM     19  O   UNL     1       3.877   7.058  18.018  0.00  0.00    +0.000 OA
ATOM     20  N   UNL     1       4.290   5.030  18.985  0.00  0.00    +0.000 N 
ATOM     21  H   UNL     1       4.075   4.436  19.774  0.00  0.00    +0.000 HD
BRANCH  18  22
ATOM     22  C   UNL     1       2.310   6.332  19.744  0.00  0.00    +0.000 C 
BRANCH  22  25
ATOM     23  C   UNL     1       1.984   4.268  21.115  0.00  0.00    +0.000 C 
ATOM     24  O   UNL     1       2.536   3.486  21.874  0.00  0.00    +0.000 OA
ATOM     25  N   UNL     1       2.488   5.545  20.975  0.00  0.00    +0.000 N 
ATOM     26  H   UNL     1       3.265   5.765  21.587  0.00  0.00    +0.000 HD
BRANCH  23  27
ATOM     27  C   UNL     1       0.821   3.951  20.215  0.00  0.00    +0.000 C 
BRANCH  27  29
ATOM     28  C   UNL     1       1.314   3.739  17.747  0.00  0.00    +0.000 C 
ATOM     29  C   UNL     1       1.048   3.001  19.056  0.00  0.00    +0.000 C 
ATOM     30  C   UNL     1       2.244   2.136  19.478  0.00  0.00    +0.000 C 
ENDBRANCH  27  29
ENDBRANCH  23  27
ENDBRANCH  22  25
BRANCH  22  31
ATOM     31  C   UNL     1       1.942   7.777  20.078  0.00  0.00    +0.000 C 
BRANCH  31  32
ATOM     32  C   UNL     1       0.937   7.843  21.228  0.00  0.00    +0.000 C 
BRANCH  32  33
ATOM     33  C   UNL     1       1.208   9.002  22.178  0.00  0.00    +0.000 C 
BRANCH  33  34
ATOM     34  C   UNL     1       0.047   9.993  22.111  0.00  0.00    +0.000 C 
BRANCH  34  35
ATOM     35  N   UNL     1      -0.479  10.068  20.757  0.00  0.00    +0.000 NA
ATOM     36  H   UNL     1      -1.242   9.401  20.651  0.00  0.00    +0.000 HD
ATOM     37  H   UNL     1       0.247   9.777  20.104  0.00  0.00    +0.000 HD
ENDBRANCH  34  35
ENDBRANCH  33  34
ENDBRANCH  32  33
ENDBRANCH  31  32
ENDBRANCH  22  31
ENDBRANCH  18  22
ENDBRANCH   1  20
BRANCH   1  38
ATOM     38  C   UNL     1       5.236   5.067  16.742  0.00  0.00    +0.000 C 
BRANCH  38  39
ATOM     39  C   UNL     1       6.279   4.562  15.736  0.00  0.00    +0.000 C 
BRANCH  39  40
ATOM     40  C   UNL     1       5.744   3.620  14.656  0.00  0.00    +0.000 C 
BRANCH  40  41
ATOM     41  C   UNL     1       6.418   3.843  13.305  0.00  0.00    +0.000 C 
BRANCH  41  42
ATOM     42  N   UNL     1       5.555   3.391  12.222  0.00  0.00    +0.000 NA
ATOM     43  H   UNL     1       5.227   2.446  12.413  0.00  0.00    +0.000 HD
ATOM     44  H   UNL     1       6.096   3.343  11.361  0.00  0.00    +0.000 HD
ENDBRANCH  41  42
ENDBRANCH  40  41
ENDBRANCH  39  40
ENDBRANCH  38  39
ENDBRANCH   1  38
TORSDOF 21
ENDMDL
