MODEL 1
REMARK VINA RESULT:      -7.3      0.000      0.000
REMARK  Name = 
REMARK  3 active torsions:
REMARK  status: ('A' for Active; 'I' for Inactive)
REMARK    1  A    between atoms: C_1  and  N_2
REMARK    2  A    between atoms: N_7  and  C_8
REMARK    3  A    between atoms: N_16  and  C_17
REMARK                            x       y       z     vdW  Elec       q    Type
REMARK                         _______ _______ _______ _____ _____    ______ ____
ROOT
ATOM      1  C   UNL     1       1.923   7.060  20.012  0.00  0.00    +0.000 C 
ATOM      2  N   UNL     1       2.908   6.291  19.276  0.00  0.00    +0.000 N 
ATOM      3  C   UNL     1       3.475   6.879  18.141  0.00  0.00    +0.000 A 
ATOM      4  O   UNL     1       3.260   8.026  17.762  0.00  0.00    +0.000 OA
ATOM      5  C   UNL     1       4.337   5.984  17.419  0.00  0.00    +0.000 A 
ATOM      6  C   UNL     1       5.003   6.161  16.225  0.00  0.00    +0.000 A 
ATOM      7  N   UNL     1       5.566   4.951  15.855  0.00  0.00    +0.000 N 
ATOM      8  C   UNL     1       5.417   4.089  16.934  0.00  0.00    +0.000 A 
ATOM      9  C   UNL     1       4.613   4.696  17.869  0.00  0.00    +0.000 A 
ATOM     10  N   UNL     1       4.098   4.214  19.058  0.00  0.00    +0.000 N 
ATOM     11  C   UNL     1       4.385   2.889  19.576  0.00  0.00    +0.000 C 
ATOM     12  C   UNL     1       3.199   5.010  19.784  0.00  0.00    +0.000 A 
ATOM     13  O   UNL     1       2.677   4.598  20.826  0.00  0.00    +0.000 OA
ENDROOT
BRANCH   7  14
ATOM     14  C   UNL     1       6.123   4.626  14.580  0.00  0.00    +0.000 A 
ATOM     15  C   UNL     1       7.268   5.287  14.109  0.00  0.00    +0.000 A 
ATOM     16  C   UNL     1       7.755   5.030  12.824  0.00  0.00    +0.000 A 
ATOM     17  C   UNL     1       7.110   4.114  11.998  0.00  0.00    +0.000 A 
ATOM     18  C   UNL     1       5.983   3.442  12.460  0.00  0.00    +0.000 A 
ATOM     19  C   UNL     1       5.492   3.691  13.744  0.00  0.00    +0.000 A 
ENDBRANCH   7  14
TORSDOF 1
ENDMDL
MODEL 2
REMARK VINA RESULT:      -7.2      0.322      1.151
REMARK  Name = 
REMARK  3 active torsions:
REMARK  status: ('A' for Active; 'I' for Inactive)
REMARK    1  A    between atoms: C_1  and  N_2
REMARK    2  A    between atoms: N_7  and  C_8
REMARK    3  A    between atoms: N_16  and  C_17
REMARK                            x       y       z     vdW  Elec       q    Type
REMARK                         _______ _______ _______ _____ _____    ______ ____
ROOT
ATOM      1  C   UNL     1       1.989   6.818  20.037  0.00  0.00    +0.000 C 
ATOM      2  N   UNL     1       2.904   6.039  19.227  0.00  0.00    +0.000 N 
ATOM      3  C   UNL     1       3.514   6.676  18.141  0.00  0.00    +0.000 A 
ATOM      4  O   UNL     1       3.394   7.866  17.866  0.00  0.00    +0.000 OA
ATOM      5  C   UNL     1       4.297   5.781  17.334  0.00  0.00    +0.000 A 
ATOM      6  C   UNL     1       4.971   6.007  16.154  0.00  0.00    +0.000 A 
ATOM      7  N   UNL     1       5.431   4.793  15.673  0.00  0.00    +0.000 N 
ATOM      8  C   UNL     1       5.215   3.854  16.674  0.00  0.00    +0.000 A 
ATOM      9  C   UNL     1       4.467   4.440  17.667  0.00  0.00    +0.000 A 
ATOM     10  N   UNL     1       3.918   3.899  18.814  0.00  0.00    +0.000 N 
ATOM     11  C   UNL     1       4.096   2.515  19.211  0.00  0.00    +0.000 C 
ATOM     12  C   UNL     1       3.090   4.699  19.617  0.00  0.00    +0.000 A 
ATOM     13  O   UNL     1       2.540   4.241  20.625  0.00  0.00    +0.000 OA
ENDROOT
BRANCH   7  14
ATOM     14  C   UNL     1       5.954   4.537  14.368  0.00  0.00    +0.000 A 
ATOM     15  C   UNL     1       5.316   3.631  13.507  0.00  0.00    +0.000 A 
ATOM     16  C   UNL     1       5.881   3.315  12.268  0.00  0.00    +0.000 A 
ATOM     17  C   UNL     1       7.083   3.898  11.874  0.00  0.00    +0.000 A 
ATOM     18  C   UNL     1       7.717   4.808  12.714  0.00  0.00    +0.000 A 
ATOM     19  C   UNL     1       7.156   5.131  13.953  0.00  0.00    +0.000 A 
ENDBRANCH   7  14
TORSDOF 1
ENDMDL
MODEL 3
REMARK VINA RESULT:      -6.7      3.276      7.469
REMARK  Name = 
REMARK  3 active torsions:
REMARK  status: ('A' for Active; 'I' for Inactive)
REMARK    1  A    between atoms: C_1  and  N_2
REMARK    2  A    between atoms: N_7  and  C_8
REMARK    3  A    between atoms: N_16  and  C_17
REMARK                            x       y       z     vdW  Elec       q    Type
REMARK                         _______ _______ _______ _____ _____    ______ ____
ROOT
ATOM      1  C   UNL     1       2.680   1.794  18.857  0.00  0.00    +0.000 C 
ATOM      2  N   UNL     1       2.765   3.234  19.005  0.00  0.00    +0.000 N 
ATOM      3  C   UNL     1       2.087   3.817  20.080  0.00  0.00    +0.000 A 
ATOM      4  O   UNL     1       1.488   3.198  20.953  0.00  0.00    +0.000 OA
ATOM      5  C   UNL     1       2.132   5.253  20.057  0.00  0.00    +0.000 A 
ATOM      6  C   UNL     1       1.524   6.175  20.881  0.00  0.00    +0.000 A 
ATOM      7  N   UNL     1       1.728   7.438  20.351  0.00  0.00    +0.000 N 
ATOM      8  C   UNL     1       2.641   7.298  19.313  0.00  0.00    +0.000 A 
ATOM      9  C   UNL     1       2.844   5.957  19.090  0.00  0.00    +0.000 A 
ATOM     10  N   UNL     1       3.580   5.311  18.113  0.00  0.00    +0.000 N 
ATOM     11  C   UNL     1       4.359   6.008  17.107  0.00  0.00    +0.000 C 
ATOM     12  C   UNL     1       3.532   3.911  18.038  0.00  0.00    +0.000 A 
ATOM     13  O   UNL     1       4.135   3.297  17.151  0.00  0.00    +0.000 OA
ENDROOT
BRANCH   7  14
ATOM     14  C   UNL     1       1.067   8.643  20.742  0.00  0.00    +0.000 A 
ATOM     15  C   UNL     1       0.709   8.860  22.082  0.00  0.00    +0.000 A 
ATOM     16  C   UNL     1      -0.017   9.998  22.444  0.00  0.00    +0.000 A 
ATOM     17  C   UNL     1      -0.392  10.930  21.479  0.00  0.00    +0.000 A 
ATOM     18  C   UNL     1      -0.030  10.732  20.151  0.00  0.00    +0.000 A 
ATOM     19  C   UNL     1       0.699   9.598  19.782  0.00  0.00    +0.000 A 
ENDBRANCH   7  14
TORSDOF 1
ENDMDL
MODEL 4
REMARK VINA RESULT:      -6.7      4.841      6.511
REMARK  Name = 
REMARK  3 active torsions:
REMARK  status: ('A' for Active; 'I' for Inactive)
REMARK    1  A    between atoms: C_1  and  N_2
REMARK    2  A    between atoms: N_7  and  C_8
REMARK    3  A    between atoms: N_16  and  C_17
REMARK                            x       y       z     vdW  Elec       q    Type
REMARK                         _______ _______ _______ _____ _____    ______ ____
ROOT
ATOM      1  C   UNL     1       0.966  12.133  18.828  0.00  0.00    +0.000 C 
ATOM      2  N   UNL     1       1.187  10.838  19.441  0.00  0.00    +0.000 N 
ATOM      3  C   UNL     1       1.715   9.822  18.637  0.00  0.00    +0.000 A 
ATOM      4  O   UNL     1       2.077   9.962  17.473  0.00  0.00    +0.000 OA
ATOM      5  C   UNL     1       1.771   8.552  19.307  0.00  0.00    +0.000 A 
ATOM      6  C   UNL     1       2.144   7.312  18.833  0.00  0.00    +0.000 A 
ATOM      7  N   UNL     1       1.865   6.369  19.808  0.00  0.00    +0.000 N 
ATOM      8  C   UNL     1       1.516   7.067  20.957  0.00  0.00    +0.000 A 
ATOM      9  C   UNL     1       1.399   8.398  20.639  0.00  0.00    +0.000 A 
ATOM     10  N   UNL     1       0.982   9.471  21.407  0.00  0.00    +0.000 N 
ATOM     11  C   UNL     1       0.614   9.358  22.805  0.00  0.00    +0.000 C 
ATOM     12  C   UNL     1       0.843  10.729  20.801  0.00  0.00    +0.000 A 
ATOM     13  O   UNL     1       0.428  11.703  21.439  0.00  0.00    +0.000 OA
ENDROOT
BRANCH   7  14
ATOM     14  C   UNL     1       1.860   4.949  19.643  0.00  0.00    +0.000 A 
ATOM     15  C   UNL     1       1.917   4.378  18.362  0.00  0.00    +0.000 A 
ATOM     16  C   UNL     1       1.820   2.993  18.200  0.00  0.00    +0.000 A 
ATOM     17  C   UNL     1       1.666   2.165  19.309  0.00  0.00    +0.000 A 
ATOM     18  C   UNL     1       1.622   2.719  20.584  0.00  0.00    +0.000 A 
ATOM     19  C   UNL     1       1.722   4.103  20.753  0.00  0.00    +0.000 A 
ENDBRANCH   7  14
TORSDOF 1
ENDMDL
MODEL 5
REMARK VINA RESULT:      -6.7      3.074      7.385
REMARK  Name = 
REMARK  3 active torsions:
REMARK  status: ('A' for Active; 'I' for Inactive)
REMARK    1  A    between atoms: C_1  and  N_2
REMARK    2  A    between atoms: N_7  and  C_8
REMARK    3  A    between atoms: N_16  and  C_17
REMARK                            x       y       z     vdW  Elec       q    Type
REMARK                         _______ _______ _______ _____ _____    ______ ____
ROOT
ATOM      1  C   UNL     1       5.430   4.066  17.777  0.00  0.00    +0.000 C 
ATOM      2  N   UNL     1       4.322   4.615  18.534  0.00  0.00    +0.000 N 
ATOM      3  C   UNL     1       3.891   5.906  18.210  0.00  0.00    +0.000 A 
ATOM      4  O   UNL     1       4.329   6.581  17.284  0.00  0.00    +0.000 OA
ATOM      5  C   UNL     1       2.879   6.398  19.103  0.00  0.00    +0.000 A 
ATOM      6  C   UNL     1       2.272   7.634  19.164  0.00  0.00    +0.000 A 
ATOM      7  N   UNL     1       1.487   7.681  20.304  0.00  0.00    +0.000 N 
ATOM      8  C   UNL     1       1.456   6.393  20.825  0.00  0.00    +0.000 A 
ATOM      9  C   UNL     1       2.353   5.620  20.129  0.00  0.00    +0.000 A 
ATOM     10  N   UNL     1       2.753   4.311  20.329  0.00  0.00    +0.000 N 
ATOM     11  C   UNL     1       2.208   3.457  21.368  0.00  0.00    +0.000 C 
ATOM     12  C   UNL     1       3.782   3.784  19.534  0.00  0.00    +0.000 A 
ATOM     13  O   UNL     1       4.203   2.635  19.711  0.00  0.00    +0.000 OA
ENDROOT
BRANCH   7  14
ATOM     14  C   UNL     1       0.891   8.844  20.881  0.00  0.00    +0.000 A 
ATOM     15  C   UNL     1       0.570   8.882  22.246  0.00  0.00    +0.000 A 
ATOM     16  C   UNL     1      -0.096   9.986  22.787  0.00  0.00    +0.000 A 
ATOM     17  C   UNL     1      -0.446  11.062  21.975  0.00  0.00    +0.000 A 
ATOM     18  C   UNL     1      -0.120  11.042  20.623  0.00  0.00    +0.000 A 
ATOM     19  C   UNL     1       0.548   9.942  20.077  0.00  0.00    +0.000 A 
ENDBRANCH   7  14
TORSDOF 1
ENDMDL
MODEL 6
REMARK VINA RESULT:      -6.6      2.676      6.849
REMARK  Name = 
REMARK  3 active torsions:
REMARK  status: ('A' for Active; 'I' for Inactive)
REMARK    1  A    between atoms: C_1  and  N_2
REMARK    2  A    between atoms: N_7  and  C_8
REMARK    3  A    between atoms: N_16  and  C_17
REMARK                            x       y       z     vdW  Elec       q    Type
REMARK                         _______ _______ _______ _____ _____    ______ ____
ROOT
ATOM      1  C   UNL     1       3.676   1.859  18.065  0.00  0.00    +0.000 C 
ATOM      2  N   UNL     1       3.648   3.307  18.122  0.00  0.00    +0.000 N 
ATOM      3  C   UNL     1       2.889   3.902  19.136  0.00  0.00    +0.000 A 
ATOM      4  O   UNL     1       2.307   3.293  20.028  0.00  0.00    +0.000 OA
ATOM      5  C   UNL     1       2.827   5.333  19.022  0.00  0.00    +0.000 A 
ATOM      6  C   UNL     1       2.122   6.254  19.766  0.00  0.00    +0.000 A 
ATOM      7  N   UNL     1       2.250   7.495  19.162  0.00  0.00    +0.000 N 
ATOM      8  C   UNL     1       3.208   7.361  18.165  0.00  0.00    +0.000 A 
ATOM      9  C   UNL     1       3.519   6.029  18.035  0.00  0.00    +0.000 A 
ATOM     10  N   UNL     1       4.336   5.383  17.125  0.00  0.00    +0.000 N 
ATOM     11  C   UNL     1       5.096   6.074  16.101  0.00  0.00    +0.000 C 
ATOM     12  C   UNL     1       4.396   3.981  17.138  0.00  0.00    +0.000 A 
ATOM     13  O   UNL     1       5.075   3.362  16.311  0.00  0.00    +0.000 OA
ENDROOT
BRANCH   7  14
ATOM     14  C   UNL     1       1.487   8.667  19.454  0.00  0.00    +0.000 A 
ATOM     15  C   UNL     1       1.001   8.899  20.750  0.00  0.00    +0.000 A 
ATOM     16  C   UNL     1       0.179   9.999  21.010  0.00  0.00    +0.000 A 
ATOM     17  C   UNL     1      -0.164  10.879  19.986  0.00  0.00    +0.000 A 
ATOM     18  C   UNL     1       0.324  10.666  18.701  0.00  0.00    +0.000 A 
ATOM     19  C   UNL     1       1.149   9.569  18.435  0.00  0.00    +0.000 A 
ENDBRANCH   7  14
TORSDOF 1
ENDMDL
MODEL 7
REMARK VINA RESULT:      -6.6      3.223      7.424
REMARK  Name = 
REMARK  3 active torsions:
REMARK  status: ('A' for Active; 'I' for Inactive)
REMARK    1  A    between atoms: C_1  and  N_2
REMARK    2  A    between atoms: N_7  and  C_8
REMARK    3  A    between atoms: N_16  and  C_17
REMARK                            x       y       z     vdW  Elec       q    Type
REMARK                         _______ _______ _______ _____ _____    ______ ____
ROOT
ATOM      1  C   UNL     1       2.933   1.829  18.823  0.00  0.00    +0.000 C 
ATOM      2  N   UNL     1       2.957   3.272  18.961  0.00  0.00    +0.000 N 
ATOM      3  C   UNL     1       2.263   3.833  20.037  0.00  0.00    +0.000 A 
ATOM      4  O   UNL     1       1.697   3.195  20.919  0.00  0.00    +0.000 OA
ATOM      5  C   UNL     1       2.246   5.270  20.004  0.00  0.00    +0.000 A 
ATOM      6  C   UNL     1       1.605   6.171  20.827  0.00  0.00    +0.000 A 
ATOM      7  N   UNL     1       1.752   7.438  20.286  0.00  0.00    +0.000 N 
ATOM      8  C   UNL     1       2.662   7.329  19.242  0.00  0.00    +0.000 A 
ATOM      9  C   UNL     1       2.920   5.997  19.027  0.00  0.00    +0.000 A 
ATOM     10  N   UNL     1       3.675   5.377  18.049  0.00  0.00    +0.000 N 
ATOM     11  C   UNL     1       4.416   6.098  17.031  0.00  0.00    +0.000 C 
ATOM     12  C   UNL     1       3.687   3.974  17.983  0.00  0.00    +0.000 A 
ATOM     13  O   UNL     1       4.309   3.381  17.095  0.00  0.00    +0.000 OA
ENDROOT
BRANCH   7  14
ATOM     14  C   UNL     1       1.043   8.616  20.675  0.00  0.00    +0.000 A 
ATOM     15  C   UNL     1       0.774   9.629  19.741  0.00  0.00    +0.000 A 
ATOM     16  C   UNL     1       0.161  10.819  20.146  0.00  0.00    +0.000 A 
ATOM     17  C   UNL     1      -0.192  11.010  21.479  0.00  0.00    +0.000 A 
ATOM     18  C   UNL     1       0.057  10.007  22.410  0.00  0.00    +0.000 A 
ATOM     19  C   UNL     1       0.667   8.814  22.012  0.00  0.00    +0.000 A 
ENDBRANCH   7  14
TORSDOF 1
ENDMDL
MODEL 8
REMARK VINA RESULT:      -6.6      2.771      7.149
REMARK  Name = 
REMARK  3 active torsions:
REMARK  status: ('A' for Active; 'I' for Inactive)
REMARK    1  A    between atoms: C_1  and  N_2
REMARK    2  A    between atoms: N_7  and  C_8
REMARK    3  A    between atoms: N_16  and  C_17
REMARK                            x       y       z     vdW  Elec       q    Type
REMARK                         _______ _______ _______ _____ _____    ______ ____
ROOT
ATOM      1  C   UNL     1       5.882   4.381  17.302  0.00  0.00    +0.000 C 
ATOM      2  N   UNL     1       4.752   4.827  18.093  0.00  0.00    +0.000 N 
ATOM      3  C   UNL     1       4.202   6.077  17.793  0.00  0.00    +0.000 A 
ATOM      4  O   UNL     1       4.553   6.794  16.861  0.00  0.00    +0.000 OA
ATOM      5  C   UNL     1       3.176   6.473  18.717  0.00  0.00    +0.000 A 
ATOM      6  C   UNL     1       2.466   7.651  18.806  0.00  0.00    +0.000 A 
ATOM      7  N   UNL     1       1.713   7.622  19.968  0.00  0.00    +0.000 N 
ATOM      8  C   UNL     1       1.808   6.333  20.478  0.00  0.00    +0.000 A 
ATOM      9  C   UNL     1       2.749   5.645  19.751  0.00  0.00    +0.000 A 
ATOM     10  N   UNL     1       3.267   4.375  19.928  0.00  0.00    +0.000 N 
ATOM     11  C   UNL     1       2.829   3.470  20.974  0.00  0.00    +0.000 C 
ATOM     12  C   UNL     1       4.316   3.945  19.100  0.00  0.00    +0.000 A 
ATOM     13  O   UNL     1       4.840   2.836  19.256  0.00  0.00    +0.000 OA
ENDROOT
BRANCH   7  14
ATOM     14  C   UNL     1       1.034   8.725  20.571  0.00  0.00    +0.000 A 
ATOM     15  C   UNL     1       0.798   9.903  19.846  0.00  0.00    +0.000 A 
ATOM     16  C   UNL     1       0.215  11.011  20.467  0.00  0.00    +0.000 A 
ATOM     17  C   UNL     1      -0.140  10.957  21.812  0.00  0.00    +0.000 A 
ATOM     18  C   UNL     1       0.076   9.790  22.537  0.00  0.00    +0.000 A 
ATOM     19  C   UNL     1       0.655   8.677  21.922  0.00  0.00    +0.000 A 
ENDBRANCH   7  14
TORSDOF 1
ENDMDL
MODEL 9
REMARK VINA RESULT:      -6.6      2.615      6.696
REMARK  Name = 
REMARK  3 active torsions:
REMARK  status: ('A' for Active; 'I' for Inactive)
REMARK    1  A    between atoms: C_1  and  N_2
REMARK    2  A    between atoms: N_7  and  C_8
REMARK    3  A    between atoms: N_16  and  C_17
REMARK                            x       y       z     vdW  Elec       q    Type
REMARK                         _______ _______ _______ _____ _____    ______ ____
ROOT
ATOM      1  C   UNL     1       6.662   4.714  16.958  0.00  0.00    +0.000 C 
ATOM      2  N   UNL     1       5.441   5.179  17.587  0.00  0.00    +0.000 N 
ATOM      3  C   UNL     1       4.864   6.353  17.094  0.00  0.00    +0.000 A 
ATOM      4  O   UNL     1       5.268   6.981  16.120  0.00  0.00    +0.000 OA
ATOM      5  C   UNL     1       3.736   6.790  17.869  0.00  0.00    +0.000 A 
ATOM      6  C   UNL     1       2.964   7.927  17.755  0.00  0.00    +0.000 A 
ATOM      7  N   UNL     1       2.105   7.984  18.840  0.00  0.00    +0.000 N 
ATOM      8  C   UNL     1       2.212   6.768  19.504  0.00  0.00    +0.000 A 
ATOM      9  C   UNL     1       3.250   6.059  18.950  0.00  0.00    +0.000 A 
ATOM     10  N   UNL     1       3.809   4.849  19.320  0.00  0.00    +0.000 N 
ATOM     11  C   UNL     1       3.315   4.043  20.421  0.00  0.00    +0.000 C 
ATOM     12  C   UNL     1       4.952   4.391  18.646  0.00  0.00    +0.000 A 
ATOM     13  O   UNL     1       5.511   3.340  18.978  0.00  0.00    +0.000 OA
ENDROOT
BRANCH   7  14
ATOM     14  C   UNL     1       1.319   9.106  19.246  0.00  0.00    +0.000 A 
ATOM     15  C   UNL     1       0.902   9.242  20.579  0.00  0.00    +0.000 A 
ATOM     16  C   UNL     1       0.057  10.292  20.952  0.00  0.00    +0.000 A 
ATOM     17  C   UNL     1      -0.376  11.216  20.004  0.00  0.00    +0.000 A 
ATOM     18  C   UNL     1       0.042  11.098  18.683  0.00  0.00    +0.000 A 
ATOM     19  C   UNL     1       0.889  10.053  18.304  0.00  0.00    +0.000 A 
ENDBRANCH   7  14
TORSDOF 1
ENDMDL
