MODEL 1
REMARK VINA RESULT:      -8.4      0.000      0.000
REMARK  Name = 
REMARK  7 active torsions:
REMARK  status: ('A' for Active; 'I' for Inactive)
REMARK    1  A    between atoms: C_4  and  C_5
REMARK    2  A    between atoms: C_5  and  C_6
REMARK    3  A    between atoms: C_14  and  N_15
REMARK    4  A    between atoms: N_15  and  C_16
REMARK    5  A    between atoms: C_16  and  C_17
REMARK    6  A    between atoms: C_17  and  C_18
REMARK    7  A    between atoms: C_18  and  N_19
REMARK                            x       y       z     vdW  Elec       q    Type
REMARK                         _______ _______ _______ _____ _____    ______ ____
ROOT
ATOM      1  C   UNL     1       3.090   4.991  18.909  0.00  0.00    +0.000 C 
ATOM      2  C   UNL     1       2.702   4.722  20.389  0.00  0.00    +0.000 C 
ATOM      3  C   UNL     1       2.181   3.299  20.590  0.00  0.00    +0.000 C 
ATOM      4  C   UNL     1       0.916   3.093  19.747  0.00  0.00    +0.000 C 
ATOM      5  C   UNL     1       1.235   3.327  18.264  0.00  0.00    +0.000 C 
ATOM      6  C   UNL     1       2.286   2.297  17.836  0.00  0.00    +0.000 C 
ATOM      7  C   UNL     1       3.572   2.499  18.645  0.00  0.00    +0.000 C 
ATOM      8  C   UNL     1       3.274   2.321  20.145  0.00  0.00    +0.000 C 
ATOM      9  C   UNL     1       4.129   3.925  18.356  0.00  0.00    +0.000 C 
ATOM     10  C   UNL     1       1.786   4.756  18.067  0.00  0.00    +0.000 C 
ENDROOT
BRANCH   9  11
ATOM     11  N   UNL     1       5.499   4.069  18.857  0.00  0.00    +0.000 NA
ATOM     12  H   UNL     1       5.805   3.214  19.314  0.00  0.00    +0.000 HD
BRANCH  11  13
ATOM     13  C   UNL     1       6.449   4.558  17.855  0.00  0.00    +0.000 C 
BRANCH  13  14
ATOM     14  C   UNL     1       6.193   3.997  16.454  0.00  0.00    +0.000 C 
BRANCH  14  15
ATOM     15  C   UNL     1       6.109   5.094  15.399  0.00  0.00    +0.000 C 
BRANCH  15  16
ATOM     16  N   UNL     1       6.340   4.612  14.057  0.00  0.00    +0.000 N 
ATOM     17  C   UNL     1       5.638   3.633  13.413  0.00  0.00    +0.000 A 
ATOM     18  C   UNL     1       6.295   3.455  12.218  0.00  0.00    +0.000 A 
ATOM     19  N   UNL     1       7.363   4.309  12.120  0.00  0.00    +0.000 NA
ATOM     20  C   UNL     1       7.371   4.987  13.243  0.00  0.00    +0.000 A 
ENDBRANCH  15  16
ENDBRANCH  14  15
ENDBRANCH  13  14
ENDBRANCH  11  13
ENDBRANCH   9  11
BRANCH   1  21
ATOM     21  C   UNL     1       3.532   6.484  18.732  0.00  0.00    +0.000 C 
BRANCH  21  25
ATOM     22  C   UNL     1       0.650   9.677  19.247  0.00  0.00    +0.000 A 
ATOM     23  C   UNL     1       1.152   9.381  17.983  0.00  0.00    +0.000 A 
ATOM     24  C   UNL     1       2.044   8.315  17.817  0.00  0.00    +0.000 A 
ATOM     25  C   UNL     1       2.469   7.557  18.908  0.00  0.00    +0.000 A 
ATOM     26  C   UNL     1       1.916   7.835  20.168  0.00  0.00    +0.000 A 
ATOM     27  C   UNL     1       1.020   8.895  20.338  0.00  0.00    +0.000 A 
ENDBRANCH  21  25
ENDBRANCH   1  21
TORSDOF 7
ENDMDL
MODEL 2
REMARK VINA RESULT:      -8.4      1.114      1.451
REMARK  Name = 
REMARK  7 active torsions:
REMARK  status: ('A' for Active; 'I' for Inactive)
REMARK    1  A    between atoms: C_4  and  C_5
REMARK    2  A    between atoms: C_5  and  C_6
REMARK    3  A    between atoms: C_14  and  N_15
REMARK    4  A    between atoms: N_15  and  C_16
REMARK    5  A    between atoms: C_16  and  C_17
REMARK    6  A    between atoms: C_17  and  C_18
REMARK    7  A    between atoms: C_18  and  N_19
REMARK                            x       y       z     vdW  Elec       q    Type
REMARK                         _______ _______ _______ _____ _____    ______ ____
ROOT
ATOM      1  C   UNL     1       3.185   4.931  18.934  0.00  0.00    +0.000 C 
ATOM      2  C   UNL     1       2.661   4.608  20.360  0.00  0.00    +0.000 C 
ATOM      3  C   UNL     1       2.099   3.189  20.451  0.00  0.00    +0.000 C 
ATOM      4  C   UNL     1       0.912   3.045  19.490  0.00  0.00    +0.000 C 
ATOM      5  C   UNL     1       1.368   3.335  18.053  0.00  0.00    +0.000 C 
ATOM      6  C   UNL     1       2.436   2.303  17.676  0.00  0.00    +0.000 C 
ATOM      7  C   UNL     1       3.646   2.443  18.606  0.00  0.00    +0.000 C 
ATOM      8  C   UNL     1       3.211   2.208  20.064  0.00  0.00    +0.000 C 
ATOM      9  C   UNL     1       4.251   3.868  18.431  0.00  0.00    +0.000 C 
ATOM     10  C   UNL     1       1.958   4.760  17.970  0.00  0.00    +0.000 C 
ENDROOT
BRANCH   9  11
ATOM     11  N   UNL     1       5.573   3.962  19.058  0.00  0.00    +0.000 NA
ATOM     12  H   UNL     1       6.239   3.362  18.580  0.00  0.00    +0.000 HD
BRANCH  11  13
ATOM     13  C   UNL     1       6.054   5.335  19.229  0.00  0.00    +0.000 C 
BRANCH  13  14
ATOM     14  C   UNL     1       7.371   5.609  18.499  0.00  0.00    +0.000 C 
BRANCH  14  15
ATOM     15  C   UNL     1       7.162   6.380  17.200  0.00  0.00    +0.000 C 
BRANCH  15  16
ATOM     16  N   UNL     1       6.619   5.566  16.136  0.00  0.00    +0.000 N 
ATOM     17  C   UNL     1       5.452   5.783  15.462  0.00  0.00    +0.000 A 
ATOM     18  C   UNL     1       5.314   4.694  14.634  0.00  0.00    +0.000 A 
ATOM     19  N   UNL     1       6.373   3.835  14.782  0.00  0.00    +0.000 NA
ATOM     20  C   UNL     1       7.138   4.381  15.697  0.00  0.00    +0.000 A 
ENDBRANCH  15  16
ENDBRANCH  14  15
ENDBRANCH  13  14
ENDBRANCH  11  13
ENDBRANCH   9  11
BRANCH   1  21
ATOM     21  C   UNL     1       3.667   6.420  18.864  0.00  0.00    +0.000 C 
BRANCH  21  25
ATOM     22  C   UNL     1       0.789   9.649  19.131  0.00  0.00    +0.000 A 
ATOM     23  C   UNL     1       1.429   9.375  17.926  0.00  0.00    +0.000 A 
ATOM     24  C   UNL     1       2.319   8.298  17.834  0.00  0.00    +0.000 A 
ATOM     25  C   UNL     1       2.606   7.507  18.946  0.00  0.00    +0.000 A 
ATOM     26  C   UNL     1       1.916   7.763  20.142  0.00  0.00    +0.000 A 
ATOM     27  C   UNL     1       1.021   8.833  20.236  0.00  0.00    +0.000 A 
ENDBRANCH  21  25
ENDBRANCH   1  21
TORSDOF 7
ENDMDL
MODEL 3
REMARK VINA RESULT:      -8.2      1.652      2.702
REMARK  Name = 
REMARK  7 active torsions:
REMARK  status: ('A' for Active; 'I' for Inactive)
REMARK    1  A    between atoms: C_4  and  C_5
REMARK    2  A    between atoms: C_5  and  C_6
REMARK    3  A    between atoms: C_14  and  N_15
REMARK    4  A    between atoms: N_15  and  C_16
REMARK    5  A    between atoms: C_16  and  C_17
REMARK    6  A    between atoms: C_17  and  C_18
REMARK    7  A    between atoms: C_18  and  N_19
REMARK                            x       y       z     vdW  Elec       q    Type
REMARK                         _______ _______ _______ _____ _____    ______ ____
ROOT
ATOM      1  C   UNL     1       3.012   4.620  18.653  0.00  0.00    +0.000 C 
ATOM      2  C   UNL     1       3.612   4.286  20.046  0.00  0.00    +0.000 C 
ATOM      3  C   UNL     1       3.139   2.925  20.556  0.00  0.00    +0.000 C 
ATOM      4  C   UNL     1       1.613   2.939  20.714  0.00  0.00    +0.000 C 
ATOM      5  C   UNL     1       0.953   3.248  19.363  0.00  0.00    +0.000 C 
ATOM      6  C   UNL     1       1.337   2.135  18.382  0.00  0.00    +0.000 C 
ATOM      7  C   UNL     1       2.857   2.116  18.186  0.00  0.00    +0.000 C 
ATOM      8  C   UNL     1       3.551   1.859  19.536  0.00  0.00    +0.000 C 
ATOM      9  C   UNL     1       3.303   3.483  17.584  0.00  0.00    +0.000 C 
ATOM     10  C   UNL     1       1.453   4.611  18.837  0.00  0.00    +0.000 C 
ENDROOT
BRANCH   9  11
ATOM     11  N   UNL     1       4.684   3.421  17.096  0.00  0.00    +0.000 NA
ATOM     12  H   UNL     1       5.080   2.500  17.262  0.00  0.00    +0.000 HD
BRANCH  11  13
ATOM     13  C   UNL     1       4.848   3.879  15.715  0.00  0.00    +0.000 C 
BRANCH  13  14
ATOM     14  C   UNL     1       6.313   4.007  15.291  0.00  0.00    +0.000 C 
BRANCH  14  15
ATOM     15  C   UNL     1       6.866   5.406  15.541  0.00  0.00    +0.000 C 
BRANCH  15  16
ATOM     16  N   UNL     1       7.258   5.626  16.914  0.00  0.00    +0.000 N 
ATOM     17  C   UNL     1       7.439   6.835  17.523  0.00  0.00    +0.000 A 
ATOM     18  C   UNL     1       7.911   6.530  18.779  0.00  0.00    +0.000 A 
ATOM     19  N   UNL     1       8.005   5.172  18.945  0.00  0.00    +0.000 NA
ATOM     20  C   UNL     1       7.614   4.654  17.805  0.00  0.00    +0.000 A 
ENDBRANCH  15  16
ENDBRANCH  14  15
ENDBRANCH  13  14
ENDBRANCH  11  13
ENDBRANCH   9  11
BRANCH   1  21
ATOM     21  C   UNL     1       3.450   6.058  18.210  0.00  0.00    +0.000 C 
BRANCH  21  25
ATOM     22  C   UNL     1       1.063   9.484  19.366  0.00  0.00    +0.000 A 
ATOM     23  C   UNL     1       1.422   9.294  18.035  0.00  0.00    +0.000 A 
ATOM     24  C   UNL     1       2.150   8.158  17.661  0.00  0.00    +0.000 A 
ATOM     25  C   UNL     1       2.555   7.220  18.610  0.00  0.00    +0.000 A 
ATOM     26  C   UNL     1       2.144   7.398  19.941  0.00  0.00    +0.000 A 
ATOM     27  C   UNL     1       1.410   8.528  20.318  0.00  0.00    +0.000 A 
ENDBRANCH  21  25
ENDBRANCH   1  21
TORSDOF 7
ENDMDL
MODEL 4
REMARK VINA RESULT:      -8.2      0.438      1.252
REMARK  Name = 
REMARK  7 active torsions:
REMARK  status: ('A' for Active; 'I' for Inactive)
REMARK    1  A    between atoms: C_4  and  C_5
REMARK    2  A    between atoms: C_5  and  C_6
REMARK    3  A    between atoms: C_14  and  N_15
REMARK    4  A    between atoms: N_15  and  C_16
REMARK    5  A    between atoms: C_16  and  C_17
REMARK    6  A    between atoms: C_17  and  C_18
REMARK    7  A    between atoms: C_18  and  N_19
REMARK                            x       y       z     vdW  Elec       q    Type
REMARK                         _______ _______ _______ _____ _____    ______ ____
ROOT
ATOM      1  C   UNL     1       3.140   5.021  18.815  0.00  0.00    +0.000 C 
ATOM      2  C   UNL     1       2.830   4.819  20.324  0.00  0.00    +0.000 C 
ATOM      3  C   UNL     1       2.291   3.417  20.610  0.00  0.00    +0.000 C 
ATOM      4  C   UNL     1       0.977   3.208  19.847  0.00  0.00    +0.000 C 
ATOM      5  C   UNL     1       1.217   3.376  18.341  0.00  0.00    +0.000 C 
ATOM      6  C   UNL     1       2.221   2.306  17.897  0.00  0.00    +0.000 C 
ATOM      7  C   UNL     1       3.554   2.510  18.626  0.00  0.00    +0.000 C 
ATOM      8  C   UNL     1       3.336   2.397  20.146  0.00  0.00    +0.000 C 
ATOM      9  C   UNL     1       4.124   3.910  18.249  0.00  0.00    +0.000 C 
ATOM     10  C   UNL     1       1.786   4.784  18.057  0.00  0.00    +0.000 C 
ENDROOT
BRANCH   9  11
ATOM     11  N   UNL     1       5.522   4.042  18.668  0.00  0.00    +0.000 NA
ATOM     12  H   UNL     1       5.835   3.199  19.141  0.00  0.00    +0.000 HD
BRANCH  11  13
ATOM     13  C   UNL     1       6.425   4.470  17.597  0.00  0.00    +0.000 C 
BRANCH  13  14
ATOM     14  C   UNL     1       5.699   4.804  16.292  0.00  0.00    +0.000 C 
BRANCH  14  15
ATOM     15  C   UNL     1       5.786   3.669  15.276  0.00  0.00    +0.000 C 
BRANCH  15  16
ATOM     16  N   UNL     1       6.491   4.038  14.070  0.00  0.00    +0.000 N 
ATOM     17  C   UNL     1       7.351   5.089  13.922  0.00  0.00    +0.000 A 
ATOM     18  C   UNL     1       7.675   5.093  12.585  0.00  0.00    +0.000 A 
ATOM     19  N   UNL     1       7.045   4.067  11.930  0.00  0.00    +0.000 NA
ATOM     20  C   UNL     1       6.334   3.454  12.846  0.00  0.00    +0.000 A 
ENDBRANCH  15  16
ENDBRANCH  14  15
ENDBRANCH  13  14
ENDBRANCH  11  13
ENDBRANCH   9  11
BRANCH   1  21
ATOM     21  C   UNL     1       3.602   6.495  18.554  0.00  0.00    +0.000 C 
BRANCH  21  25
ATOM     22  C   UNL     1       0.579   9.521  19.243  0.00  0.00    +0.000 A 
ATOM     23  C   UNL     1       1.014   8.710  20.288  0.00  0.00    +0.000 A 
ATOM     24  C   UNL     1       2.027   7.769  20.069  0.00  0.00    +0.000 A 
ATOM     25  C   UNL     1       2.593   7.604  18.806  0.00  0.00    +0.000 A 
ATOM     26  C   UNL     1       2.181   8.461  17.773  0.00  0.00    +0.000 A 
ATOM     27  C   UNL     1       1.173   9.407  17.989  0.00  0.00    +0.000 A 
ENDBRANCH  21  25
ENDBRANCH   1  21
TORSDOF 7
ENDMDL
MODEL 5
REMARK VINA RESULT:      -8.2      1.723      2.896
REMARK  Name = 
REMARK  7 active torsions:
REMARK  status: ('A' for Active; 'I' for Inactive)
REMARK    1  A    between atoms: C_4  and  C_5
REMARK    2  A    between atoms: C_5  and  C_6
REMARK    3  A    between atoms: C_14  and  N_15
REMARK    4  A    between atoms: N_15  and  C_16
REMARK    5  A    between atoms: C_16  and  C_17
REMARK    6  A    between atoms: C_17  and  C_18
REMARK    7  A    between atoms: C_18  and  N_19
REMARK                            x       y       z     vdW  Elec       q    Type
REMARK                         _______ _______ _______ _____ _____    ______ ____
ROOT
ATOM      1  C   UNL     1       2.981   4.686  18.421  0.00  0.00    +0.000 C 
ATOM      2  C   UNL     1       3.602   4.495  19.831  0.00  0.00    +0.000 C 
ATOM      3  C   UNL     1       3.245   3.134  20.429  0.00  0.00    +0.000 C 
ATOM      4  C   UNL     1       1.722   3.028  20.588  0.00  0.00    +0.000 C 
ATOM      5  C   UNL     1       1.044   3.191  19.221  0.00  0.00    +0.000 C 
ATOM      6  C   UNL     1       1.526   2.055  18.313  0.00  0.00    +0.000 C 
ATOM      7  C   UNL     1       3.042   2.153  18.116  0.00  0.00    +0.000 C 
ATOM      8  C   UNL     1       3.751   2.044  19.478  0.00  0.00    +0.000 C 
ATOM      9  C   UNL     1       3.372   3.512  17.427  0.00  0.00    +0.000 C 
ATOM     10  C   UNL     1       1.428   4.556  18.607  0.00  0.00    +0.000 C 
ENDROOT
BRANCH   9  11
ATOM     11  N   UNL     1       4.755   3.537  16.942  0.00  0.00    +0.000 NA
ATOM     12  H   UNL     1       5.244   2.687  17.210  0.00  0.00    +0.000 HD
BRANCH  11  13
ATOM     13  C   UNL     1       4.880   3.847  15.517  0.00  0.00    +0.000 C 
BRANCH  13  14
ATOM     14  C   UNL     1       5.612   5.164  15.246  0.00  0.00    +0.000 C 
BRANCH  14  15
ATOM     15  C   UNL     1       7.095   5.082  15.594  0.00  0.00    +0.000 C 
BRANCH  15  16
ATOM     16  N   UNL     1       7.384   5.487  16.950  0.00  0.00    +0.000 N 
ATOM     17  C   UNL     1       7.453   6.768  17.418  0.00  0.00    +0.000 A 
ATOM     18  C   UNL     1       7.861   6.644  18.726  0.00  0.00    +0.000 A 
ATOM     19  N   UNL     1       8.025   5.325  19.060  0.00  0.00    +0.000 NA
ATOM     20  C   UNL     1       7.740   4.652  17.971  0.00  0.00    +0.000 A 
ENDBRANCH  15  16
ENDBRANCH  14  15
ENDBRANCH  13  14
ENDBRANCH  11  13
ENDBRANCH   9  11
BRANCH   1  21
ATOM     21  C   UNL     1       3.296   6.125  17.885  0.00  0.00    +0.000 C 
BRANCH  21  25
ATOM     22  C   UNL     1       0.983   9.333  19.653  0.00  0.00    +0.000 A 
ATOM     23  C   UNL     1       1.479   8.304  20.448  0.00  0.00    +0.000 A 
ATOM     24  C   UNL     1       2.269   7.298  19.878  0.00  0.00    +0.000 A 
ATOM     25  C   UNL     1       2.543   7.288  18.511  0.00  0.00    +0.000 A 
ATOM     26  C   UNL     1       2.078   8.359  17.730  0.00  0.00    +0.000 A 
ATOM     27  C   UNL     1       1.295   9.370  18.296  0.00  0.00    +0.000 A 
ENDBRANCH  21  25
ENDBRANCH   1  21
TORSDOF 7
ENDMDL
MODEL 6
REMARK VINA RESULT:      -8.1      2.643      7.119
REMARK  Name = 
REMARK  7 active torsions:
REMARK  status: ('A' for Active; 'I' for Inactive)
REMARK    1  A    between atoms: C_4  and  C_5
REMARK    2  A    between atoms: C_5  and  C_6
REMARK    3  A    between atoms: C_14  and  N_15
REMARK    4  A    between atoms: N_15  and  C_16
REMARK    5  A    between atoms: C_16  and  C_17
REMARK    6  A    between atoms: C_17  and  C_18
REMARK    7  A    between atoms: C_18  and  N_19
REMARK                            x       y       z     vdW  Elec       q    Type
REMARK                         _______ _______ _______ _____ _____    ______ ____
ROOT
ATOM      1  C   UNL     1       5.835   4.504  16.528  0.00  0.00    +0.000 C 
ATOM      2  C   UNL     1       7.254   4.685  17.132  0.00  0.00    +0.000 C 
ATOM      3  C   UNL     1       7.281   5.777  18.202  0.00  0.00    +0.000 C 
ATOM      4  C   UNL     1       6.883   7.119  17.574  0.00  0.00    +0.000 C 
ATOM      5  C   UNL     1       5.476   7.014  16.971  0.00  0.00    +0.000 C 
ATOM      6  C   UNL     1       4.496   6.690  18.103  0.00  0.00    +0.000 C 
ATOM      7  C   UNL     1       4.855   5.339  18.731  0.00  0.00    +0.000 C 
ATOM      8  C   UNL     1       6.284   5.396  19.302  0.00  0.00    +0.000 C 
ATOM      9  C   UNL     1       4.737   4.231  17.641  0.00  0.00    +0.000 C 
ATOM     10  C   UNL     1       5.445   5.893  15.909  0.00  0.00    +0.000 C 
ENDROOT
BRANCH   9  11
ATOM     11  N   UNL     1       4.773   2.894  18.241  0.00  0.00    +0.000 NA
ATOM     12  H   UNL     1       4.866   2.957  19.251  0.00  0.00    +0.000 HD
BRANCH  11  13
ATOM     13  C   UNL     1       3.675   2.023  17.817  0.00  0.00    +0.000 C 
BRANCH  13  14
ATOM     14  C   UNL     1       2.413   2.792  17.419  0.00  0.00    +0.000 C 
BRANCH  14  15
ATOM     15  C   UNL     1       1.303   2.656  18.457  0.00  0.00    +0.000 C 
BRANCH  15  16
ATOM     16  N   UNL     1       1.656   3.212  19.743  0.00  0.00    +0.000 N 
ATOM     17  C   UNL     1       1.820   2.520  20.909  0.00  0.00    +0.000 A 
ATOM     18  C   UNL     1       2.039   3.485  21.864  0.00  0.00    +0.000 A 
ATOM     19  N   UNL     1       2.024   4.735  21.302  0.00  0.00    +0.000 NA
ATOM     20  C   UNL     1       1.784   4.542  20.028  0.00  0.00    +0.000 A 
ENDBRANCH  15  16
ENDBRANCH  14  15
ENDBRANCH  13  14
ENDBRANCH  11  13
ENDBRANCH   9  11
BRANCH   1  21
ATOM     21  C   UNL     1       5.873   3.442  15.377  0.00  0.00    +0.000 C 
BRANCH  21  25
ATOM     22  C   UNL     1       7.333   4.608  11.467  0.00  0.00    +0.000 A 
ATOM     23  C   UNL     1       6.292   3.691  11.585  0.00  0.00    +0.000 A 
ATOM     24  C   UNL     1       5.792   3.358  12.849  0.00  0.00    +0.000 A 
ATOM     25  C   UNL     1       6.343   3.906  14.006  0.00  0.00    +0.000 A 
ATOM     26  C   UNL     1       7.358   4.867  13.872  0.00  0.00    +0.000 A 
ATOM     27  C   UNL     1       7.856   5.208  12.610  0.00  0.00    +0.000 A 
ENDBRANCH  21  25
ENDBRANCH   1  21
TORSDOF 7
ENDMDL
MODEL 7
REMARK VINA RESULT:      -8.1      2.868      6.983
REMARK  Name = 
REMARK  7 active torsions:
REMARK  status: ('A' for Active; 'I' for Inactive)
REMARK    1  A    between atoms: C_4  and  C_5
REMARK    2  A    between atoms: C_5  and  C_6
REMARK    3  A    between atoms: C_14  and  N_15
REMARK    4  A    between atoms: N_15  and  C_16
REMARK    5  A    between atoms: C_16  and  C_17
REMARK    6  A    between atoms: C_17  and  C_18
REMARK    7  A    between atoms: C_18  and  N_19
REMARK                            x       y       z     vdW  Elec       q    Type
REMARK                         _______ _______ _______ _____ _____    ______ ____
ROOT
ATOM      1  C   UNL     1       3.501   3.967  18.177  0.00  0.00    +0.000 C 
ATOM      2  C   UNL     1       2.445   3.023  17.540  0.00  0.00    +0.000 C 
ATOM      3  C   UNL     1       1.471   2.473  18.583  0.00  0.00    +0.000 C 
ATOM      4  C   UNL     1       2.244   1.651  19.622  0.00  0.00    +0.000 C 
ATOM      5  C   UNL     1       3.298   2.533  20.306  0.00  0.00    +0.000 C 
ATOM      6  C   UNL     1       2.568   3.674  21.023  0.00  0.00    +0.000 C 
ATOM      7  C   UNL     1       1.808   4.529  20.003  0.00  0.00    +0.000 C 
ATOM      8  C   UNL     1       0.777   3.658  19.262  0.00  0.00    +0.000 C 
ATOM      9  C   UNL     1       2.832   5.146  19.004  0.00  0.00    +0.000 C 
ATOM     10  C   UNL     1       4.264   3.108  19.247  0.00  0.00    +0.000 C 
ENDROOT
BRANCH   9  11
ATOM     11  N   UNL     1       2.213   6.202  18.197  0.00  0.00    +0.000 NA
ATOM     12  H   UNL     1       1.213   6.045  18.109  0.00  0.00    +0.000 HD
BRANCH  11  13
ATOM     13  C   UNL     1       2.546   7.558  18.637  0.00  0.00    +0.000 C 
BRANCH  13  14
ATOM     14  C   UNL     1       1.967   7.908  20.010  0.00  0.00    +0.000 C 
BRANCH  14  15
ATOM     15  C   UNL     1       1.144   9.191  19.981  0.00  0.00    +0.000 C 
BRANCH  15  16
ATOM     16  N   UNL     1       0.544   9.512  21.256  0.00  0.00    +0.000 N 
ATOM     17  C   UNL     1      -0.556  10.294  21.462  0.00  0.00    +0.000 A 
ATOM     18  C   UNL     1      -0.669  10.390  22.829  0.00  0.00    +0.000 A 
ATOM     19  N   UNL     1       0.324   9.677  23.450  0.00  0.00    +0.000 NA
ATOM     20  C   UNL     1       1.044   9.166  22.479  0.00  0.00    +0.000 A 
ENDBRANCH  15  16
ENDBRANCH  14  15
ENDBRANCH  13  14
ENDBRANCH  11  13
ENDBRANCH   9  11
BRANCH   1  21
ATOM     21  C   UNL     1       4.529   4.434  17.092  0.00  0.00    +0.000 C 
BRANCH  21  25
ATOM     22  C   UNL     1       7.831   7.009  18.203  0.00  0.00    +0.000 A 
ATOM     23  C   UNL     1       6.873   7.447  17.293  0.00  0.00    +0.000 A 
ATOM     24  C   UNL     1       5.782   6.629  16.977  0.00  0.00    +0.000 A 
ATOM     25  C   UNL     1       5.651   5.359  17.537  0.00  0.00    +0.000 A 
ATOM     26  C   UNL     1       6.597   4.950  18.491  0.00  0.00    +0.000 A 
ATOM     27  C   UNL     1       7.685   5.767  18.814  0.00  0.00    +0.000 A 
ENDBRANCH  21  25
ENDBRANCH   1  21
TORSDOF 7
ENDMDL
MODEL 8
REMARK VINA RESULT:      -8.1      1.069      1.742
REMARK  Name = 
REMARK  7 active torsions:
REMARK  status: ('A' for Active; 'I' for Inactive)
REMARK    1  A    between atoms: C_4  and  C_5
REMARK    2  A    between atoms: C_5  and  C_6
REMARK    3  A    between atoms: C_14  and  N_15
REMARK    4  A    between atoms: N_15  and  C_16
REMARK    5  A    between atoms: C_16  and  C_17
REMARK    6  A    between atoms: C_17  and  C_18
REMARK    7  A    between atoms: C_18  and  N_19
REMARK                            x       y       z     vdW  Elec       q    Type
REMARK                         _______ _______ _______ _____ _____    ______ ____
ROOT
ATOM      1  C   UNL     1       3.111   4.919  18.848  0.00  0.00    +0.000 C 
ATOM      2  C   UNL     1       2.686   4.856  20.341  0.00  0.00    +0.000 C 
ATOM      3  C   UNL     1       2.090   3.496  20.705  0.00  0.00    +0.000 C 
ATOM      4  C   UNL     1       0.830   3.247  19.866  0.00  0.00    +0.000 C 
ATOM      5  C   UNL     1       1.185   3.278  18.373  0.00  0.00    +0.000 C 
ATOM      6  C   UNL     1       2.189   2.154  18.100  0.00  0.00    +0.000 C 
ATOM      7  C   UNL     1       3.470   2.393  18.907  0.00  0.00    +0.000 C 
ATOM      8  C   UNL     1       3.139   2.419  20.410  0.00  0.00    +0.000 C 
ATOM      9  C   UNL     1       4.103   3.744  18.455  0.00  0.00    +0.000 C 
ATOM     10  C   UNL     1       1.810   4.644  18.013  0.00  0.00    +0.000 C 
ENDROOT
BRANCH   9  11
ATOM     11  N   UNL     1       5.471   3.883  18.965  0.00  0.00    +0.000 NA
ATOM     12  H   UNL     1       6.117   3.329  18.411  0.00  0.00    +0.000 HD
BRANCH  11  13
ATOM     13  C   UNL     1       5.903   5.272  19.135  0.00  0.00    +0.000 C 
BRANCH  13  14
ATOM     14  C   UNL     1       7.281   5.554  18.532  0.00  0.00    +0.000 C 
BRANCH  14  15
ATOM     15  C   UNL     1       7.190   6.314  17.213  0.00  0.00    +0.000 C 
BRANCH  15  16
ATOM     16  N   UNL     1       6.596   5.537  16.149  0.00  0.00    +0.000 N 
ATOM     17  C   UNL     1       7.098   4.390  15.603  0.00  0.00    +0.000 A 
ATOM     18  C   UNL     1       6.247   4.091  14.565  0.00  0.00    +0.000 A 
ATOM     19  N   UNL     1       5.241   5.018  14.481  0.00  0.00    +0.000 NA
ATOM     20  C   UNL     1       5.480   5.880  15.440  0.00  0.00    +0.000 A 
ENDBRANCH  15  16
ENDBRANCH  14  15
ENDBRANCH  13  14
ENDBRANCH  11  13
ENDBRANCH   9  11
BRANCH   1  21
ATOM     21  C   UNL     1       3.630   6.355  18.497  0.00  0.00    +0.000 C 
BRANCH  21  25
ATOM     22  C   UNL     1       0.784   9.558  19.143  0.00  0.00    +0.000 A 
ATOM     23  C   UNL     1       1.131   8.704  20.186  0.00  0.00    +0.000 A 
ATOM     24  C   UNL     1       2.089   7.704  19.984  0.00  0.00    +0.000 A 
ATOM     25  C   UNL     1       2.685   7.522  18.736  0.00  0.00    +0.000 A 
ATOM     26  C   UNL     1       2.363   8.421  17.706  0.00  0.00    +0.000 A 
ATOM     27  C   UNL     1       1.411   9.426  17.906  0.00  0.00    +0.000 A 
ENDBRANCH  21  25
ENDBRANCH   1  21
TORSDOF 7
ENDMDL
MODEL 9
REMARK VINA RESULT:      -8.0      1.308      2.008
REMARK  Name = 
REMARK  7 active torsions:
REMARK  status: ('A' for Active; 'I' for Inactive)
REMARK    1  A    between atoms: C_4  and  C_5
REMARK    2  A    between atoms: C_5  and  C_6
REMARK    3  A    between atoms: C_14  and  N_15
REMARK    4  A    between atoms: N_15  and  C_16
REMARK    5  A    between atoms: C_16  and  C_17
REMARK    6  A    between atoms: C_17  and  C_18
REMARK    7  A    between atoms: C_18  and  N_19
REMARK                            x       y       z     vdW  Elec       q    Type
REMARK                         _______ _______ _______ _____ _____    ______ ____
ROOT
ATOM      1  C   UNL     1       2.651   4.980  19.743  0.00  0.00    +0.000 C 
ATOM      2  C   UNL     1       2.497   3.762  20.694  0.00  0.00    +0.000 C 
ATOM      3  C   UNL     1       2.611   2.435  19.942  0.00  0.00    +0.000 C 
ATOM      4  C   UNL     1       1.489   2.340  18.900  0.00  0.00    +0.000 C 
ATOM      5  C   UNL     1       1.595   3.510  17.913  0.00  0.00    +0.000 C 
ATOM      6  C   UNL     1       2.945   3.406  17.195  0.00  0.00    +0.000 C 
ATOM      7  C   UNL     1       4.085   3.526  18.212  0.00  0.00    +0.000 C 
ATOM      8  C   UNL     1       3.977   2.393  19.249  0.00  0.00    +0.000 C 
ATOM      9  C   UNL     1       3.997   4.920  18.903  0.00  0.00    +0.000 C 
ATOM     10  C   UNL     1       1.506   4.848  18.678  0.00  0.00    +0.000 C 
ENDROOT
BRANCH   9  11
ATOM     11  N   UNL     1       5.219   5.214  19.657  0.00  0.00    +0.000 NA
ATOM     12  H   UNL     1       5.159   4.834  20.598  0.00  0.00    +0.000 HD
BRANCH  11  13
ATOM     13  C   UNL     1       6.452   4.839  18.962  0.00  0.00    +0.000 C 
BRANCH  13  14
ATOM     14  C   UNL     1       7.351   6.035  18.637  0.00  0.00    +0.000 C 
BRANCH  14  15
ATOM     15  C   UNL     1       6.989   6.685  17.306  0.00  0.00    +0.000 C 
BRANCH  15  16
ATOM     16  N   UNL     1       6.547   5.735  16.311  0.00  0.00    +0.000 N 
ATOM     17  C   UNL     1       7.244   4.654  15.854  0.00  0.00    +0.000 A 
ATOM     18  C   UNL     1       6.465   4.131  14.849  0.00  0.00    +0.000 A 
ATOM     19  N   UNL     1       5.314   4.859  14.698  0.00  0.00    +0.000 NA
ATOM     20  C   UNL     1       5.393   5.823  15.585  0.00  0.00    +0.000 A 
ENDBRANCH  15  16
ENDBRANCH  14  15
ENDBRANCH  13  14
ENDBRANCH  11  13
ENDBRANCH   9  11
BRANCH   1  21
ATOM     21  C   UNL     1       2.439   6.313  20.538  0.00  0.00    +0.000 C 
BRANCH  21  25
ATOM     22  C   UNL     1       1.239   9.767  18.213  0.00  0.00    +0.000 A 
ATOM     23  C   UNL     1       0.802   9.616  19.526  0.00  0.00    +0.000 A 
ATOM     24  C   UNL     1       1.234   8.524  20.287  0.00  0.00    +0.000 A 
ATOM     25  C   UNL     1       2.077   7.557  19.741  0.00  0.00    +0.000 A 
ATOM     26  C   UNL     1       2.550   7.746  18.433  0.00  0.00    +0.000 A 
ATOM     27  C   UNL     1       2.126   8.840  17.670  0.00  0.00    +0.000 A 
ENDBRANCH  21  25
ENDBRANCH   1  21
TORSDOF 7
ENDMDL
