MODEL 1
REMARK VINA RESULT:      -8.8      0.000      0.000
REMARK  Name = 
REMARK  6 active torsions:
REMARK  status: ('A' for Active; 'I' for Inactive)
REMARK    1  A    between atoms: C_2  and  C_11
REMARK    2  A    between atoms: N_3  and  C_4
REMARK    3  A    between atoms: C_11  and  O_12
REMARK    4  A    between atoms: C_11  and  C_13
REMARK    5  A    between atoms: C_13  and  O_14
REMARK    6  A    between atoms: C_13  and  C_15
REMARK                            x       y       z     vdW  Elec       q    Type
REMARK                         _______ _______ _______ _____ _____    ______ ____
ROOT
ATOM      1  C   UNL     1       6.659   6.956  17.766  0.00  0.00    +0.000 C 
ENDROOT
BRANCH   1   2
ATOM      2  C   UNL     1       5.232   6.716  17.228  0.00  0.00    +0.000 C 
ATOM      3  O   UNL     1       4.943   7.027  16.068  0.00  0.00    +0.000 OA
ATOM      4  N   UNL     1       4.319   6.078  18.063  0.00  0.00    +0.000 N 
ATOM      5  C   UNL     1       4.619   5.625  19.424  0.00  0.00    +0.000 C 
ATOM      6  C   UNL     1       4.174   4.184  19.631  0.00  0.00    +0.000 C 
ATOM      7  C   UNL     1       2.705   3.968  19.231  0.00  0.00    +0.000 C 
ATOM      8  C   UNL     1       1.725   4.574  20.259  0.00  0.00    +0.000 C 
ATOM      9  C   UNL     1       1.554   3.478  21.298  0.00  0.00    +0.000 C 
ATOM     10  N   UNL     1       1.731   2.278  20.543  0.00  0.00    +0.000 N 
ATOM     11  C   UNL     1       2.384   2.485  19.346  0.00  0.00    +0.000 C 
ATOM     12  O   UNL     1       2.696   1.604  18.566  0.00  0.00    +0.000 OA
ATOM     13  C   UNL     1       2.467   4.474  17.804  0.00  0.00    +0.000 C 
ATOM     14  C   UNL     1       2.933   5.916  17.632  0.00  0.00    +0.000 C 
ATOM     15  H   UNL     1       1.503   1.340  20.852  0.00  0.00    +0.000 HD
ENDBRANCH   1   2
BRANCH   1  16
ATOM     16  O   UNL     1       7.308   8.082  17.183  0.00  0.00    +0.000 OA
ATOM     17  H   UNL     1       7.385   8.764  17.888  0.00  0.00    +0.000 HD
ENDBRANCH   1  16
BRANCH   1  18
ATOM     18  C   UNL     1       7.505   5.668  17.625  0.00  0.00    +0.000 C 
BRANCH  18  20
ATOM     19  O   UNL     1       6.390   3.742  16.667  0.00  0.00    +0.000 OA
ATOM     20  C   UNL     1       6.979   4.803  16.466  0.00  0.00    +0.000 C 
ATOM     21  N   UNL     1       7.244   5.354  15.227  0.00  0.00    +0.000 N 
ATOM     22  H   UNL     1       8.057   5.966  15.206  0.00  0.00    +0.000 HD
BRANCH  21  23
ATOM     23  C   UNL     1       6.896   4.722  14.020  0.00  0.00    +0.000 A 
ATOM     24  C   UNL     1       5.783   3.876  13.956  0.00  0.00    +0.000 A 
ATOM     25  C   UNL     1       5.408   3.304  12.740  0.00  0.00    +0.000 A 
ATOM     26  C   UNL     1       6.159   3.549  11.590  0.00  0.00    +0.000 A 
ATOM     27  C   UNL     1       7.283   4.375  11.651  0.00  0.00    +0.000 A 
ATOM     28  C   UNL     1       7.638   4.977  12.859  0.00  0.00    +0.000 A 
ATOM     29 CL   UNL     1       9.057   5.964  12.907  0.00  0.00    +0.000 Cl
ENDBRANCH  21  23
ENDBRANCH  18  20
BRANCH  18  30
ATOM     30  O   UNL     1       7.614   4.956  18.862  0.00  0.00    +0.000 OA
ATOM     31  H   UNL     1       7.623   4.000  18.636  0.00  0.00    +0.000 HD
ENDBRANCH  18  30
ENDBRANCH   1  18
TORSDOF 6
ENDMDL
MODEL 2
REMARK VINA RESULT:      -8.3      5.940      8.357
REMARK  Name = 
REMARK  6 active torsions:
REMARK  status: ('A' for Active; 'I' for Inactive)
REMARK    1  A    between atoms: C_2  and  C_11
REMARK    2  A    between atoms: N_3  and  C_4
REMARK    3  A    between atoms: C_11  and  O_12
REMARK    4  A    between atoms: C_11  and  C_13
REMARK    5  A    between atoms: C_13  and  O_14
REMARK    6  A    between atoms: C_13  and  C_15
REMARK                            x       y       z     vdW  Elec       q    Type
REMARK                         _______ _______ _______ _____ _____    ______ ____
ROOT
ATOM      1  C   UNL     1       1.724   8.866  18.367  0.00  0.00    +0.000 C 
ENDROOT
BRANCH   1   2
ATOM      2  C   UNL     1       1.926   7.940  19.585  0.00  0.00    +0.000 C 
ATOM      3  O   UNL     1       1.666   8.343  20.724  0.00  0.00    +0.000 OA
ATOM      4  N   UNL     1       2.336   6.632  19.347  0.00  0.00    +0.000 N 
ATOM      5  C   UNL     1       2.596   6.074  18.018  0.00  0.00    +0.000 C 
ATOM      6  C   UNL     1       1.885   4.740  17.835  0.00  0.00    +0.000 C 
ATOM      7  C   UNL     1       2.198   3.756  18.975  0.00  0.00    +0.000 C 
ATOM      8  C   UNL     1       3.626   3.179  18.872  0.00  0.00    +0.000 C 
ATOM      9  C   UNL     1       3.475   1.983  17.946  0.00  0.00    +0.000 C 
ATOM     10  N   UNL     1       2.140   1.541  18.194  0.00  0.00    +0.000 N 
ATOM     11  C   UNL     1       1.352   2.506  18.783  0.00  0.00    +0.000 C 
ATOM     12  O   UNL     1       0.167   2.376  19.033  0.00  0.00    +0.000 OA
ATOM     13  C   UNL     1       1.911   4.412  20.331  0.00  0.00    +0.000 C 
ATOM     14  C   UNL     1       2.631   5.749  20.473  0.00  0.00    +0.000 C 
ATOM     15  H   UNL     1       1.741   0.655  17.903  0.00  0.00    +0.000 HD
ENDBRANCH   1   2
BRANCH   1  16
ATOM     16  O   UNL     1       2.891   9.018  17.563  0.00  0.00    +0.000 OA
ATOM     17  H   UNL     1       3.532   8.334  17.860  0.00  0.00    +0.000 HD
ENDBRANCH   1  16
BRANCH   1  18
ATOM     18  C   UNL     1       1.160  10.233  18.824  0.00  0.00    +0.000 C 
BRANCH  18  20
ATOM     19  O   UNL     1      -1.081   9.562  19.454  0.00  0.00    +0.000 OA
ATOM     20  C   UNL     1      -0.375  10.246  18.715  0.00  0.00    +0.000 C 
ATOM     21  N   UNL     1      -0.832  11.092  17.722  0.00  0.00    +0.000 N 
ATOM     22  H   UNL     1      -0.169  11.246  16.965  0.00  0.00    +0.000 HD
BRANCH  21  23
ATOM     23  C   UNL     1      -2.195  11.237  17.410  0.00  0.00    +0.000 A 
ATOM     24  C   UNL     1      -2.704  10.740  16.205  0.00  0.00    +0.000 A 
ATOM     25  C   UNL     1      -4.069  10.832  15.932  0.00  0.00    +0.000 A 
ATOM     26  C   UNL     1      -4.926  11.449  16.844  0.00  0.00    +0.000 A 
ATOM     27  C   UNL     1      -4.420  11.966  18.039  0.00  0.00    +0.000 A 
ATOM     28  C   UNL     1      -3.062  11.842  18.330  0.00  0.00    +0.000 A 
ATOM     29 CL   UNL     1      -2.463  12.527  19.800  0.00  0.00    +0.000 Cl
ENDBRANCH  21  23
ENDBRANCH  18  20
BRANCH  18  30
ATOM     30  O   UNL     1       1.787  11.328  18.147  0.00  0.00    +0.000 OA
ATOM     31  H   UNL     1       2.696  11.035  17.921  0.00  0.00    +0.000 HD
ENDBRANCH  18  30
ENDBRANCH   1  18
TORSDOF 6
ENDMDL
MODEL 3
REMARK VINA RESULT:      -8.2      5.845      8.449
REMARK  Name = 
REMARK  6 active torsions:
REMARK  status: ('A' for Active; 'I' for Inactive)
REMARK    1  A    between atoms: C_2  and  C_11
REMARK    2  A    between atoms: N_3  and  C_4
REMARK    3  A    between atoms: C_11  and  O_12
REMARK    4  A    between atoms: C_11  and  C_13
REMARK    5  A    between atoms: C_13  and  O_14
REMARK    6  A    between atoms: C_13  and  C_15
REMARK                            x       y       z     vdW  Elec       q    Type
REMARK                         _______ _______ _______ _____ _____    ______ ____
ROOT
ATOM      1  C   UNL     1       1.573   8.852  18.308  0.00  0.00    +0.000 C 
ENDROOT
BRANCH   1   2
ATOM      2  C   UNL     1       1.898   7.952  19.519  0.00  0.00    +0.000 C 
ATOM      3  O   UNL     1       1.720   8.368  20.669  0.00  0.00    +0.000 OA
ATOM      4  N   UNL     1       2.319   6.649  19.269  0.00  0.00    +0.000 N 
ATOM      5  C   UNL     1       2.484   6.075  17.932  0.00  0.00    +0.000 C 
ATOM      6  C   UNL     1       1.795   4.722  17.828  0.00  0.00    +0.000 C 
ATOM      7  C   UNL     1       2.224   3.766  18.954  0.00  0.00    +0.000 C 
ATOM      8  C   UNL     1       3.653   3.220  18.744  0.00  0.00    +0.000 C 
ATOM      9  C   UNL     1       3.457   2.005  17.851  0.00  0.00    +0.000 C 
ATOM     10  N   UNL     1       2.158   1.536  18.214  0.00  0.00    +0.000 N 
ATOM     11  C   UNL     1       1.396   2.493  18.850  0.00  0.00    +0.000 C 
ATOM     12  O   UNL     1       0.239   2.339  19.199  0.00  0.00    +0.000 OA
ATOM     13  C   UNL     1       2.032   4.438  20.318  0.00  0.00    +0.000 C 
ATOM     14  C   UNL     1       2.727   5.794  20.381  0.00  0.00    +0.000 C 
ATOM     15  H   UNL     1       1.759   0.636  17.970  0.00  0.00    +0.000 HD
ENDBRANCH   1   2
BRANCH   1  16
ATOM     16  O   UNL     1       2.619   8.908  17.341  0.00  0.00    +0.000 OA
ATOM     17  H   UNL     1       2.247   8.562  16.498  0.00  0.00    +0.000 HD
ENDBRANCH   1  16
BRANCH   1  18
ATOM     18  C   UNL     1       1.159  10.263  18.787  0.00  0.00    +0.000 C 
BRANCH  18  20
ATOM     19  O   UNL     1      -0.923   9.688  19.886  0.00  0.00    +0.000 OA
ATOM     20  C   UNL     1      -0.364  10.334  19.001  0.00  0.00    +0.000 C 
ATOM     21  N   UNL     1      -0.989  11.182  18.107  0.00  0.00    +0.000 N 
ATOM     22  H   UNL     1      -0.494  11.299  17.225  0.00  0.00    +0.000 HD
BRANCH  21  23
ATOM     23  C   UNL     1      -2.381  11.374  18.082  0.00  0.00    +0.000 A 
ATOM     24  C   UNL     1      -3.027  12.024  19.140  0.00  0.00    +0.000 A 
ATOM     25  C   UNL     1      -4.400  12.267  19.077  0.00  0.00    +0.000 A 
ATOM     26  C   UNL     1      -5.138  11.835  17.975  0.00  0.00    +0.000 A 
ATOM     27  C   UNL     1      -4.502  11.167  16.926  0.00  0.00    +0.000 A 
ATOM     28  C   UNL     1      -3.124  10.955  16.970  0.00  0.00    +0.000 A 
ATOM     29 CL   UNL     1      -2.376  10.093  15.672  0.00  0.00    +0.000 Cl
ENDBRANCH  21  23
ENDBRANCH  18  20
BRANCH  18  30
ATOM     30  O   UNL     1       1.660  11.294  17.929  0.00  0.00    +0.000 OA
ATOM     31  H   UNL     1       1.185  11.202  17.074  0.00  0.00    +0.000 HD
ENDBRANCH  18  30
ENDBRANCH   1  18
TORSDOF 6
ENDMDL
MODEL 4
REMARK VINA RESULT:      -8.2      3.725      5.713
REMARK  Name = 
REMARK  6 active torsions:
REMARK  status: ('A' for Active; 'I' for Inactive)
REMARK    1  A    between atoms: C_2  and  C_11
REMARK    2  A    between atoms: N_3  and  C_4
REMARK    3  A    between atoms: C_11  and  O_12
REMARK    4  A    between atoms: C_11  and  C_13
REMARK    5  A    between atoms: C_13  and  O_14
REMARK    6  A    between atoms: C_13  and  C_15
REMARK                            x       y       z     vdW  Elec       q    Type
REMARK                         _______ _______ _______ _____ _____    ______ ____
ROOT
ATOM      1  C   UNL     1       7.323   6.358  17.273  0.00  0.00    +0.000 C 
ENDROOT
BRANCH   1   2
ATOM      2  C   UNL     1       5.813   6.487  16.981  0.00  0.00    +0.000 C 
ATOM      3  O   UNL     1       5.424   6.984  15.919  0.00  0.00    +0.000 OA
ATOM      4  N   UNL     1       4.922   5.960  17.911  0.00  0.00    +0.000 N 
ATOM      5  C   UNL     1       5.321   5.297  19.155  0.00  0.00    +0.000 C 
ATOM      6  C   UNL     1       4.600   3.966  19.323  0.00  0.00    +0.000 C 
ATOM      7  C   UNL     1       3.076   4.111  19.175  0.00  0.00    +0.000 C 
ATOM      8  C   UNL     1       2.432   4.783  20.407  0.00  0.00    +0.000 C 
ATOM      9  C   UNL     1       2.183   3.632  21.368  0.00  0.00    +0.000 C 
ATOM     10  N   UNL     1       1.964   2.519  20.500  0.00  0.00    +0.000 N 
ATOM     11  C   UNL     1       2.451   2.724  19.227  0.00  0.00    +0.000 C 
ATOM     12  O   UNL     1       2.430   1.895  18.335  0.00  0.00    +0.000 OA
ATOM     13  C   UNL     1       2.739   4.819  17.859  0.00  0.00    +0.000 C 
ATOM     14  C   UNL     1       3.485   6.142  17.723  0.00  0.00    +0.000 C 
ATOM     15  H   UNL     1       1.582   1.620  20.768  0.00  0.00    +0.000 HD
ENDBRANCH   1   2
BRANCH   1  16
ATOM     16  O   UNL     1       7.782   5.010  17.332  0.00  0.00    +0.000 OA
ATOM     17  H   UNL     1       8.742   5.045  17.541  0.00  0.00    +0.000 HD
ENDBRANCH   1  16
BRANCH   1  18
ATOM     18  C   UNL     1       7.687   7.146  18.554  0.00  0.00    +0.000 C 
BRANCH  18  20
ATOM     19  O   UNL     1       7.817   9.113  17.145  0.00  0.00    +0.000 OA
ATOM     20  C   UNL     1       8.149   8.570  18.198  0.00  0.00    +0.000 C 
ATOM     21  N   UNL     1       8.949   9.131  19.176  0.00  0.00    +0.000 N 
ATOM     22  H   UNL     1       9.454   8.454  19.743  0.00  0.00    +0.000 HD
BRANCH  21  23
ATOM     23  C   UNL     1       9.524  10.409  19.052  0.00  0.00    +0.000 A 
ATOM     24  C   UNL     1      10.120  10.806  17.850  0.00  0.00    +0.000 A 
ATOM     25  C   UNL     1      10.631  12.098  17.717  0.00  0.00    +0.000 A 
ATOM     26  C   UNL     1      10.577  12.986  18.791  0.00  0.00    +0.000 A 
ATOM     27  C   UNL     1      10.002  12.588  20.000  0.00  0.00    +0.000 A 
ATOM     28  C   UNL     1       9.459  11.310  20.124  0.00  0.00    +0.000 A 
ATOM     29 CL   UNL     1       8.788  10.837  21.646  0.00  0.00    +0.000 Cl
ENDBRANCH  21  23
ENDBRANCH  18  20
BRANCH  18  30
ATOM     30  O   UNL     1       8.619   6.436  19.377  0.00  0.00    +0.000 OA
ATOM     31  H   UNL     1       9.475   6.912  19.307  0.00  0.00    +0.000 HD
ENDBRANCH  18  30
ENDBRANCH   1  18
TORSDOF 6
ENDMDL
MODEL 5
REMARK VINA RESULT:      -8.0      5.766      8.830
REMARK  Name = 
REMARK  6 active torsions:
REMARK  status: ('A' for Active; 'I' for Inactive)
REMARK    1  A    between atoms: C_2  and  C_11
REMARK    2  A    between atoms: N_3  and  C_4
REMARK    3  A    between atoms: C_11  and  O_12
REMARK    4  A    between atoms: C_11  and  C_13
REMARK    5  A    between atoms: C_13  and  O_14
REMARK    6  A    between atoms: C_13  and  C_15
REMARK                            x       y       z     vdW  Elec       q    Type
REMARK                         _______ _______ _______ _____ _____    ______ ____
ROOT
ATOM      1  C   UNL     1       1.827   8.771  18.219  0.00  0.00    +0.000 C 
ENDROOT
BRANCH   1   2
ATOM      2  C   UNL     1       1.965   7.883  19.474  0.00  0.00    +0.000 C 
ATOM      3  O   UNL     1       1.664   8.326  20.587  0.00  0.00    +0.000 OA
ATOM      4  N   UNL     1       2.363   6.561  19.296  0.00  0.00    +0.000 N 
ATOM      5  C   UNL     1       2.668   5.956  17.997  0.00  0.00    +0.000 C 
ATOM      6  C   UNL     1       1.944   4.628  17.828  0.00  0.00    +0.000 C 
ATOM      7  C   UNL     1       2.193   3.677  19.011  0.00  0.00    +0.000 C 
ATOM      8  C   UNL     1       3.615   3.075  18.986  0.00  0.00    +0.000 C 
ATOM      9  C   UNL     1       3.483   1.852  18.093  0.00  0.00    +0.000 C 
ATOM     10  N   UNL     1       2.132   1.438  18.300  0.00  0.00    +0.000 N 
ATOM     11  C   UNL     1       1.336   2.434  18.824  0.00  0.00    +0.000 C 
ATOM     12  O   UNL     1       0.140   2.330  19.029  0.00  0.00    +0.000 OA
ATOM     13  C   UNL     1       1.862   4.382  20.332  0.00  0.00    +0.000 C 
ATOM     14  C   UNL     1       2.597   5.712  20.461  0.00  0.00    +0.000 C 
ATOM     15  H   UNL     1       1.731   0.550  18.021  0.00  0.00    +0.000 HD
ENDBRANCH   1   2
BRANCH   1  16
ATOM     16  O   UNL     1       2.831   8.532  17.236  0.00  0.00    +0.000 OA
ATOM     17  H   UNL     1       3.467   9.279  17.290  0.00  0.00    +0.000 HD
ENDBRANCH   1  16
BRANCH   1  18
ATOM     18  C   UNL     1       1.767  10.263  18.627  0.00  0.00    +0.000 C 
BRANCH  18  20
ATOM     19  O   UNL     1      -0.653  10.259  18.756  0.00  0.00    +0.000 OA
ATOM     20  C   UNL     1       0.411  10.589  19.278  0.00  0.00    +0.000 C 
ATOM     21  N   UNL     1       0.545  11.269  20.473  0.00  0.00    +0.000 N 
ATOM     22  H   UNL     1       1.402  11.812  20.553  0.00  0.00    +0.000 HD
BRANCH  21  23
ATOM     23  C   UNL     1      -0.557  11.710  21.229  0.00  0.00    +0.000 A 
ATOM     24  C   UNL     1      -1.351  12.768  20.775  0.00  0.00    +0.000 A 
ATOM     25  C   UNL     1      -2.479  13.157  21.499  0.00  0.00    +0.000 A 
ATOM     26  C   UNL     1      -2.800  12.512  22.694  0.00  0.00    +0.000 A 
ATOM     27  C   UNL     1      -1.999  11.469  23.163  0.00  0.00    +0.000 A 
ATOM     28  C   UNL     1      -0.892  11.055  22.421  0.00  0.00    +0.000 A 
ATOM     29 CL   UNL     1       0.099   9.786  23.050  0.00  0.00    +0.000 Cl
ENDBRANCH  21  23
ENDBRANCH  18  20
BRANCH  18  30
ATOM     30  O   UNL     1       2.098  11.133  17.538  0.00  0.00    +0.000 OA
ATOM     31  H   UNL     1       2.880  11.654  17.823  0.00  0.00    +0.000 HD
ENDBRANCH  18  30
ENDBRANCH   1  18
TORSDOF 6
ENDMDL
MODEL 6
REMARK VINA RESULT:      -8.0      5.984      8.319
REMARK  Name = 
REMARK  6 active torsions:
REMARK  status: ('A' for Active; 'I' for Inactive)
REMARK    1  A    between atoms: C_2  and  C_11
REMARK    2  A    between atoms: N_3  and  C_4
REMARK    3  A    between atoms: C_11  and  O_12
REMARK    4  A    between atoms: C_11  and  C_13
REMARK    5  A    between atoms: C_13  and  O_14
REMARK    6  A    between atoms: C_13  and  C_15
REMARK                            x       y       z     vdW  Elec       q    Type
REMARK                         _______ _______ _______ _____ _____    ______ ____
ROOT
ATOM      1  C   UNL     1       1.364   8.916  19.188  0.00  0.00    +0.000 C 
ENDROOT
BRANCH   1   2
ATOM      2  C   UNL     1       1.626   7.830  20.253  0.00  0.00    +0.000 C 
ATOM      3  O   UNL     1       1.333   8.033  21.435  0.00  0.00    +0.000 OA
ATOM      4  N   UNL     1       2.127   6.604  19.824  0.00  0.00    +0.000 N 
ATOM      5  C   UNL     1       2.430   6.276  18.429  0.00  0.00    +0.000 C 
ATOM      6  C   UNL     1       1.815   4.941  18.034  0.00  0.00    +0.000 C 
ATOM      7  C   UNL     1       2.191   3.817  19.015  0.00  0.00    +0.000 C 
ATOM      8  C   UNL     1       3.656   3.361  18.846  0.00  0.00    +0.000 C 
ATOM      9  C   UNL     1       3.593   2.314  17.745  0.00  0.00    +0.000 C 
ATOM     10  N   UNL     1       2.290   1.749  17.903  0.00  0.00    +0.000 N 
ATOM     11  C   UNL     1       1.435   2.557  18.621  0.00  0.00    +0.000 C 
ATOM     12  O   UNL     1       0.261   2.309  18.831  0.00  0.00    +0.000 OA
ATOM     13  C   UNL     1       1.854   4.236  20.450  0.00  0.00    +0.000 C 
ATOM     14  C   UNL     1       2.478   5.581  20.806  0.00  0.00    +0.000 C 
ATOM     15  H   UNL     1       1.955   0.894  17.474  0.00  0.00    +0.000 HD
ENDBRANCH   1   2
BRANCH   1  16
ATOM     16  O   UNL     1       2.544   9.363  18.525  0.00  0.00    +0.000 OA
ATOM     17  H   UNL     1       2.657   8.797  17.729  0.00  0.00    +0.000 HD
ENDBRANCH   1  16
BRANCH   1  18
ATOM     18  C   UNL     1       0.573  10.092  19.809  0.00  0.00    +0.000 C 
BRANCH  18  20
ATOM     19  O   UNL     1      -0.044  11.864  18.276  0.00  0.00    +0.000 OA
ATOM     20  C   UNL     1      -0.318  10.762  18.747  0.00  0.00    +0.000 C 
ATOM     21  N   UNL     1      -1.415   9.991  18.410  0.00  0.00    +0.000 N 
ATOM     22  H   UNL     1      -1.719   9.352  19.141  0.00  0.00    +0.000 HD
BRANCH  21  23
ATOM     23  C   UNL     1      -2.392  10.415  17.492  0.00  0.00    +0.000 A 
ATOM     24  C   UNL     1      -2.397   9.924  16.181  0.00  0.00    +0.000 A 
ATOM     25  C   UNL     1      -3.407  10.301  15.297  0.00  0.00    +0.000 A 
ATOM     26  C   UNL     1      -4.399  11.194  15.706  0.00  0.00    +0.000 A 
ATOM     27  C   UNL     1      -4.387  11.704  17.006  0.00  0.00    +0.000 A 
ATOM     28  C   UNL     1      -3.398  11.300  17.902  0.00  0.00    +0.000 A 
ATOM     29 CL   UNL     1      -3.393  11.980  19.492  0.00  0.00    +0.000 Cl
ENDBRANCH  21  23
ENDBRANCH  18  20
BRANCH  18  30
ATOM     30  O   UNL     1       1.427  11.013  20.496  0.00  0.00    +0.000 OA
ATOM     31  H   UNL     1       1.083  11.912  20.303  0.00  0.00    +0.000 HD
ENDBRANCH  18  30
ENDBRANCH   1  18
TORSDOF 6
ENDMDL
MODEL 7
REMARK VINA RESULT:      -7.9      6.102      8.357
REMARK  Name = 
REMARK  6 active torsions:
REMARK  status: ('A' for Active; 'I' for Inactive)
REMARK    1  A    between atoms: C_2  and  C_11
REMARK    2  A    between atoms: N_3  and  C_4
REMARK    3  A    between atoms: C_11  and  O_12
REMARK    4  A    between atoms: C_11  and  C_13
REMARK    5  A    between atoms: C_13  and  O_14
REMARK    6  A    between atoms: C_13  and  C_15
REMARK                            x       y       z     vdW  Elec       q    Type
REMARK                         _______ _______ _______ _____ _____    ______ ____
ROOT
ATOM      1  C   UNL     1       1.478   8.957  18.646  0.00  0.00    +0.000 C 
ENDROOT
BRANCH   1   2
ATOM      2  C   UNL     1       1.725   7.975  19.811  0.00  0.00    +0.000 C 
ATOM      3  O   UNL     1       1.454   8.303  20.971  0.00  0.00    +0.000 OA
ATOM      4  N   UNL     1       2.187   6.699  19.501  0.00  0.00    +0.000 N 
ATOM      5  C   UNL     1       2.463   6.226  18.142  0.00  0.00    +0.000 C 
ATOM      6  C   UNL     1       1.807   4.875  17.889  0.00  0.00    +0.000 C 
ATOM      7  C   UNL     1       2.166   3.845  18.973  0.00  0.00    +0.000 C 
ATOM      8  C   UNL     1       3.616   3.334  18.834  0.00  0.00    +0.000 C 
ATOM      9  C   UNL     1       3.511   2.185  17.844  0.00  0.00    +0.000 C 
ATOM     10  N   UNL     1       2.196   1.675  18.072  0.00  0.00    +0.000 N 
ATOM     11  C   UNL     1       1.372   2.573  18.715  0.00  0.00    +0.000 C 
ATOM     12  O   UNL     1       0.195   2.380  18.962  0.00  0.00    +0.000 OA
ATOM     13  C   UNL     1       1.860   4.414  20.363  0.00  0.00    +0.000 C 
ATOM     14  C   UNL     1       2.525   5.770  20.576  0.00  0.00    +0.000 C 
ATOM     15  H   UNL     1       1.832   0.791  17.734  0.00  0.00    +0.000 HD
ENDBRANCH   1   2
BRANCH   1  16
ATOM     16  O   UNL     1       2.661   9.599  18.178  0.00  0.00    +0.000 OA
ATOM     17  H   UNL     1       2.721  10.461  18.647  0.00  0.00    +0.000 HD
ENDBRANCH   1  16
BRANCH   1  18
ATOM     18  C   UNL     1       0.384   9.980  19.034  0.00  0.00    +0.000 C 
BRANCH  18  20
ATOM     19  O   UNL     1       1.430  11.566  20.537  0.00  0.00    +0.000 OA
ATOM     20  C   UNL     1       1.018  11.333  19.401  0.00  0.00    +0.000 C 
ATOM     21  N   UNL     1       1.061  12.209  18.333  0.00  0.00    +0.000 N 
ATOM     22  H   UNL     1       0.344  12.046  17.629  0.00  0.00    +0.000 HD
BRANCH  21  23
ATOM     23  C   UNL     1       1.559  13.520  18.440  0.00  0.00    +0.000 A 
ATOM     24  C   UNL     1       2.872  13.814  18.057  0.00  0.00    +0.000 A 
ATOM     25  C   UNL     1       3.337  15.128  18.107  0.00  0.00    +0.000 A 
ATOM     26  C   UNL     1       2.505  16.149  18.568  0.00  0.00    +0.000 A 
ATOM     27  C   UNL     1       1.200  15.858  18.972  0.00  0.00    +0.000 A 
ATOM     28  C   UNL     1       0.722  14.550  18.889  0.00  0.00    +0.000 A 
ATOM     29 CL   UNL     1      -0.886  14.219  19.431  0.00  0.00    +0.000 Cl
ENDBRANCH  21  23
ENDBRANCH  18  20
BRANCH  18  30
ATOM     30  O   UNL     1      -0.496   9.472  20.042  0.00  0.00    +0.000 OA
ATOM     31  H   UNL     1       0.073   9.072  20.735  0.00  0.00    +0.000 HD
ENDBRANCH  18  30
ENDBRANCH   1  18
TORSDOF 6
ENDMDL
MODEL 8
REMARK VINA RESULT:      -7.8      3.941      5.976
REMARK  Name = 
REMARK  6 active torsions:
REMARK  status: ('A' for Active; 'I' for Inactive)
REMARK    1  A    between atoms: C_2  and  C_11
REMARK    2  A    between atoms: N_3  and  C_4
REMARK    3  A    between atoms: C_11  and  O_12
REMARK    4  A    between atoms: C_11  and  C_13
REMARK    5  A    between atoms: C_13  and  O_14
REMARK    6  A    between atoms: C_13  and  C_15
REMARK                            x       y       z     vdW  Elec       q    Type
REMARK                         _______ _______ _______ _____ _____    ______ ____
ROOT
ATOM      1  C   UNL     1       7.027   6.528  17.499  0.00  0.00    +0.000 C 
ENDROOT
BRANCH   1   2
ATOM      2  C   UNL     1       6.787   5.047  17.862  0.00  0.00    +0.000 C 
ATOM      3  O   UNL     1       7.743   4.295  18.076  0.00  0.00    +0.000 OA
ATOM      4  N   UNL     1       5.471   4.618  18.011  0.00  0.00    +0.000 N 
ATOM      5  C   UNL     1       4.297   5.476  17.839  0.00  0.00    +0.000 C 
ATOM      6  C   UNL     1       3.337   5.332  19.012  0.00  0.00    +0.000 C 
ATOM      7  C   UNL     1       2.978   3.863  19.290  0.00  0.00    +0.000 C 
ATOM      8  C   UNL     1       2.008   3.290  18.235  0.00  0.00    +0.000 C 
ATOM      9  C   UNL     1       0.630   3.674  18.751  0.00  0.00    +0.000 C 
ATOM     10  N   UNL     1       0.804   3.696  20.168  0.00  0.00    +0.000 N 
ATOM     11  C   UNL     1       2.125   3.802  20.549  0.00  0.00    +0.000 C 
ATOM     12  O   UNL     1       2.509   3.896  21.701  0.00  0.00    +0.000 OA
ATOM     13  C   UNL     1       4.254   3.029  19.448  0.00  0.00    +0.000 C 
ATOM     14  C   UNL     1       5.194   3.206  18.260  0.00  0.00    +0.000 C 
ATOM     15  H   UNL     1       0.064   3.725  20.860  0.00  0.00    +0.000 HD
ENDBRANCH   1   2
BRANCH   1  16
ATOM     16  O   UNL     1       7.788   6.709  16.308  0.00  0.00    +0.000 OA
ATOM     17  H   UNL     1       7.174   6.569  15.553  0.00  0.00    +0.000 HD
ENDBRANCH   1  16
BRANCH   1  18
ATOM     18  C   UNL     1       7.654   7.277  18.701  0.00  0.00    +0.000 C 
BRANCH  18  20
ATOM     19  O   UNL     1       7.669   9.224  17.258  0.00  0.00    +0.000 OA
ATOM     20  C   UNL     1       8.091   8.692  18.284  0.00  0.00    +0.000 C 
ATOM     21  N   UNL     1       8.980   9.259  19.177  0.00  0.00    +0.000 N 
ATOM     22  H   UNL     1       9.530   8.585  19.706  0.00  0.00    +0.000 HD
BRANCH  21  23
ATOM     23  C   UNL     1       9.551  10.530  18.985  0.00  0.00    +0.000 A 
ATOM     24  C   UNL     1      10.155  10.860  17.766  0.00  0.00    +0.000 A 
ATOM     25  C   UNL     1      10.661  12.144  17.563  0.00  0.00    +0.000 A 
ATOM     26  C   UNL     1      10.595  13.093  18.583  0.00  0.00    +0.000 A 
ATOM     27  C   UNL     1      10.012  12.763  19.808  0.00  0.00    +0.000 A 
ATOM     28  C   UNL     1       9.473  11.491  20.001  0.00  0.00    +0.000 A 
ATOM     29 CL   UNL     1       8.792  11.105  21.543  0.00  0.00    +0.000 Cl
ENDBRANCH  21  23
ENDBRANCH  18  20
BRANCH  18  30
ATOM     30  O   UNL     1       8.697   6.519  19.323  0.00  0.00    +0.000 OA
ATOM     31  H   UNL     1       9.305   7.169  19.739  0.00  0.00    +0.000 HD
ENDBRANCH  18  30
ENDBRANCH   1  18
TORSDOF 6
ENDMDL
MODEL 9
REMARK VINA RESULT:      -7.8      5.784      8.801
REMARK  Name = 
REMARK  6 active torsions:
REMARK  status: ('A' for Active; 'I' for Inactive)
REMARK    1  A    between atoms: C_2  and  C_11
REMARK    2  A    between atoms: N_3  and  C_4
REMARK    3  A    between atoms: C_11  and  O_12
REMARK    4  A    between atoms: C_11  and  C_13
REMARK    5  A    between atoms: C_13  and  O_14
REMARK    6  A    between atoms: C_13  and  C_15
REMARK                            x       y       z     vdW  Elec       q    Type
REMARK                         _______ _______ _______ _____ _____    ______ ____
ROOT
ATOM      1  C   UNL     1       1.852   8.789  18.191  0.00  0.00    +0.000 C 
ENDROOT
BRANCH   1   2
ATOM      2  C   UNL     1       1.948   7.906  19.453  0.00  0.00    +0.000 C 
ATOM      3  O   UNL     1       1.611   8.354  20.555  0.00  0.00    +0.000 OA
ATOM      4  N   UNL     1       2.352   6.583  19.294  0.00  0.00    +0.000 N 
ATOM      5  C   UNL     1       2.699   5.973  18.008  0.00  0.00    +0.000 C 
ATOM      6  C   UNL     1       1.981   4.644  17.821  0.00  0.00    +0.000 C 
ATOM      7  C   UNL     1       2.192   3.698  19.016  0.00  0.00    +0.000 C 
ATOM      8  C   UNL     1       3.613   3.097  19.040  0.00  0.00    +0.000 C 
ATOM      9  C   UNL     1       3.511   1.870  18.149  0.00  0.00    +0.000 C 
ATOM     10  N   UNL     1       2.153   1.456  18.313  0.00  0.00    +0.000 N 
ATOM     11  C   UNL     1       1.341   2.455  18.806  0.00  0.00    +0.000 C 
ATOM     12  O   UNL     1       0.139   2.351  18.973  0.00  0.00    +0.000 OA
ATOM     13  C   UNL     1       1.818   4.408  20.322  0.00  0.00    +0.000 C 
ATOM     14  C   UNL     1       2.548   5.739  20.470  0.00  0.00    +0.000 C 
ATOM     15  H   UNL     1       1.761   0.567  18.025  0.00  0.00    +0.000 HD
ENDBRANCH   1   2
BRANCH   1  16
ATOM     16  O   UNL     1       2.854   8.507  17.218  0.00  0.00    +0.000 OA
ATOM     17  H   UNL     1       3.331   7.703  17.524  0.00  0.00    +0.000 HD
ENDBRANCH   1  16
BRANCH   1  18
ATOM     18  C   UNL     1       1.841  10.285  18.587  0.00  0.00    +0.000 C 
BRANCH  18  20
ATOM     19  O   UNL     1      -0.575  10.372  18.758  0.00  0.00    +0.000 OA
ATOM     20  C   UNL     1       0.510  10.652  19.267  0.00  0.00    +0.000 C 
ATOM     21  N   UNL     1       0.690  11.308  20.470  0.00  0.00    +0.000 N 
ATOM     22  H   UNL     1       1.569  11.816  20.543  0.00  0.00    +0.000 HD
BRANCH  21  23
ATOM     23  C   UNL     1      -0.381  11.778  21.251  0.00  0.00    +0.000 A 
ATOM     24  C   UNL     1      -0.849  11.032  22.338  0.00  0.00    +0.000 A 
ATOM     25  C   UNL     1      -1.869  11.536  23.145  0.00  0.00    +0.000 A 
ATOM     26  C   UNL     1      -2.448  12.772  22.852  0.00  0.00    +0.000 A 
ATOM     27  C   UNL     1      -1.999  13.511  21.756  0.00  0.00    +0.000 A 
ATOM     28  C   UNL     1      -0.955  13.025  20.970  0.00  0.00    +0.000 A 
ATOM     29 CL   UNL     1      -0.450  13.950  19.599  0.00  0.00    +0.000 Cl
ENDBRANCH  21  23
ENDBRANCH  18  20
BRANCH  18  30
ATOM     30  O   UNL     1       2.169  11.137  17.484  0.00  0.00    +0.000 OA
ATOM     31  H   UNL     1       3.096  10.928  17.234  0.00  0.00    +0.000 HD
ENDBRANCH  18  30
ENDBRANCH   1  18
TORSDOF 6
ENDMDL
