MODEL 1
REMARK VINA RESULT:      -8.9      0.000      0.000
REMARK  Name = 
REMARK  7 active torsions:
REMARK  status: ('A' for Active; 'I' for Inactive)
REMARK    1  A    between atoms: C_2  and  C_3
REMARK    2  A    between atoms: C_4  and  C_5
REMARK    3  A    between atoms: C_8  and  C_9
REMARK    4  A    between atoms: C_16  and  N_17
REMARK    5  A    between atoms: N_17  and  C_18
REMARK    6  A    between atoms: C_18  and  C_19
REMARK    7  A    between atoms: C_19  and  N_20
REMARK                            x       y       z     vdW  Elec       q    Type
REMARK                         _______ _______ _______ _____ _____    ______ ____
ROOT
ATOM      1  C   UNL     1       2.072   7.222  19.696  0.00  0.00    +0.000 A 
ATOM      2  C   UNL     1       2.677   7.574  18.460  0.00  0.00    +0.000 A 
ATOM      3  C   UNL     1       2.442   8.873  17.958  0.00  0.00    +0.000 A 
ATOM      4  C   UNL     1       1.639   9.813  18.652  0.00  0.00    +0.000 A 
ATOM      5  N   UNL     1       1.138   9.445  19.884  0.00  0.00    +0.000 N 
ATOM      6  C   UNL     1       1.345   8.194  20.379  0.00  0.00    +0.000 A 
ATOM      7  N   UNL     1       0.787   7.985  21.590  0.00  0.00    +0.000 NA
ATOM      8  C   UNL     1       0.197   9.146  21.876  0.00  0.00    +0.000 A 
ATOM      9  C   UNL     1      -0.511   9.436  23.034  0.00  0.00    +0.000 A 
ATOM     10  C   UNL     1      -1.075  10.710  23.156  0.00  0.00    +0.000 A 
ATOM     11  C   UNL     1      -0.921  11.654  22.122  0.00  0.00    +0.000 A 
ATOM     12  C   UNL     1      -0.192  11.334  20.954  0.00  0.00    +0.000 A 
ATOM     13  C   UNL     1       0.379  10.049  20.850  0.00  0.00    +0.000 A 
ENDROOT
BRANCH   2  14
ATOM     14  C   UNL     1       3.568   6.637  17.690  0.00  0.00    +0.000 A 
ATOM     15  C   UNL     1       4.725   7.089  17.030  0.00  0.00    +0.000 A 
ATOM     16  C   UNL     1       5.509   6.225  16.268  0.00  0.00    +0.000 A 
ATOM     17  C   UNL     1       5.160   4.874  16.135  0.00  0.00    +0.000 A 
ATOM     18  C   UNL     1       4.022   4.399  16.805  0.00  0.00    +0.000 A 
ATOM     19  C   UNL     1       3.240   5.265  17.580  0.00  0.00    +0.000 A 
BRANCH  17  20
ATOM     20  C   UNL     1       5.977   3.937  15.281  0.00  0.00    +0.000 C 
ATOM     21  F   UNL     1       7.317   4.290  15.273  0.00  0.00    +0.000 F 
ATOM     22  F   UNL     1       5.864   2.647  15.766  0.00  0.00    +0.000 F 
ATOM     23  F   UNL     1       5.508   3.975  13.980  0.00  0.00    +0.000 F 
ENDBRANCH  17  20
ENDBRANCH   2  14
BRANCH   1  25
ATOM     24  N   UNL     1       2.307   4.909  20.858  0.00  0.00    +0.000 NA
ATOM     25  C   UNL     1       2.186   5.929  20.326  0.00  0.00    +0.000 C 
ENDBRANCH   1  25
BRANCH   4  26
ATOM     26  N   UNL     1       1.365  11.082  18.045  0.00  0.00    +0.000 N 
ATOM     27  H   UNL     1       0.539  11.214  17.463  0.00  0.00    +0.000 HD
BRANCH  26  28
ATOM     28  C   UNL     1       2.295  12.208  18.104  0.00  0.00    +0.000 C 
BRANCH  28  29
ATOM     29  C   UNL     1       1.498  13.520  18.358  0.00  0.00    +0.000 C 
BRANCH  29  30
ATOM     30  N   UNL     1       2.296  14.713  18.708  0.00  0.00    +0.000 NA
ATOM     31  C   UNL     1       1.545  15.917  19.099  0.00  0.00    +0.000 C 
ATOM     32  C   UNL     1       1.927  16.982  18.082  0.00  0.00    +0.000 C 
ATOM     33  C   UNL     1       3.386  16.645  17.862  0.00  0.00    +0.000 C 
ATOM     34  C   UNL     1       3.300  15.135  17.714  0.00  0.00    +0.000 C 
ENDBRANCH  29  30
ENDBRANCH  28  29
ENDBRANCH  26  28
ENDBRANCH   4  26
TORSDOF 7
ENDMDL
MODEL 2
REMARK VINA RESULT:      -8.9      0.407      1.132
REMARK  Name = 
REMARK  7 active torsions:
REMARK  status: ('A' for Active; 'I' for Inactive)
REMARK    1  A    between atoms: C_2  and  C_3
REMARK    2  A    between atoms: C_4  and  C_5
REMARK    3  A    between atoms: C_8  and  C_9
REMARK    4  A    between atoms: C_16  and  N_17
REMARK    5  A    between atoms: N_17  and  C_18
REMARK    6  A    between atoms: C_18  and  C_19
REMARK    7  A    between atoms: C_19  and  N_20
REMARK                            x       y       z     vdW  Elec       q    Type
REMARK                         _______ _______ _______ _____ _____    ______ ____
ROOT
ATOM      1  C   UNL     1       2.033   7.295  19.696  0.00  0.00    +0.000 A 
ATOM      2  C   UNL     1       2.623   7.641  18.451  0.00  0.00    +0.000 A 
ATOM      3  C   UNL     1       2.388   8.941  17.950  0.00  0.00    +0.000 A 
ATOM      4  C   UNL     1       1.599   9.886  18.653  0.00  0.00    +0.000 A 
ATOM      5  N   UNL     1       1.113   9.524  19.892  0.00  0.00    +0.000 N 
ATOM      6  C   UNL     1       1.321   8.273  20.388  0.00  0.00    +0.000 A 
ATOM      7  N   UNL     1       0.779   8.068  21.607  0.00  0.00    +0.000 NA
ATOM      8  C   UNL     1       0.200   9.233  21.898  0.00  0.00    +0.000 A 
ATOM      9  C   UNL     1      -0.491   9.529  23.066  0.00  0.00    +0.000 A 
ATOM     10  C   UNL     1      -1.046  10.806  23.192  0.00  0.00    +0.000 A 
ATOM     11  C   UNL     1      -0.902  11.747  22.155  0.00  0.00    +0.000 A 
ATOM     12  C   UNL     1      -0.191  11.422  20.977  0.00  0.00    +0.000 A 
ATOM     13  C   UNL     1       0.372  10.133  20.867  0.00  0.00    +0.000 A 
ENDROOT
BRANCH   2  14
ATOM     14  C   UNL     1       3.498   6.698  17.671  0.00  0.00    +0.000 A 
ATOM     15  C   UNL     1       3.227   5.319  17.604  0.00  0.00    +0.000 A 
ATOM     16  C   UNL     1       4.079   4.446  16.931  0.00  0.00    +0.000 A 
ATOM     17  C   UNL     1       5.238   4.920  16.303  0.00  0.00    +0.000 A 
ATOM     18  C   UNL     1       5.514   6.296  16.338  0.00  0.00    +0.000 A 
ATOM     19  C   UNL     1       4.652   7.176  17.006  0.00  0.00    +0.000 A 
BRANCH  17  20
ATOM     20  C   UNL     1       6.189   3.980  15.604  0.00  0.00    +0.000 C 
ATOM     21  F   UNL     1       6.168   4.161  14.230  0.00  0.00    +0.000 F 
ATOM     22  F   UNL     1       7.476   4.196  16.058  0.00  0.00    +0.000 F 
ATOM     23  F   UNL     1       5.824   2.674  15.877  0.00  0.00    +0.000 F 
ENDBRANCH  17  20
ENDBRANCH   2  14
BRANCH   1  25
ATOM     24  N   UNL     1       2.205   4.973  20.852  0.00  0.00    +0.000 NA
ATOM     25  C   UNL     1       2.150   6.003  20.328  0.00  0.00    +0.000 C 
ENDBRANCH   1  25
BRANCH   4  26
ATOM     26  N   UNL     1       1.323  11.155  18.047  0.00  0.00    +0.000 N 
ATOM     27  H   UNL     1       0.471  11.301  17.508  0.00  0.00    +0.000 HD
BRANCH  26  28
ATOM     28  C   UNL     1       2.280  12.259  18.044  0.00  0.00    +0.000 C 
BRANCH  28  29
ATOM     29  C   UNL     1       1.581  13.547  18.568  0.00  0.00    +0.000 C 
BRANCH  29  30
ATOM     30  N   UNL     1       2.466  14.684  18.895  0.00  0.00    +0.000 NA
ATOM     31  C   UNL     1       2.030  16.012  18.434  0.00  0.00    +0.000 C 
ATOM     32  C   UNL     1       3.129  16.499  17.501  0.00  0.00    +0.000 C 
ATOM     33  C   UNL     1       4.352  15.949  18.201  0.00  0.00    +0.000 C 
ATOM     34  C   UNL     1       3.881  14.537  18.508  0.00  0.00    +0.000 C 
ENDBRANCH  29  30
ENDBRANCH  28  29
ENDBRANCH  26  28
ENDBRANCH   4  26
TORSDOF 7
ENDMDL
MODEL 3
REMARK VINA RESULT:      -8.9      0.663      1.187
REMARK  Name = 
REMARK  7 active torsions:
REMARK  status: ('A' for Active; 'I' for Inactive)
REMARK    1  A    between atoms: C_2  and  C_3
REMARK    2  A    between atoms: C_4  and  C_5
REMARK    3  A    between atoms: C_8  and  C_9
REMARK    4  A    between atoms: C_16  and  N_17
REMARK    5  A    between atoms: N_17  and  C_18
REMARK    6  A    between atoms: C_18  and  C_19
REMARK    7  A    between atoms: C_19  and  N_20
REMARK                            x       y       z     vdW  Elec       q    Type
REMARK                         _______ _______ _______ _____ _____    ______ ____
ROOT
ATOM      1  C   UNL     1       2.112   7.211  19.709  0.00  0.00    +0.000 A 
ATOM      2  C   UNL     1       2.698   7.555  18.463  0.00  0.00    +0.000 A 
ATOM      3  C   UNL     1       2.437   8.844  17.946  0.00  0.00    +0.000 A 
ATOM      4  C   UNL     1       1.628   9.781  18.637  0.00  0.00    +0.000 A 
ATOM      5  N   UNL     1       1.146   9.422  19.879  0.00  0.00    +0.000 N 
ATOM      6  C   UNL     1       1.378   8.181  20.389  0.00  0.00    +0.000 A 
ATOM      7  N   UNL     1       0.837   7.979  21.609  0.00  0.00    +0.000 NA
ATOM      8  C   UNL     1       0.233   9.136  21.886  0.00  0.00    +0.000 A 
ATOM      9  C   UNL     1      -0.466   9.430  23.048  0.00  0.00    +0.000 A 
ATOM     10  C   UNL     1      -1.048  10.697  23.160  0.00  0.00    +0.000 A 
ATOM     11  C   UNL     1      -0.919  11.629  22.112  0.00  0.00    +0.000 A 
ATOM     12  C   UNL     1      -0.199  11.305  20.939  0.00  0.00    +0.000 A 
ATOM     13  C   UNL     1       0.390  10.027  20.846  0.00  0.00    +0.000 A 
ENDROOT
BRANCH   2  14
ATOM     14  C   UNL     1       3.594   6.622  17.695  0.00  0.00    +0.000 A 
ATOM     15  C   UNL     1       4.758   7.076  17.047  0.00  0.00    +0.000 A 
ATOM     16  C   UNL     1       5.547   6.215  16.287  0.00  0.00    +0.000 A 
ATOM     17  C   UNL     1       5.197   4.866  16.142  0.00  0.00    +0.000 A 
ATOM     18  C   UNL     1       4.052   4.388  16.800  0.00  0.00    +0.000 A 
ATOM     19  C   UNL     1       3.265   5.251  17.573  0.00  0.00    +0.000 A 
BRANCH  17  20
ATOM     20  C   UNL     1       6.020   3.932  15.291  0.00  0.00    +0.000 C 
ATOM     21  F   UNL     1       5.912   2.620  15.721  0.00  0.00    +0.000 F 
ATOM     22  F   UNL     1       5.595   4.002  13.977  0.00  0.00    +0.000 F 
ATOM     23  F   UNL     1       7.351   4.305  15.358  0.00  0.00    +0.000 F 
ENDBRANCH  17  20
ENDBRANCH   2  14
BRANCH   1  25
ATOM     24  N   UNL     1       2.362   4.882  20.837  0.00  0.00    +0.000 NA
ATOM     25  C   UNL     1       2.253   5.929  20.356  0.00  0.00    +0.000 C 
ENDBRANCH   1  25
BRANCH   4  26
ATOM     26  N   UNL     1       1.328  11.037  18.017  0.00  0.00    +0.000 N 
ATOM     27  H   UNL     1       0.458  11.171  17.504  0.00  0.00    +0.000 HD
BRANCH  26  28
ATOM     28  C   UNL     1       2.281  12.143  17.960  0.00  0.00    +0.000 C 
BRANCH  28  29
ATOM     29  C   UNL     1       1.637  13.410  18.594  0.00  0.00    +0.000 C 
BRANCH  29  30
ATOM     30  N   UNL     1       2.545  14.549  18.847  0.00  0.00    +0.000 NA
ATOM     31  C   UNL     1       3.310  15.050  17.694  0.00  0.00    +0.000 C 
ATOM     32  C   UNL     1       4.773  14.872  18.070  0.00  0.00    +0.000 C 
ATOM     33  C   UNL     1       4.721  15.186  19.548  0.00  0.00    +0.000 C 
ATOM     34  C   UNL     1       3.499  14.381  19.958  0.00  0.00    +0.000 C 
ENDBRANCH  29  30
ENDBRANCH  28  29
ENDBRANCH  26  28
ENDBRANCH   4  26
TORSDOF 7
ENDMDL
MODEL 4
REMARK VINA RESULT:      -8.9      0.626      1.242
REMARK  Name = 
REMARK  7 active torsions:
REMARK  status: ('A' for Active; 'I' for Inactive)
REMARK    1  A    between atoms: C_2  and  C_3
REMARK    2  A    between atoms: C_4  and  C_5
REMARK    3  A    between atoms: C_8  and  C_9
REMARK    4  A    between atoms: C_16  and  N_17
REMARK    5  A    between atoms: N_17  and  C_18
REMARK    6  A    between atoms: C_18  and  C_19
REMARK    7  A    between atoms: C_19  and  N_20
REMARK                            x       y       z     vdW  Elec       q    Type
REMARK                         _______ _______ _______ _____ _____    ______ ____
ROOT
ATOM      1  C   UNL     1       2.143   7.171  19.687  0.00  0.00    +0.000 A 
ATOM      2  C   UNL     1       2.727   7.526  18.442  0.00  0.00    +0.000 A 
ATOM      3  C   UNL     1       2.466   8.820  17.937  0.00  0.00    +0.000 A 
ATOM      4  C   UNL     1       1.658   9.750  18.637  0.00  0.00    +0.000 A 
ATOM      5  N   UNL     1       1.178   9.381  19.877  0.00  0.00    +0.000 N 
ATOM      6  C   UNL     1       1.410   8.135  20.375  0.00  0.00    +0.000 A 
ATOM      7  N   UNL     1       0.871   7.923  21.594  0.00  0.00    +0.000 NA
ATOM      8  C   UNL     1       0.268   9.077  21.882  0.00  0.00    +0.000 A 
ATOM      9  C   UNL     1      -0.430   9.361  23.048  0.00  0.00    +0.000 A 
ATOM     10  C   UNL     1      -1.011  10.627  23.172  0.00  0.00    +0.000 A 
ATOM     11  C   UNL     1      -0.884  11.568  22.132  0.00  0.00    +0.000 A 
ATOM     12  C   UNL     1      -0.166  11.255  20.956  0.00  0.00    +0.000 A 
ATOM     13  C   UNL     1       0.423   9.977  20.850  0.00  0.00    +0.000 A 
ENDROOT
BRANCH   2  14
ATOM     14  C   UNL     1       3.622   6.599  17.665  0.00  0.00    +0.000 A 
ATOM     15  C   UNL     1       4.766   7.065  16.991  0.00  0.00    +0.000 A 
ATOM     16  C   UNL     1       5.553   6.209  16.223  0.00  0.00    +0.000 A 
ATOM     17  C   UNL     1       5.220   4.854  16.096  0.00  0.00    +0.000 A 
ATOM     18  C   UNL     1       4.096   4.365  16.780  0.00  0.00    +0.000 A 
ATOM     19  C   UNL     1       3.311   5.223  17.561  0.00  0.00    +0.000 A 
BRANCH  17  20
ATOM     20  C   UNL     1       6.041   3.925  15.236  0.00  0.00    +0.000 C 
ATOM     21  F   UNL     1       5.627   3.954  13.914  0.00  0.00    +0.000 F 
ATOM     22  F   UNL     1       7.372   4.294  15.290  0.00  0.00    +0.000 F 
ATOM     23  F   UNL     1       5.909   2.630  15.706  0.00  0.00    +0.000 F 
ENDBRANCH  17  20
ENDBRANCH   2  14
BRANCH   1  25
ATOM     24  N   UNL     1       2.432   4.865  20.852  0.00  0.00    +0.000 NA
ATOM     25  C   UNL     1       2.284   5.883  20.321  0.00  0.00    +0.000 C 
ENDBRANCH   1  25
BRANCH   4  26
ATOM     26  N   UNL     1       1.357  11.013  18.029  0.00  0.00    +0.000 N 
ATOM     27  H   UNL     1       0.475  11.159  17.540  0.00  0.00    +0.000 HD
BRANCH  26  28
ATOM     28  C   UNL     1       2.323  12.106  17.949  0.00  0.00    +0.000 C 
BRANCH  28  29
ATOM     29  C   UNL     1       1.993  13.165  19.040  0.00  0.00    +0.000 C 
BRANCH  29  30
ATOM     30  N   UNL     1       1.331  14.401  18.573  0.00  0.00    +0.000 NA
ATOM     31  C   UNL     1       1.944  15.673  18.990  0.00  0.00    +0.000 C 
ATOM     32  C   UNL     1       0.874  16.393  19.798  0.00  0.00    +0.000 C 
ATOM     33  C   UNL     1      -0.368  15.994  19.033  0.00  0.00    +0.000 C 
ATOM     34  C   UNL     1      -0.112  14.507  18.850  0.00  0.00    +0.000 C 
ENDBRANCH  29  30
ENDBRANCH  28  29
ENDBRANCH  26  28
ENDBRANCH   4  26
TORSDOF 7
ENDMDL
MODEL 5
REMARK VINA RESULT:      -8.8      2.328      3.386
REMARK  Name = 
REMARK  7 active torsions:
REMARK  status: ('A' for Active; 'I' for Inactive)
REMARK    1  A    between atoms: C_2  and  C_3
REMARK    2  A    between atoms: C_4  and  C_5
REMARK    3  A    between atoms: C_8  and  C_9
REMARK    4  A    between atoms: C_16  and  N_17
REMARK    5  A    between atoms: N_17  and  C_18
REMARK    6  A    between atoms: C_18  and  C_19
REMARK    7  A    between atoms: C_19  and  N_20
REMARK                            x       y       z     vdW  Elec       q    Type
REMARK                         _______ _______ _______ _____ _____    ______ ____
ROOT
ATOM      1  C   UNL     1       2.120   7.196  19.777  0.00  0.00    +0.000 A 
ATOM      2  C   UNL     1       2.586   7.539  18.480  0.00  0.00    +0.000 A 
ATOM      3  C   UNL     1       2.193   8.788  17.948  0.00  0.00    +0.000 A 
ATOM      4  C   UNL     1       1.371   9.687  18.671  0.00  0.00    +0.000 A 
ATOM      5  N   UNL     1       1.010   9.338  19.957  0.00  0.00    +0.000 N 
ATOM      6  C   UNL     1       1.370   8.135  20.483  0.00  0.00    +0.000 A 
ATOM      7  N   UNL     1       0.937   7.937  21.745  0.00  0.00    +0.000 NA
ATOM      8  C   UNL     1       0.272   9.056  22.034  0.00  0.00    +0.000 A 
ATOM      9  C   UNL     1      -0.360   9.339  23.238  0.00  0.00    +0.000 A 
ATOM     10  C   UNL     1      -1.023  10.564  23.357  0.00  0.00    +0.000 A 
ATOM     11  C   UNL     1      -1.042  11.467  22.276  0.00  0.00    +0.000 A 
ATOM     12  C   UNL     1      -0.388  11.155  21.062  0.00  0.00    +0.000 A 
ATOM     13  C   UNL     1       0.285   9.920  20.960  0.00  0.00    +0.000 A 
ENDROOT
BRANCH   2  14
ATOM     14  C   UNL     1       3.489   6.646  17.673  0.00  0.00    +0.000 A 
ATOM     15  C   UNL     1       4.571   7.159  16.935  0.00  0.00    +0.000 A 
ATOM     16  C   UNL     1       5.364   6.331  16.141  0.00  0.00    +0.000 A 
ATOM     17  C   UNL     1       5.098   4.958  16.054  0.00  0.00    +0.000 A 
ATOM     18  C   UNL     1       4.036   4.424  16.801  0.00  0.00    +0.000 A 
ATOM     19  C   UNL     1       3.246   5.254  17.607  0.00  0.00    +0.000 A 
BRANCH  17  20
ATOM     20  C   UNL     1       5.922   4.057  15.168  0.00  0.00    +0.000 C 
ATOM     21  F   UNL     1       7.235   4.492  15.080  0.00  0.00    +0.000 F 
ATOM     22  F   UNL     1       5.917   2.772  15.676  0.00  0.00    +0.000 F 
ATOM     23  F   UNL     1       5.381   4.046  13.895  0.00  0.00    +0.000 F 
ENDBRANCH  17  20
ENDBRANCH   2  14
BRANCH   1  25
ATOM     24  N   UNL     1       2.598   4.933  20.964  0.00  0.00    +0.000 NA
ATOM     25  C   UNL     1       2.403   5.950  20.448  0.00  0.00    +0.000 C 
ENDBRANCH   1  25
BRANCH   4  26
ATOM     26  N   UNL     1       0.934  10.897  18.040  0.00  0.00    +0.000 N 
ATOM     27  H   UNL     1       1.581  11.669  17.888  0.00  0.00    +0.000 HD
BRANCH  26  28
ATOM     28  C   UNL     1      -0.464  11.158  17.704  0.00  0.00    +0.000 C 
BRANCH  28  29
ATOM     29  C   UNL     1      -1.214   9.804  17.539  0.00  0.00    +0.000 C 
BRANCH  29  30
ATOM     30  N   UNL     1      -2.645   9.888  17.179  0.00  0.00    +0.000 NA
ATOM     31  C   UNL     1      -2.979   9.693  15.759  0.00  0.00    +0.000 C 
ATOM     32  C   UNL     1      -3.645  10.988  15.318  0.00  0.00    +0.000 C 
ATOM     33  C   UNL     1      -4.418  11.343  16.569  0.00  0.00    +0.000 C 
ATOM     34  C   UNL     1      -3.355  11.099  17.627  0.00  0.00    +0.000 C 
ENDBRANCH  29  30
ENDBRANCH  28  29
ENDBRANCH  26  28
ENDBRANCH   4  26
TORSDOF 7
ENDMDL
MODEL 6
REMARK VINA RESULT:      -8.8      0.806      1.325
REMARK  Name = 
REMARK  7 active torsions:
REMARK  status: ('A' for Active; 'I' for Inactive)
REMARK    1  A    between atoms: C_2  and  C_3
REMARK    2  A    between atoms: C_4  and  C_5
REMARK    3  A    between atoms: C_8  and  C_9
REMARK    4  A    between atoms: C_16  and  N_17
REMARK    5  A    between atoms: N_17  and  C_18
REMARK    6  A    between atoms: C_18  and  C_19
REMARK    7  A    between atoms: C_19  and  N_20
REMARK                            x       y       z     vdW  Elec       q    Type
REMARK                         _______ _______ _______ _____ _____    ______ ____
ROOT
ATOM      1  C   UNL     1       2.151   7.182  19.688  0.00  0.00    +0.000 A 
ATOM      2  C   UNL     1       2.723   7.528  18.435  0.00  0.00    +0.000 A 
ATOM      3  C   UNL     1       2.449   8.815  17.919  0.00  0.00    +0.000 A 
ATOM      4  C   UNL     1       1.641   9.747  18.615  0.00  0.00    +0.000 A 
ATOM      5  N   UNL     1       1.173   9.388  19.863  0.00  0.00    +0.000 N 
ATOM      6  C   UNL     1       1.418   8.149  20.373  0.00  0.00    +0.000 A 
ATOM      7  N   UNL     1       0.890   7.946  21.598  0.00  0.00    +0.000 NA
ATOM      8  C   UNL     1       0.281   9.098  21.879  0.00  0.00    +0.000 A 
ATOM      9  C   UNL     1      -0.409   9.390  23.047  0.00  0.00    +0.000 A 
ATOM     10  C   UNL     1      -0.998  10.653  23.162  0.00  0.00    +0.000 A 
ATOM     11  C   UNL     1      -0.886  11.585  22.112  0.00  0.00    +0.000 A 
ATOM     12  C   UNL     1      -0.175  11.263  20.933  0.00  0.00    +0.000 A 
ATOM     13  C   UNL     1       0.422   9.989  20.836  0.00  0.00    +0.000 A 
ENDROOT
BRANCH   2  14
ATOM     14  C   UNL     1       3.618   6.599  17.660  0.00  0.00    +0.000 A 
ATOM     15  C   UNL     1       4.760   7.064  16.982  0.00  0.00    +0.000 A 
ATOM     16  C   UNL     1       5.547   6.206  16.216  0.00  0.00    +0.000 A 
ATOM     17  C   UNL     1       5.216   4.850  16.096  0.00  0.00    +0.000 A 
ATOM     18  C   UNL     1       4.094   4.362  16.785  0.00  0.00    +0.000 A 
ATOM     19  C   UNL     1       3.309   5.222  17.563  0.00  0.00    +0.000 A 
BRANCH  17  20
ATOM     20  C   UNL     1       6.036   3.918  15.239  0.00  0.00    +0.000 C 
ATOM     21  F   UNL     1       5.602   3.919  13.924  0.00  0.00    +0.000 F 
ATOM     22  F   UNL     1       7.363   4.307  15.265  0.00  0.00    +0.000 F 
ATOM     23  F   UNL     1       5.931   2.629  15.732  0.00  0.00    +0.000 F 
ENDBRANCH  17  20
ENDBRANCH   2  14
BRANCH   1  25
ATOM     24  N   UNL     1       2.425   4.857  20.817  0.00  0.00    +0.000 NA
ATOM     25  C   UNL     1       2.307   5.902  20.335  0.00  0.00    +0.000 C 
ENDBRANCH   1  25
BRANCH   4  26
ATOM     26  N   UNL     1       1.326  11.001  17.996  0.00  0.00    +0.000 N 
ATOM     27  H   UNL     1       0.437  11.137  17.517  0.00  0.00    +0.000 HD
BRANCH  26  28
ATOM     28  C   UNL     1       2.285  12.098  17.892  0.00  0.00    +0.000 C 
BRANCH  28  29
ATOM     29  C   UNL     1       1.653  13.392  18.481  0.00  0.00    +0.000 C 
BRANCH  29  30
ATOM     30  N   UNL     1       2.492  14.159  19.425  0.00  0.00    +0.000 NA
ATOM     31  C   UNL     1       2.540  13.667  20.812  0.00  0.00    +0.000 C 
ATOM     32  C   UNL     1       1.996  14.804  21.664  0.00  0.00    +0.000 C 
ATOM     33  C   UNL     1       2.554  15.999  20.924  0.00  0.00    +0.000 C 
ATOM     34  C   UNL     1       2.233  15.608  19.491  0.00  0.00    +0.000 C 
ENDBRANCH  29  30
ENDBRANCH  28  29
ENDBRANCH  26  28
ENDBRANCH   4  26
TORSDOF 7
ENDMDL
MODEL 7
REMARK VINA RESULT:      -8.7      0.754      1.574
REMARK  Name = 
REMARK  7 active torsions:
REMARK  status: ('A' for Active; 'I' for Inactive)
REMARK    1  A    between atoms: C_2  and  C_3
REMARK    2  A    between atoms: C_4  and  C_5
REMARK    3  A    between atoms: C_8  and  C_9
REMARK    4  A    between atoms: C_16  and  N_17
REMARK    5  A    between atoms: N_17  and  C_18
REMARK    6  A    between atoms: C_18  and  C_19
REMARK    7  A    between atoms: C_19  and  N_20
REMARK                            x       y       z     vdW  Elec       q    Type
REMARK                         _______ _______ _______ _____ _____    ______ ____
ROOT
ATOM      1  C   UNL     1       2.066   7.263  19.699  0.00  0.00    +0.000 A 
ATOM      2  C   UNL     1       2.656   7.621  18.458  0.00  0.00    +0.000 A 
ATOM      3  C   UNL     1       2.407   8.919  17.960  0.00  0.00    +0.000 A 
ATOM      4  C   UNL     1       1.605   9.852  18.664  0.00  0.00    +0.000 A 
ATOM      5  N   UNL     1       1.120   9.480  19.901  0.00  0.00    +0.000 N 
ATOM      6  C   UNL     1       1.341   8.230  20.392  0.00  0.00    +0.000 A 
ATOM      7  N   UNL     1       0.797   8.014  21.609  0.00  0.00    +0.000 NA
ATOM      8  C   UNL     1       0.203   9.172  21.903  0.00  0.00    +0.000 A 
ATOM      9  C   UNL     1      -0.494   9.455  23.069  0.00  0.00    +0.000 A 
ATOM     10  C   UNL     1      -1.065  10.725  23.199  0.00  0.00    +0.000 A 
ATOM     11  C   UNL     1      -0.928  11.671  22.165  0.00  0.00    +0.000 A 
ATOM     12  C   UNL     1      -0.210  11.359  20.988  0.00  0.00    +0.000 A 
ATOM     13  C   UNL     1       0.368  10.077  20.876  0.00  0.00    +0.000 A 
ENDROOT
BRANCH   2  14
ATOM     14  C   UNL     1       3.544   6.691  17.677  0.00  0.00    +0.000 A 
ATOM     15  C   UNL     1       3.290   5.309  17.605  0.00  0.00    +0.000 A 
ATOM     16  C   UNL     1       4.154   4.448  16.931  0.00  0.00    +0.000 A 
ATOM     17  C   UNL     1       5.309   4.938  16.307  0.00  0.00    +0.000 A 
ATOM     18  C   UNL     1       5.567   6.318  16.347  0.00  0.00    +0.000 A 
ATOM     19  C   UNL     1       4.694   7.185  17.016  0.00  0.00    +0.000 A 
BRANCH  17  20
ATOM     20  C   UNL     1       6.272   4.012  15.607  0.00  0.00    +0.000 C 
ATOM     21  F   UNL     1       5.867   2.690  15.698  0.00  0.00    +0.000 F 
ATOM     22  F   UNL     1       6.363   4.355  14.271  0.00  0.00    +0.000 F 
ATOM     23  F   UNL     1       7.522   4.126  16.191  0.00  0.00    +0.000 F 
ENDBRANCH  17  20
ENDBRANCH   2  14
BRANCH   1  25
ATOM     24  N   UNL     1       2.288   4.951  20.867  0.00  0.00    +0.000 NA
ATOM     25  C   UNL     1       2.196   5.970  20.327  0.00  0.00    +0.000 C 
ENDBRANCH   1  25
BRANCH   4  26
ATOM     26  N   UNL     1       1.316  11.121  18.063  0.00  0.00    +0.000 N 
ATOM     27  H   UNL     1       0.428  11.283  17.590  0.00  0.00    +0.000 HD
BRANCH  26  28
ATOM     28  C   UNL     1       2.300  12.197  17.967  0.00  0.00    +0.000 C 
BRANCH  28  29
ATOM     29  C   UNL     1       2.051  13.224  19.109  0.00  0.00    +0.000 C 
BRANCH  29  30
ATOM     30  N   UNL     1       1.376  14.481  18.723  0.00  0.00    +0.000 NA
ATOM     31  C   UNL     1       1.825  15.706  19.404  0.00  0.00    +0.000 C 
ATOM     32  C   UNL     1       0.599  16.240  20.129  0.00  0.00    +0.000 C 
ATOM     33  C   UNL     1      -0.485  15.897  19.132  0.00  0.00    +0.000 C 
ATOM     34  C   UNL     1      -0.097  14.470  18.785  0.00  0.00    +0.000 C 
ENDBRANCH  29  30
ENDBRANCH  28  29
ENDBRANCH  26  28
ENDBRANCH   4  26
TORSDOF 7
ENDMDL
MODEL 8
REMARK VINA RESULT:      -8.4      5.190      9.627
REMARK  Name = 
REMARK  7 active torsions:
REMARK  status: ('A' for Active; 'I' for Inactive)
REMARK    1  A    between atoms: C_2  and  C_3
REMARK    2  A    between atoms: C_4  and  C_5
REMARK    3  A    between atoms: C_8  and  C_9
REMARK    4  A    between atoms: C_16  and  N_17
REMARK    5  A    between atoms: N_17  and  C_18
REMARK    6  A    between atoms: C_18  and  C_19
REMARK    7  A    between atoms: C_19  and  N_20
REMARK                            x       y       z     vdW  Elec       q    Type
REMARK                         _______ _______ _______ _____ _____    ______ ____
ROOT
ATOM      1  C   UNL     1       2.073   8.488  18.899  0.00  0.00    +0.000 A 
ATOM      2  C   UNL     1       1.481   8.215  20.161  0.00  0.00    +0.000 A 
ATOM      3  C   UNL     1       1.811   6.996  20.793  0.00  0.00    +0.000 A 
ATOM      4  C   UNL     1       2.707   6.066  20.210  0.00  0.00    +0.000 A 
ATOM      5  N   UNL     1       3.313   6.414  19.020  0.00  0.00    +0.000 N 
ATOM      6  C   UNL     1       3.000   7.580  18.391  0.00  0.00    +0.000 A 
ATOM      7  N   UNL     1       3.669   7.776  17.235  0.00  0.00    +0.000 NA
ATOM      8  C   UNL     1       4.436   6.691  17.122  0.00  0.00    +0.000 A 
ATOM      9  C   UNL     1       5.325   6.428  16.089  0.00  0.00    +0.000 A 
ATOM     10  C   UNL     1       6.039   5.226  16.130  0.00  0.00    +0.000 A 
ATOM     11  C   UNL     1       5.844   4.323  17.192  0.00  0.00    +0.000 A 
ATOM     12  C   UNL     1       4.934   4.616  18.234  0.00  0.00    +0.000 A 
ATOM     13  C   UNL     1       4.229   5.837  18.184  0.00  0.00    +0.000 A 
ENDROOT
BRANCH   2  14
ATOM     14  C   UNL     1       0.550   9.174  20.851  0.00  0.00    +0.000 A 
ATOM     15  C   UNL     1      -0.245  10.085  20.130  0.00  0.00    +0.000 A 
ATOM     16  C   UNL     1      -1.058  11.011  20.781  0.00  0.00    +0.000 A 
ATOM     17  C   UNL     1      -1.101  11.063  22.181  0.00  0.00    +0.000 A 
ATOM     18  C   UNL     1      -0.334  10.148  22.918  0.00  0.00    +0.000 A 
ATOM     19  C   UNL     1       0.476   9.210  22.264  0.00  0.00    +0.000 A 
BRANCH  17  20
ATOM     20  C   UNL     1      -1.946  12.086  22.898  0.00  0.00    +0.000 C 
ATOM     21  F   UNL     1      -2.812  11.491  23.802  0.00  0.00    +0.000 F 
ATOM     22  F   UNL     1      -1.130  12.967  23.584  0.00  0.00    +0.000 F 
ATOM     23  F   UNL     1      -2.698  12.790  21.973  0.00  0.00    +0.000 F 
ENDBRANCH  17  20
ENDBRANCH   2  14
BRANCH   1  25
ATOM     24  N   UNL     1       1.650  10.612  17.461  0.00  0.00    +0.000 NA
ATOM     25  C   UNL     1       1.817   9.669  18.111  0.00  0.00    +0.000 C 
ENDBRANCH   1  25
BRANCH   4  26
ATOM     26  N   UNL     1       2.929   4.807  20.858  0.00  0.00    +0.000 N 
ATOM     27  H   UNL     1       3.871   4.432  20.959  0.00  0.00    +0.000 HD
BRANCH  26  28
ATOM     28  C   UNL     1       1.841   3.931  21.287  0.00  0.00    +0.000 C 
BRANCH  28  29
ATOM     29  C   UNL     1       0.787   3.825  20.147  0.00  0.00    +0.000 C 
BRANCH  29  30
ATOM     30  N   UNL     1       1.066   2.833  19.088  0.00  0.00    +0.000 NA
ATOM     31  C   UNL     1       1.898   1.679  19.469  0.00  0.00    +0.000 C 
ATOM     32  C   UNL     1       3.125   1.750  18.574  0.00  0.00    +0.000 C 
ATOM     33  C   UNL     1       2.505   2.255  17.290  0.00  0.00    +0.000 C 
ATOM     34  C   UNL     1       1.620   3.366  17.831  0.00  0.00    +0.000 C 
ENDBRANCH  29  30
ENDBRANCH  28  29
ENDBRANCH  26  28
ENDBRANCH   4  26
TORSDOF 7
ENDMDL
MODEL 9
REMARK VINA RESULT:      -8.2      2.214      3.396
REMARK  Name = 
REMARK  7 active torsions:
REMARK  status: ('A' for Active; 'I' for Inactive)
REMARK    1  A    between atoms: C_2  and  C_3
REMARK    2  A    between atoms: C_4  and  C_5
REMARK    3  A    between atoms: C_8  and  C_9
REMARK    4  A    between atoms: C_16  and  N_17
REMARK    5  A    between atoms: N_17  and  C_18
REMARK    6  A    between atoms: C_18  and  C_19
REMARK    7  A    between atoms: C_19  and  N_20
REMARK                            x       y       z     vdW  Elec       q    Type
REMARK                         _______ _______ _______ _____ _____    ______ ____
ROOT
ATOM      1  C   UNL     1       2.090   7.197  19.720  0.00  0.00    +0.000 A 
ATOM      2  C   UNL     1       2.622   7.566  18.456  0.00  0.00    +0.000 A 
ATOM      3  C   UNL     1       2.333   8.862  17.973  0.00  0.00    +0.000 A 
ATOM      4  C   UNL     1       1.548   9.782  18.713  0.00  0.00    +0.000 A 
ATOM      5  N   UNL     1       1.121   9.399  19.968  0.00  0.00    +0.000 N 
ATOM      6  C   UNL     1       1.380   8.151  20.446  0.00  0.00    +0.000 A 
ATOM      7  N   UNL     1       0.892   7.925  21.683  0.00  0.00    +0.000 NA
ATOM      8  C   UNL     1       0.294   9.072  22.005  0.00  0.00    +0.000 A 
ATOM      9  C   UNL     1      -0.358   9.343  23.200  0.00  0.00    +0.000 A 
ATOM     10  C   UNL     1      -0.942  10.603  23.358  0.00  0.00    +0.000 A 
ATOM     11  C   UNL     1      -0.862  11.554  22.323  0.00  0.00    +0.000 A 
ATOM     12  C   UNL     1      -0.190  11.255  21.116  0.00  0.00    +0.000 A 
ATOM     13  C   UNL     1       0.402   9.983  20.975  0.00  0.00    +0.000 A 
ENDROOT
BRANCH   2  14
ATOM     14  C   UNL     1       3.491   6.652  17.635  0.00  0.00    +0.000 A 
ATOM     15  C   UNL     1       3.287   5.260  17.613  0.00  0.00    +0.000 A 
ATOM     16  C   UNL     1       4.136   4.415  16.899  0.00  0.00    +0.000 A 
ATOM     17  C   UNL     1       5.224   4.934  16.185  0.00  0.00    +0.000 A 
ATOM     18  C   UNL     1       5.430   6.322  16.176  0.00  0.00    +0.000 A 
ATOM     19  C   UNL     1       4.571   7.172  16.884  0.00  0.00    +0.000 A 
BRANCH  17  20
ATOM     20  C   UNL     1       6.173   4.028  15.440  0.00  0.00    +0.000 C 
ATOM     21  F   UNL     1       6.139   4.263  14.075  0.00  0.00    +0.000 F 
ATOM     22  F   UNL     1       7.464   4.233  15.891  0.00  0.00    +0.000 F 
ATOM     23  F   UNL     1       5.818   2.709  15.664  0.00  0.00    +0.000 F 
ENDBRANCH  17  20
ENDBRANCH   2  14
BRANCH   1  25
ATOM     24  N   UNL     1       2.446   4.879  20.840  0.00  0.00    +0.000 NA
ATOM     25  C   UNL     1       2.265   5.905  20.337  0.00  0.00    +0.000 C 
ENDBRANCH   1  25
BRANCH   4  26
ATOM     26  N   UNL     1       1.216  11.047  18.128  0.00  0.00    +0.000 N 
ATOM     27  H   UNL     1       1.932  11.622  17.688  0.00  0.00    +0.000 HD
BRANCH  26  28
ATOM     28  C   UNL     1      -0.111  11.649  18.240  0.00  0.00    +0.000 C 
BRANCH  28  29
ATOM     29  C   UNL     1      -1.173  10.662  17.675  0.00  0.00    +0.000 C 
BRANCH  29  30
ATOM     30  N   UNL     1      -2.273  11.262  16.892  0.00  0.00    +0.000 NA
ATOM     31  C   UNL     1      -3.500  11.599  17.633  0.00  0.00    +0.000 C 
ATOM     32  C   UNL     1      -4.603  10.771  16.990  0.00  0.00    +0.000 C 
ATOM     33  C   UNL     1      -4.173  10.812  15.540  0.00  0.00    +0.000 C 
ATOM     34  C   UNL     1      -2.688  10.523  15.686  0.00  0.00    +0.000 C 
ENDBRANCH  29  30
ENDBRANCH  28  29
ENDBRANCH  26  28
ENDBRANCH   4  26
TORSDOF 7
ENDMDL
