MODEL 1
REMARK VINA RESULT:      -8.9      0.000      0.000
REMARK  Name = 
REMARK  6 active torsions:
REMARK  status: ('A' for Active; 'I' for Inactive)
REMARK    1  A    between atoms: C_1  and  O_2
REMARK    2  A    between atoms: O_2  and  C_3
REMARK    3  A    between atoms: C_6  and  N_7
REMARK    4  A    between atoms: N_7  and  C_8
REMARK    5  A    between atoms: C_13  and  C_14
REMARK    6  A    between atoms: C_16  and  C_17
REMARK                            x       y       z     vdW  Elec       q    Type
REMARK                         _______ _______ _______ _____ _____    ______ ____
ROOT
ATOM      1  C   UNL     1       2.916   4.528  19.120  0.00  0.00    +0.000 A 
ATOM      2  C   UNL     1       1.629   3.965  19.234  0.00  0.00    +0.000 A 
ATOM      3  C   UNL     1       1.370   2.734  18.666  0.00  0.00    +0.000 A 
ATOM      4  N   UNL     1       2.283   2.043  17.970  0.00  0.00    +0.000 NA
ATOM      5  C   UNL     1       3.488   2.641  17.795  0.00  0.00    +0.000 A 
ATOM      6  C   UNL     1       3.874   3.890  18.306  0.00  0.00    +0.000 A 
ENDROOT
BRANCH   6   7
ATOM      7  C   UNL     1       5.200   4.442  17.998  0.00  0.00    +0.000 A 
ATOM      8  N   UNL     1       6.029   4.838  19.019  0.00  0.00    +0.000 NA
ATOM      9  C   UNL     1       7.267   5.314  18.715  0.00  0.00    +0.000 A 
ATOM     10  C   UNL     1       8.158   5.692  19.860  0.00  0.00    +0.000 C 
ATOM     11  N   UNL     1       7.789   5.479  17.480  0.00  0.00    +0.000 NA
ATOM     12  C   UNL     1       6.934   5.104  16.524  0.00  0.00    +0.000 A 
ATOM     13  N   UNL     1       7.148   5.146  15.176  0.00  0.00    +0.000 N 
ATOM     14  C   UNL     1       6.020   4.671  14.568  0.00  0.00    +0.000 A 
ATOM     15  N   UNL     1       5.101   4.330  15.444  0.00  0.00    +0.000 NA
ATOM     16  C   UNL     1       5.659   4.591  16.679  0.00  0.00    +0.000 A 
ATOM     17  H   UNL     1       7.991   5.471  14.729  0.00  0.00    +0.000 HD
ENDBRANCH   6   7
BRANCH   1  18
ATOM     18  N   UNL     1       3.178   5.767  19.790  0.00  0.00    +0.000 N 
ATOM     19  H   UNL     1       3.097   5.619  20.805  0.00  0.00    +0.000 HD
BRANCH  18  23
ATOM     20  C   UNL     1       1.273   9.351  18.824  0.00  0.00    +0.000 A 
ATOM     21  C   UNL     1       2.015   8.713  17.841  0.00  0.00    +0.000 A 
ATOM     22  C   UNL     1       2.666   7.518  18.163  0.00  0.00    +0.000 A 
ATOM     23  C   UNL     1       2.532   6.982  19.442  0.00  0.00    +0.000 A 
ATOM     24  C   UNL     1       1.805   7.740  20.365  0.00  0.00    +0.000 A 
ATOM     25  N   UNL     1       1.163   8.895  20.085  0.00  0.00    +0.000 NA
BRANCH  20  27
ATOM     26  C   UNL     1      -0.754  10.316  18.196  0.00  0.00    +0.000 C 
ATOM     27  O   UNL     1       0.631  10.521  18.472  0.00  0.00    +0.000 OA
ENDBRANCH  20  27
ENDBRANCH  18  23
ENDBRANCH   1  18
TORSDOF 4
ENDMDL
MODEL 2
REMARK VINA RESULT:      -8.8      0.711      2.280
REMARK  Name = 
REMARK  6 active torsions:
REMARK  status: ('A' for Active; 'I' for Inactive)
REMARK    1  A    between atoms: C_1  and  O_2
REMARK    2  A    between atoms: O_2  and  C_3
REMARK    3  A    between atoms: C_6  and  N_7
REMARK    4  A    between atoms: N_7  and  C_8
REMARK    5  A    between atoms: C_13  and  C_14
REMARK    6  A    between atoms: C_16  and  C_17
REMARK                            x       y       z     vdW  Elec       q    Type
REMARK                         _______ _______ _______ _____ _____    ______ ____
ROOT
ATOM      1  C   UNL     1       2.916   4.596  19.289  0.00  0.00    +0.000 A 
ATOM      2  C   UNL     1       1.681   4.173  19.819  0.00  0.00    +0.000 A 
ATOM      3  C   UNL     1       1.251   2.880  19.599  0.00  0.00    +0.000 A 
ATOM      4  N   UNL     1       1.940   1.995  18.867  0.00  0.00    +0.000 NA
ATOM      5  C   UNL     1       3.082   2.448  18.290  0.00  0.00    +0.000 A 
ATOM      6  C   UNL     1       3.622   3.737  18.423  0.00  0.00    +0.000 A 
ENDROOT
BRANCH   6   7
ATOM      7  C   UNL     1       4.847   4.109  17.702  0.00  0.00    +0.000 A 
ATOM      8  N   UNL     1       4.939   3.883  16.351  0.00  0.00    +0.000 NA
ATOM      9  C   UNL     1       6.067   4.265  15.694  0.00  0.00    +0.000 A 
ATOM     10  C   UNL     1       6.110   4.043  14.212  0.00  0.00    +0.000 C 
ATOM     11  N   UNL     1       7.164   4.838  16.237  0.00  0.00    +0.000 NA
ATOM     12  C   UNL     1       7.032   5.012  17.556  0.00  0.00    +0.000 A 
ATOM     13  N   UNL     1       7.954   5.558  18.403  0.00  0.00    +0.000 N 
ATOM     14  C   UNL     1       7.415   5.547  19.658  0.00  0.00    +0.000 A 
ATOM     15  N   UNL     1       6.207   5.028  19.664  0.00  0.00    +0.000 NA
ATOM     16  C   UNL     1       5.948   4.690  18.351  0.00  0.00    +0.000 A 
ATOM     17  H   UNL     1       8.863   5.902  18.132  0.00  0.00    +0.000 HD
ENDBRANCH   6   7
BRANCH   1  18
ATOM     18  N   UNL     1       3.374   5.917  19.604  0.00  0.00    +0.000 N 
ATOM     19  H   UNL     1       3.659   5.943  20.592  0.00  0.00    +0.000 HD
BRANCH  18  23
ATOM     20  C   UNL     1       1.166   9.359  18.779  0.00  0.00    +0.000 A 
ATOM     21  C   UNL     1       1.904   8.788  17.753  0.00  0.00    +0.000 A 
ATOM     22  C   UNL     1       2.657   7.641  18.027  0.00  0.00    +0.000 A 
ATOM     23  C   UNL     1       2.625   7.085  19.304  0.00  0.00    +0.000 A 
ATOM     24  C   UNL     1       1.890   7.778  20.270  0.00  0.00    +0.000 A 
ATOM     25  N   UNL     1       1.152   8.885  20.038  0.00  0.00    +0.000 NA
BRANCH  20  27
ATOM     26  C   UNL     1      -0.775  10.564  19.243  0.00  0.00    +0.000 C 
ATOM     27  O   UNL     1       0.424  10.483  18.474  0.00  0.00    +0.000 OA
ENDBRANCH  20  27
ENDBRANCH  18  23
ENDBRANCH   1  18
TORSDOF 4
ENDMDL
MODEL 3
REMARK VINA RESULT:      -8.3      1.091      1.339
REMARK  Name = 
REMARK  6 active torsions:
REMARK  status: ('A' for Active; 'I' for Inactive)
REMARK    1  A    between atoms: C_1  and  O_2
REMARK    2  A    between atoms: O_2  and  C_3
REMARK    3  A    between atoms: C_6  and  N_7
REMARK    4  A    between atoms: N_7  and  C_8
REMARK    5  A    between atoms: C_13  and  C_14
REMARK    6  A    between atoms: C_16  and  C_17
REMARK                            x       y       z     vdW  Elec       q    Type
REMARK                         _______ _______ _______ _____ _____    ______ ____
ROOT
ATOM      1  C   UNL     1       2.720   4.669  17.950  0.00  0.00    +0.000 A 
ATOM      2  C   UNL     1       1.448   4.076  18.077  0.00  0.00    +0.000 A 
ATOM      3  C   UNL     1       1.347   2.753  18.459  0.00  0.00    +0.000 A 
ATOM      4  N   UNL     1       2.413   1.975  18.690  0.00  0.00    +0.000 NA
ATOM      5  C   UNL     1       3.629   2.539  18.475  0.00  0.00    +0.000 A 
ATOM      6  C   UNL     1       3.869   3.863  18.075  0.00  0.00    +0.000 A 
ENDROOT
BRANCH   6   7
ATOM      7  C   UNL     1       5.241   4.330  17.832  0.00  0.00    +0.000 A 
ATOM      8  N   UNL     1       6.010   4.764  18.884  0.00  0.00    +0.000 NA
ATOM      9  C   UNL     1       7.289   5.160  18.644  0.00  0.00    +0.000 A 
ATOM     10  C   UNL     1       8.111   5.583  19.825  0.00  0.00    +0.000 C 
ATOM     11  N   UNL     1       7.910   5.207  17.445  0.00  0.00    +0.000 NA
ATOM     12  C   UNL     1       7.111   4.799  16.455  0.00  0.00    +0.000 A 
ATOM     13  N   UNL     1       7.427   4.729  15.128  0.00  0.00    +0.000 N 
ATOM     14  C   UNL     1       6.325   4.260  14.469  0.00  0.00    +0.000 A 
ATOM     15  N   UNL     1       5.327   4.028  15.293  0.00  0.00    +0.000 NA
ATOM     16  C   UNL     1       5.804   4.357  16.546  0.00  0.00    +0.000 A 
ATOM     17  H   UNL     1       8.316   4.981  14.726  0.00  0.00    +0.000 HD
ENDBRANCH   6   7
BRANCH   1  18
ATOM     18  N   UNL     1       2.790   6.065  17.633  0.00  0.00    +0.000 N 
ATOM     19  H   UNL     1       3.761   6.302  17.391  0.00  0.00    +0.000 HD
BRANCH  18  23
ATOM     20  C   UNL     1       1.253   9.005  20.162  0.00  0.00    +0.000 A 
ATOM     21  C   UNL     1       1.369   9.294  18.810  0.00  0.00    +0.000 A 
ATOM     22  C   UNL     1       1.896   8.316  17.960  0.00  0.00    +0.000 A 
ATOM     23  C   UNL     1       2.260   7.075  18.478  0.00  0.00    +0.000 A 
ATOM     24  C   UNL     1       2.150   6.918  19.862  0.00  0.00    +0.000 A 
ATOM     25  N   UNL     1       1.644   7.840  20.710  0.00  0.00    +0.000 NA
BRANCH  20  27
ATOM     26  C   UNL     1       0.635   9.573  22.337  0.00  0.00    +0.000 C 
ATOM     27  O   UNL     1       0.718   9.985  20.974  0.00  0.00    +0.000 OA
ENDBRANCH  20  27
ENDBRANCH  18  23
ENDBRANCH   1  18
TORSDOF 4
ENDMDL
MODEL 4
REMARK VINA RESULT:      -8.3      1.116      2.476
REMARK  Name = 
REMARK  6 active torsions:
REMARK  status: ('A' for Active; 'I' for Inactive)
REMARK    1  A    between atoms: C_1  and  O_2
REMARK    2  A    between atoms: O_2  and  C_3
REMARK    3  A    between atoms: C_6  and  N_7
REMARK    4  A    between atoms: N_7  and  C_8
REMARK    5  A    between atoms: C_13  and  C_14
REMARK    6  A    between atoms: C_16  and  C_17
REMARK                            x       y       z     vdW  Elec       q    Type
REMARK                         _______ _______ _______ _____ _____    ______ ____
ROOT
ATOM      1  C   UNL     1       2.698   4.802  18.162  0.00  0.00    +0.000 A 
ATOM      2  C   UNL     1       1.457   4.363  18.666  0.00  0.00    +0.000 A 
ATOM      3  C   UNL     1       1.314   3.055  19.083  0.00  0.00    +0.000 A 
ATOM      4  N   UNL     1       2.299   2.150  19.003  0.00  0.00    +0.000 NA
ATOM      5  C   UNL     1       3.457   2.568  18.431  0.00  0.00    +0.000 A 
ATOM      6  C   UNL     1       3.726   3.861  17.956  0.00  0.00    +0.000 A 
ENDROOT
BRANCH   6   7
ATOM      7  C   UNL     1       5.012   4.165  17.313  0.00  0.00    +0.000 A 
ATOM      8  N   UNL     1       5.185   3.908  15.975  0.00  0.00    +0.000 NA
ATOM      9  C   UNL     1       6.370   4.228  15.391  0.00  0.00    +0.000 A 
ATOM     10  C   UNL     1       6.502   3.974  13.919  0.00  0.00    +0.000 C 
ATOM     11  N   UNL     1       7.452   4.763  15.997  0.00  0.00    +0.000 NA
ATOM     12  C   UNL     1       7.241   4.969  17.300  0.00  0.00    +0.000 A 
ATOM     13  N   UNL     1       8.128   5.490  18.198  0.00  0.00    +0.000 N 
ATOM     14  C   UNL     1       7.506   5.528  19.414  0.00  0.00    +0.000 A 
ATOM     15  N   UNL     1       6.278   5.062  19.347  0.00  0.00    +0.000 NA
ATOM     16  C   UNL     1       6.093   4.710  18.026  0.00  0.00    +0.000 A 
ATOM     17  H   UNL     1       9.067   5.789  17.984  0.00  0.00    +0.000 HD
ENDBRANCH   6   7
BRANCH   1  18
ATOM     18  N   UNL     1       2.839   6.185  17.815  0.00  0.00    +0.000 N 
ATOM     19  H   UNL     1       3.836   6.390  17.667  0.00  0.00    +0.000 HD
BRANCH  18  23
ATOM     20  C   UNL     1       1.143   9.242  20.092  0.00  0.00    +0.000 A 
ATOM     21  C   UNL     1       1.279   9.436  18.725  0.00  0.00    +0.000 A 
ATOM     22  C   UNL     1       1.859   8.420  17.959  0.00  0.00    +0.000 A 
ATOM     23  C   UNL     1       2.255   7.234  18.573  0.00  0.00    +0.000 A 
ATOM     24  C   UNL     1       2.120   7.173  19.963  0.00  0.00    +0.000 A 
ATOM     25  N   UNL     1       1.563   8.135  20.731  0.00  0.00    +0.000 NA
BRANCH  20  27
ATOM     26  C   UNL     1       0.703  11.529  20.188  0.00  0.00    +0.000 C 
ATOM     27  O   UNL     1       0.556  10.258  20.819  0.00  0.00    +0.000 OA
ENDBRANCH  20  27
ENDBRANCH  18  23
ENDBRANCH   1  18
TORSDOF 4
ENDMDL
MODEL 5
REMARK VINA RESULT:      -8.1      1.032      1.310
REMARK  Name = 
REMARK  6 active torsions:
REMARK  status: ('A' for Active; 'I' for Inactive)
REMARK    1  A    between atoms: C_1  and  O_2
REMARK    2  A    between atoms: O_2  and  C_3
REMARK    3  A    between atoms: C_6  and  N_7
REMARK    4  A    between atoms: N_7  and  C_8
REMARK    5  A    between atoms: C_13  and  C_14
REMARK    6  A    between atoms: C_16  and  C_17
REMARK                            x       y       z     vdW  Elec       q    Type
REMARK                         _______ _______ _______ _____ _____    ______ ____
ROOT
ATOM      1  C   UNL     1       2.985   5.109  18.541  0.00  0.00    +0.000 A 
ATOM      2  C   UNL     1       1.715   4.556  18.804  0.00  0.00    +0.000 A 
ATOM      3  C   UNL     1       1.391   3.316  18.292  0.00  0.00    +0.000 A 
ATOM      4  N   UNL     1       2.221   2.606  17.515  0.00  0.00    +0.000 NA
ATOM      5  C   UNL     1       3.402   3.194  17.199  0.00  0.00    +0.000 A 
ATOM      6  C   UNL     1       3.846   4.450  17.641  0.00  0.00    +0.000 A 
ENDROOT
BRANCH   6   7
ATOM      7  C   UNL     1       5.134   4.988  17.181  0.00  0.00    +0.000 A 
ATOM      8  N   UNL     1       5.913   5.723  18.040  0.00  0.00    +0.000 NA
ATOM      9  C   UNL     1       7.118   6.183  17.607  0.00  0.00    +0.000 A 
ATOM     10  C   UNL     1       7.958   6.941  18.590  0.00  0.00    +0.000 C 
ATOM     11  N   UNL     1       7.649   6.023  16.375  0.00  0.00    +0.000 NA
ATOM     12  C   UNL     1       6.841   5.325  15.572  0.00  0.00    +0.000 A 
ATOM     13  N   UNL     1       7.075   4.992  14.268  0.00  0.00    +0.000 N 
ATOM     14  C   UNL     1       5.996   4.277  13.828  0.00  0.00    +0.000 A 
ATOM     15  N   UNL     1       5.089   4.135  14.769  0.00  0.00    +0.000 NA
ATOM     16  C   UNL     1       5.604   4.784  15.873  0.00  0.00    +0.000 A 
ATOM     17  H   UNL     1       7.900   5.236  13.743  0.00  0.00    +0.000 HD
ENDBRANCH   6   7
BRANCH   1  18
ATOM     18  N   UNL     1       3.322   6.359  19.154  0.00  0.00    +0.000 N 
ATOM     19  H   UNL     1       3.609   6.186  20.126  0.00  0.00    +0.000 HD
BRANCH  18  23
ATOM     20  C   UNL     1       0.808   9.685  18.984  0.00  0.00    +0.000 A 
ATOM     21  C   UNL     1       0.962   9.036  20.201  0.00  0.00    +0.000 A 
ATOM     22  C   UNL     1       1.793   7.913  20.261  0.00  0.00    +0.000 A 
ATOM     23  C   UNL     1       2.467   7.492  19.116  0.00  0.00    +0.000 A 
ATOM     24  C   UNL     1       2.192   8.189  17.937  0.00  0.00    +0.000 A 
ATOM     25  N   UNL     1       1.398   9.278  17.846  0.00  0.00    +0.000 NA
BRANCH  20  27
ATOM     26  C   UNL     1      -1.175  10.594  18.165  0.00  0.00    +0.000 C 
ATOM     27  O   UNL     1      -0.009  10.797  18.961  0.00  0.00    +0.000 OA
ENDBRANCH  20  27
ENDBRANCH  18  23
ENDBRANCH   1  18
TORSDOF 4
ENDMDL
MODEL 6
REMARK VINA RESULT:      -8.0      1.502      1.856
REMARK  Name = 
REMARK  6 active torsions:
REMARK  status: ('A' for Active; 'I' for Inactive)
REMARK    1  A    between atoms: C_1  and  O_2
REMARK    2  A    between atoms: O_2  and  C_3
REMARK    3  A    between atoms: C_6  and  N_7
REMARK    4  A    between atoms: N_7  and  C_8
REMARK    5  A    between atoms: C_13  and  C_14
REMARK    6  A    between atoms: C_16  and  C_17
REMARK                            x       y       z     vdW  Elec       q    Type
REMARK                         _______ _______ _______ _____ _____    ______ ____
ROOT
ATOM      1  C   UNL     1       2.831   5.413  17.881  0.00  0.00    +0.000 A 
ATOM      2  C   UNL     1       1.611   4.774  18.181  0.00  0.00    +0.000 A 
ATOM      3  C   UNL     1       1.574   3.400  18.312  0.00  0.00    +0.000 A 
ATOM      4  N   UNL     1       2.649   2.620  18.136  0.00  0.00    +0.000 NA
ATOM      5  C   UNL     1       3.793   3.245  17.760  0.00  0.00    +0.000 A 
ATOM      6  C   UNL     1       3.961   4.627  17.579  0.00  0.00    +0.000 A 
ENDROOT
BRANCH   6   7
ATOM      7  C   UNL     1       5.249   5.166  17.122  0.00  0.00    +0.000 A 
ATOM      8  N   UNL     1       5.972   5.996  17.943  0.00  0.00    +0.000 NA
ATOM      9  C   UNL     1       7.178   6.458  17.516  0.00  0.00    +0.000 A 
ATOM     10  C   UNL     1       7.957   7.324  18.460  0.00  0.00    +0.000 C 
ATOM     11  N   UNL     1       7.761   6.213  16.322  0.00  0.00    +0.000 NA
ATOM     12  C   UNL     1       7.006   5.423  15.553  0.00  0.00    +0.000 A 
ATOM     13  N   UNL     1       7.301   4.989  14.292  0.00  0.00    +0.000 N 
ATOM     14  C   UNL     1       6.262   4.205  13.875  0.00  0.00    +0.000 A 
ATOM     15  N   UNL     1       5.324   4.113  14.791  0.00  0.00    +0.000 NA
ATOM     16  C   UNL     1       5.776   4.869  15.854  0.00  0.00    +0.000 A 
ATOM     17  H   UNL     1       8.138   5.215  13.778  0.00  0.00    +0.000 HD
ENDBRANCH   6   7
BRANCH   1  18
ATOM     18  N   UNL     1       2.854   6.845  17.833  0.00  0.00    +0.000 N 
ATOM     19  H   UNL     1       3.829   7.158  17.731  0.00  0.00    +0.000 HD
BRANCH  18  23
ATOM     20  C   UNL     1       0.909   9.270  20.615  0.00  0.00    +0.000 A 
ATOM     21  C   UNL     1       1.429   8.058  21.047  0.00  0.00    +0.000 A 
ATOM     22  C   UNL     1       2.071   7.235  20.115  0.00  0.00    +0.000 A 
ATOM     23  C   UNL     1       2.200   7.659  18.794  0.00  0.00    +0.000 A 
ATOM     24  C   UNL     1       1.589   8.872  18.463  0.00  0.00    +0.000 A 
ATOM     25  N   UNL     1       0.965   9.690  19.338  0.00  0.00    +0.000 NA
BRANCH  20  27
ATOM     26  C   UNL     1      -0.148   9.317  22.692  0.00  0.00    +0.000 C 
ATOM     27  O   UNL     1       0.293  10.065  21.560  0.00  0.00    +0.000 OA
ENDBRANCH  20  27
ENDBRANCH  18  23
ENDBRANCH   1  18
TORSDOF 4
ENDMDL
MODEL 7
REMARK VINA RESULT:      -7.9      1.393      1.482
REMARK  Name = 
REMARK  6 active torsions:
REMARK  status: ('A' for Active; 'I' for Inactive)
REMARK    1  A    between atoms: C_1  and  O_2
REMARK    2  A    between atoms: O_2  and  C_3
REMARK    3  A    between atoms: C_6  and  N_7
REMARK    4  A    between atoms: N_7  and  C_8
REMARK    5  A    between atoms: C_13  and  C_14
REMARK    6  A    between atoms: C_16  and  C_17
REMARK                            x       y       z     vdW  Elec       q    Type
REMARK                         _______ _______ _______ _____ _____    ______ ____
ROOT
ATOM      1  C   UNL     1       3.138   5.095  18.339  0.00  0.00    +0.000 A 
ATOM      2  C   UNL     1       2.122   4.315  18.929  0.00  0.00    +0.000 A 
ATOM      3  C   UNL     1       2.449   3.132  19.559  0.00  0.00    +0.000 A 
ATOM      4  N   UNL     1       3.700   2.654  19.615  0.00  0.00    +0.000 NA
ATOM      5  C   UNL     1       4.649   3.372  18.964  0.00  0.00    +0.000 A 
ATOM      6  C   UNL     1       4.448   4.580  18.277  0.00  0.00    +0.000 A 
ENDROOT
BRANCH   6   7
ATOM      7  C   UNL     1       5.562   5.230  17.573  0.00  0.00    +0.000 A 
ATOM      8  N   UNL     1       6.229   6.274  18.166  0.00  0.00    +0.000 NA
ATOM      9  C   UNL     1       7.279   6.840  17.513  0.00  0.00    +0.000 A 
ATOM     10  C   UNL     1       8.009   7.946  18.215  0.00  0.00    +0.000 C 
ATOM     11  N   UNL     1       7.747   6.505  16.291  0.00  0.00    +0.000 NA
ATOM     12  C   UNL     1       7.049   5.504  15.748  0.00  0.00    +0.000 A 
ATOM     13  N   UNL     1       7.258   4.931  14.526  0.00  0.00    +0.000 N 
ATOM     14  C   UNL     1       6.324   3.947  14.369  0.00  0.00    +0.000 A 
ATOM     15  N   UNL     1       5.532   3.856  15.415  0.00  0.00    +0.000 NA
ATOM     16  C   UNL     1       5.975   4.824  16.293  0.00  0.00    +0.000 A 
ATOM     17  H   UNL     1       7.977   5.199  13.872  0.00  0.00    +0.000 HD
ENDBRANCH   6   7
BRANCH   1  18
ATOM     18  N   UNL     1       2.779   6.358  17.766  0.00  0.00    +0.000 N 
ATOM     19  H   UNL     1       3.585   6.728  17.246  0.00  0.00    +0.000 HD
BRANCH  18  23
ATOM     20  C   UNL     1       1.062   9.415  20.026  0.00  0.00    +0.000 A 
ATOM     21  C   UNL     1       1.177   9.594  18.655  0.00  0.00    +0.000 A 
ATOM     22  C   UNL     1       1.764   8.578  17.894  0.00  0.00    +0.000 A 
ATOM     23  C   UNL     1       2.188   7.406  18.518  0.00  0.00    +0.000 A 
ATOM     24  C   UNL     1       2.071   7.361  19.910  0.00  0.00    +0.000 A 
ATOM     25  N   UNL     1       1.508   8.323  20.673  0.00  0.00    +0.000 NA
BRANCH  20  27
ATOM     26  C   UNL     1      -0.643  11.004  20.060  0.00  0.00    +0.000 C 
ATOM     27  O   UNL     1       0.468  10.431  20.748  0.00  0.00    +0.000 OA
ENDBRANCH  20  27
ENDBRANCH  18  23
ENDBRANCH   1  18
TORSDOF 4
ENDMDL
MODEL 8
REMARK VINA RESULT:      -7.8      1.236      2.432
REMARK  Name = 
REMARK  6 active torsions:
REMARK  status: ('A' for Active; 'I' for Inactive)
REMARK    1  A    between atoms: C_1  and  O_2
REMARK    2  A    between atoms: O_2  and  C_3
REMARK    3  A    between atoms: C_6  and  N_7
REMARK    4  A    between atoms: N_7  and  C_8
REMARK    5  A    between atoms: C_13  and  C_14
REMARK    6  A    between atoms: C_16  and  C_17
REMARK                            x       y       z     vdW  Elec       q    Type
REMARK                         _______ _______ _______ _____ _____    ______ ____
ROOT
ATOM      1  C   UNL     1       2.707   5.197  19.809  0.00  0.00    +0.000 A 
ATOM      2  C   UNL     1       1.614   4.503  20.365  0.00  0.00    +0.000 A 
ATOM      3  C   UNL     1       1.421   3.172  20.054  0.00  0.00    +0.000 A 
ATOM      4  N   UNL     1       2.212   2.497  19.210  0.00  0.00    +0.000 NA
ATOM      5  C   UNL     1       3.205   3.205  18.615  0.00  0.00    +0.000 A 
ATOM      6  C   UNL     1       3.499   4.560  18.832  0.00  0.00    +0.000 A 
ENDROOT
BRANCH   6   7
ATOM      7  C   UNL     1       4.579   5.217  18.082  0.00  0.00    +0.000 A 
ATOM      8  N   UNL     1       4.352   5.650  16.799  0.00  0.00    +0.000 NA
ATOM      9  C   UNL     1       5.353   6.287  16.133  0.00  0.00    +0.000 A 
ATOM     10  C   UNL     1       5.051   6.786  14.752  0.00  0.00    +0.000 C 
ATOM     11  N   UNL     1       6.602   6.528  16.588  0.00  0.00    +0.000 NA
ATOM     12  C   UNL     1       6.777   6.064  17.829  0.00  0.00    +0.000 A 
ATOM     13  N   UNL     1       7.918   6.140  18.575  0.00  0.00    +0.000 N 
ATOM     14  C   UNL     1       7.661   5.546  19.778  0.00  0.00    +0.000 A 
ATOM     15  N   UNL     1       6.428   5.095  19.845  0.00  0.00    +0.000 NA
ATOM     16  C   UNL     1       5.856   5.415  18.630  0.00  0.00    +0.000 A 
ATOM     17  H   UNL     1       8.783   6.563  18.276  0.00  0.00    +0.000 HD
ENDBRANCH   6   7
BRANCH   1  18
ATOM     18  N   UNL     1       2.929   6.553  20.215  0.00  0.00    +0.000 N 
ATOM     19  H   UNL     1       2.969   6.590  21.242  0.00  0.00    +0.000 HD
BRANCH  18  23
ATOM     20  C   UNL     1       0.619   9.758  18.873  0.00  0.00    +0.000 A 
ATOM     21  C   UNL     1       1.450   9.119  17.965  0.00  0.00    +0.000 A 
ATOM     22  C   UNL     1       2.236   8.052  18.413  0.00  0.00    +0.000 A 
ATOM     23  C   UNL     1       2.146   7.638  19.740  0.00  0.00    +0.000 A 
ATOM     24  C   UNL     1       1.317   8.391  20.575  0.00  0.00    +0.000 A 
ATOM     25  N   UNL     1       0.544   9.424  20.175  0.00  0.00    +0.000 NA
BRANCH  20  27
ATOM     26  C   UNL     1      -1.547  10.492  18.425  0.00  0.00    +0.000 C 
ATOM     27  O   UNL     1      -0.154  10.798  18.399  0.00  0.00    +0.000 OA
ENDBRANCH  20  27
ENDBRANCH  18  23
ENDBRANCH   1  18
TORSDOF 4
ENDMDL
MODEL 9
REMARK VINA RESULT:      -7.8      1.261      2.655
REMARK  Name = 
REMARK  6 active torsions:
REMARK  status: ('A' for Active; 'I' for Inactive)
REMARK    1  A    between atoms: C_1  and  O_2
REMARK    2  A    between atoms: O_2  and  C_3
REMARK    3  A    between atoms: C_6  and  N_7
REMARK    4  A    between atoms: N_7  and  C_8
REMARK    5  A    between atoms: C_13  and  C_14
REMARK    6  A    between atoms: C_16  and  C_17
REMARK                            x       y       z     vdW  Elec       q    Type
REMARK                         _______ _______ _______ _____ _____    ______ ____
ROOT
ATOM      1  C   UNL     1       2.919   5.016  17.801  0.00  0.00    +0.000 A 
ATOM      2  C   UNL     1       1.761   4.521  18.433  0.00  0.00    +0.000 A 
ATOM      3  C   UNL     1       1.633   3.165  18.658  0.00  0.00    +0.000 A 
ATOM      4  N   UNL     1       2.551   2.270  18.271  0.00  0.00    +0.000 NA
ATOM      5  C   UNL     1       3.615   2.755  17.584  0.00  0.00    +0.000 A 
ATOM      6  C   UNL     1       3.858   4.104  17.278  0.00  0.00    +0.000 A 
ENDROOT
BRANCH   6   7
ATOM      7  C   UNL     1       5.033   4.487  16.482  0.00  0.00    +0.000 A 
ATOM      8  N   UNL     1       5.201   3.969  15.222  0.00  0.00    +0.000 NA
ATOM      9  C   UNL     1       6.276   4.362  14.487  0.00  0.00    +0.000 A 
ATOM     10  C   UNL     1       6.400   3.810  13.099  0.00  0.00    +0.000 C 
ATOM     11  N   UNL     1       7.253   5.212  14.873  0.00  0.00    +0.000 NA
ATOM     12  C   UNL     1       7.055   5.666  16.115  0.00  0.00    +0.000 A 
ATOM     13  N   UNL     1       7.853   6.533  16.804  0.00  0.00    +0.000 N 
ATOM     14  C   UNL     1       7.283   6.730  18.030  0.00  0.00    +0.000 A 
ATOM     15  N   UNL     1       6.171   6.042  18.165  0.00  0.00    +0.000 NA
ATOM     16  C   UNL     1       6.009   5.370  16.970  0.00  0.00    +0.000 A 
ATOM     17  H   UNL     1       8.705   6.944  16.455  0.00  0.00    +0.000 HD
ENDBRANCH   6   7
BRANCH   1  18
ATOM     18  N   UNL     1       3.061   6.434  17.656  0.00  0.00    +0.000 N 
ATOM     19  H   UNL     1       4.062   6.666  17.620  0.00  0.00    +0.000 HD
BRANCH  18  23
ATOM     20  C   UNL     1       1.089   9.196  20.083  0.00  0.00    +0.000 A 
ATOM     21  C   UNL     1       1.575   8.035  20.666  0.00  0.00    +0.000 A 
ATOM     22  C   UNL     1       2.225   7.100  19.855  0.00  0.00    +0.000 A 
ATOM     23  C   UNL     1       2.397   7.365  18.498  0.00  0.00    +0.000 A 
ATOM     24  C   UNL     1       1.818   8.540  18.012  0.00  0.00    +0.000 A 
ATOM     25  N   UNL     1       1.187   9.464  18.768  0.00  0.00    +0.000 NA
BRANCH  20  27
ATOM     26  C   UNL     1      -0.467  10.927  20.208  0.00  0.00    +0.000 C 
ATOM     27  O   UNL     1       0.463  10.105  20.912  0.00  0.00    +0.000 OA
ENDBRANCH  20  27
ENDBRANCH  18  23
ENDBRANCH   1  18
TORSDOF 4
ENDMDL
