MODEL 1
REMARK VINA RESULT:      -7.4      0.000      0.000
REMARK  Name = 
REMARK  4 active torsions:
REMARK  status: ('A' for Active; 'I' for Inactive)
REMARK    1  A    between atoms: C_1  and  C_2
REMARK    2  A    between atoms: C_9  and  C_10
REMARK    3  A    between atoms: C_13  and  C_14
REMARK    4  A    between atoms: C_14  and  C_16
REMARK                            x       y       z     vdW  Elec       q    Type
REMARK                         _______ _______ _______ _____ _____    ______ ____
ROOT
ATOM      1  C   UNL     1       0.699   2.855  18.504  0.00  0.00    +0.000 C 
ATOM      2  C   UNL     1       1.975   2.912  19.321  0.00  0.00    +0.000 C 
ATOM      3  O   UNL     1       2.222   2.037  20.148  0.00  0.00    +0.000 OA
ATOM      4  N   UNL     1       2.848   3.976  19.056  0.00  0.00    +0.000 N 
ATOM      5  C   UNL     1       4.046   4.020  19.863  0.00  0.00    +0.000 C 
ATOM      6  N   UNL     1       4.967   5.060  19.431  0.00  0.00    +0.000 NA
ATOM      7  C   UNL     1       5.756   4.749  18.252  0.00  0.00    +0.000 C 
ATOM      8  N   UNL     1       5.121   5.088  16.986  0.00  0.00    +0.000 N 
ATOM      9  C   UNL     1       5.763   4.881  15.763  0.00  0.00    +0.000 C 
ATOM     10  C   UNL     1       7.123   4.225  15.731  0.00  0.00    +0.000 C 
ATOM     11  O   UNL     1       5.265   5.265  14.698  0.00  0.00    +0.000 OA
ATOM     12  C   UNL     1       4.099   6.131  16.945  0.00  0.00    +0.000 C 
ATOM     13  C   UNL     1       3.308   6.343  18.233  0.00  0.00    +0.000 C 
ATOM     14  C   UNL     1       4.327   6.366  19.371  0.00  0.00    +0.000 C 
ATOM     15  C   UNL     1       2.313   5.220  18.526  0.00  0.00    +0.000 C 
ENDROOT
BRANCH  13  16
ATOM     16  C   UNL     1       2.581   7.699  18.154  0.00  0.00    +0.000 C 
ATOM     17  O   UNL     1       2.559   8.350  17.104  0.00  0.00    +0.000 OA
BRANCH  16  18
ATOM     18  C   UNL     1       1.834   8.278  19.326  0.00  0.00    +0.000 A 
ATOM     19  C   UNL     1       1.745   7.662  20.580  0.00  0.00    +0.000 A 
ATOM     20  C   UNL     1       1.015   8.239  21.622  0.00  0.00    +0.000 A 
ATOM     21  C   UNL     1       0.369   9.451  21.424  0.00  0.00    +0.000 A 
ATOM     22 BR   UNL     1      -0.626  10.215  22.833  0.00  0.00    +0.000 Br
ATOM     23  C   UNL     1       0.460  10.095  20.192  0.00  0.00    +0.000 A 
ATOM     24  C   UNL     1       1.191   9.513  19.149  0.00  0.00    +0.000 A 
ENDBRANCH  16  18
ENDBRANCH  13  16
TORSDOF 2
ENDMDL
MODEL 2
REMARK VINA RESULT:      -7.2      1.571      3.917
REMARK  Name = 
REMARK  4 active torsions:
REMARK  status: ('A' for Active; 'I' for Inactive)
REMARK    1  A    between atoms: C_1  and  C_2
REMARK    2  A    between atoms: C_9  and  C_10
REMARK    3  A    between atoms: C_13  and  C_14
REMARK    4  A    between atoms: C_14  and  C_16
REMARK                            x       y       z     vdW  Elec       q    Type
REMARK                         _______ _______ _______ _____ _____    ______ ____
ROOT
ATOM      1  C   UNL     1       7.736   6.097  19.102  0.00  0.00    +0.000 C 
ATOM      2  C   UNL     1       7.123   5.014  18.238  0.00  0.00    +0.000 C 
ATOM      3  O   UNL     1       7.840   4.206  17.651  0.00  0.00    +0.000 OA
ATOM      4  N   UNL     1       5.723   4.969  18.180  0.00  0.00    +0.000 N 
ATOM      5  C   UNL     1       5.163   3.941  17.332  0.00  0.00    +0.000 C 
ATOM      6  N   UNL     1       3.714   3.863  17.439  0.00  0.00    +0.000 NA
ATOM      7  C   UNL     1       3.208   3.185  18.618  0.00  0.00    +0.000 C 
ATOM      8  N   UNL     1       3.031   4.039  19.785  0.00  0.00    +0.000 N 
ATOM      9  C   UNL     1       2.522   3.545  20.988  0.00  0.00    +0.000 C 
ATOM     10  C   UNL     1       2.208   2.073  21.121  0.00  0.00    +0.000 C 
ATOM     11  O   UNL     1       2.276   4.292  21.942  0.00  0.00    +0.000 OA
ATOM     12  C   UNL     1       2.830   5.475  19.607  0.00  0.00    +0.000 C 
ATOM     13  C   UNL     1       3.438   6.084  18.347  0.00  0.00    +0.000 C 
ATOM     14  C   UNL     1       3.078   5.150  17.194  0.00  0.00    +0.000 C 
ATOM     15  C   UNL     1       4.962   6.189  18.399  0.00  0.00    +0.000 C 
ENDROOT
BRANCH  13  16
ATOM     16  C   UNL     1       2.811   7.472  18.111  0.00  0.00    +0.000 C 
ATOM     17  O   UNL     1       2.912   8.039  17.018  0.00  0.00    +0.000 OA
BRANCH  16  18
ATOM     18  C   UNL     1       2.018   8.184  19.173  0.00  0.00    +0.000 A 
ATOM     19  C   UNL     1       1.892   7.733  20.493  0.00  0.00    +0.000 A 
ATOM     20  C   UNL     1       1.120   8.427  21.427  0.00  0.00    +0.000 A 
ATOM     21  C   UNL     1       0.468   9.594  21.054  0.00  0.00    +0.000 A 
ATOM     22 BR   UNL     1      -0.584  10.517  22.320  0.00  0.00    +0.000 Br
ATOM     23  C   UNL     1       0.595  10.076  19.753  0.00  0.00    +0.000 A 
ATOM     24  C   UNL     1       1.368   9.377  18.819  0.00  0.00    +0.000 A 
ENDBRANCH  16  18
ENDBRANCH  13  16
TORSDOF 2
ENDMDL
MODEL 3
REMARK VINA RESULT:      -7.2      4.932      8.259
REMARK  Name = 
REMARK  4 active torsions:
REMARK  status: ('A' for Active; 'I' for Inactive)
REMARK    1  A    between atoms: C_1  and  C_2
REMARK    2  A    between atoms: C_9  and  C_10
REMARK    3  A    between atoms: C_13  and  C_14
REMARK    4  A    between atoms: C_14  and  C_16
REMARK                            x       y       z     vdW  Elec       q    Type
REMARK                         _______ _______ _______ _____ _____    ______ ____
ROOT
ATOM      1  C   UNL     1       2.746  13.404  18.159  0.00  0.00    +0.000 C 
ATOM      2  C   UNL     1       1.561  13.909  18.957  0.00  0.00    +0.000 C 
ATOM      3  O   UNL     1       1.432  15.110  19.187  0.00  0.00    +0.000 OA
ATOM      4  N   UNL     1       0.626  12.952  19.375  0.00  0.00    +0.000 N 
ATOM      5  C   UNL     1      -0.483  13.455  20.153  0.00  0.00    +0.000 C 
ATOM      6  N   UNL     1      -1.482  12.431  20.421  0.00  0.00    +0.000 NA
ATOM      7  C   UNL     1      -2.375  12.123  19.319  0.00  0.00    +0.000 C 
ATOM      8  N   UNL     1      -1.888  11.100  18.404  0.00  0.00    +0.000 N 
ATOM      9  C   UNL     1      -2.644  10.668  17.313  0.00  0.00    +0.000 C 
ATOM     10  C   UNL     1      -3.976  11.318  17.018  0.00  0.00    +0.000 C 
ATOM     11  O   UNL     1      -2.273   9.728  16.601  0.00  0.00    +0.000 OA
ATOM     12  C   UNL     1      -0.914  10.116  18.872  0.00  0.00    +0.000 C 
ATOM     13  C   UNL     1      -0.003  10.565  20.011  0.00  0.00    +0.000 C 
ATOM     14  C   UNL     1      -0.900  11.250  21.041  0.00  0.00    +0.000 C 
ATOM     15  C   UNL     1       1.057  11.577  19.576  0.00  0.00    +0.000 C 
ENDROOT
BRANCH  13  16
ATOM     16  C   UNL     1       0.661   9.325  20.637  0.00  0.00    +0.000 C 
ATOM     17  O   UNL     1       0.492   9.045  21.829  0.00  0.00    +0.000 OA
BRANCH  16  18
ATOM     18  C   UNL     1       1.509   8.377  19.832  0.00  0.00    +0.000 A 
ATOM     19  C   UNL     1       1.998   8.658  18.551  0.00  0.00    +0.000 A 
ATOM     20  C   UNL     1       2.761   7.725  17.844  0.00  0.00    +0.000 A 
ATOM     21  C   UNL     1       3.054   6.496  18.418  0.00  0.00    +0.000 A 
ATOM     22 BR   UNL     1       4.073   5.238  17.449  0.00  0.00    +0.000 Br
ATOM     23  C   UNL     1       2.598   6.200  19.701  0.00  0.00    +0.000 A 
ATOM     24  C   UNL     1       1.832   7.137  20.405  0.00  0.00    +0.000 A 
ENDBRANCH  16  18
ENDBRANCH  13  16
TORSDOF 2
ENDMDL
MODEL 4
REMARK VINA RESULT:      -7.1      1.600      4.042
REMARK  Name = 
REMARK  4 active torsions:
REMARK  status: ('A' for Active; 'I' for Inactive)
REMARK    1  A    between atoms: C_1  and  C_2
REMARK    2  A    between atoms: C_9  and  C_10
REMARK    3  A    between atoms: C_13  and  C_14
REMARK    4  A    between atoms: C_14  and  C_16
REMARK                            x       y       z     vdW  Elec       q    Type
REMARK                         _______ _______ _______ _____ _____    ______ ____
ROOT
ATOM      1  C   UNL     1       7.941   6.074  19.096  0.00  0.00    +0.000 C 
ATOM      2  C   UNL     1       7.376   4.977  18.217  0.00  0.00    +0.000 C 
ATOM      3  O   UNL     1       8.125   4.164  17.678  0.00  0.00    +0.000 OA
ATOM      4  N   UNL     1       5.981   4.925  18.089  0.00  0.00    +0.000 N 
ATOM      5  C   UNL     1       5.469   3.884  17.227  0.00  0.00    +0.000 C 
ATOM      6  N   UNL     1       4.016   3.802  17.262  0.00  0.00    +0.000 NA
ATOM      7  C   UNL     1       3.453   3.138  18.424  0.00  0.00    +0.000 C 
ATOM      8  N   UNL     1       3.214   4.007  19.568  0.00  0.00    +0.000 N 
ATOM      9  C   UNL     1       2.646   3.528  20.750  0.00  0.00    +0.000 C 
ATOM     10  C   UNL     1       2.330   2.057  20.888  0.00  0.00    +0.000 C 
ATOM     11  O   UNL     1       2.349   4.288  21.680  0.00  0.00    +0.000 OA
ATOM     12  C   UNL     1       3.018   5.440  19.360  0.00  0.00    +0.000 C 
ATOM     13  C   UNL     1       3.687   6.035  18.124  0.00  0.00    +0.000 C 
ATOM     14  C   UNL     1       3.389   5.082  16.967  0.00  0.00    +0.000 C 
ATOM     15  C   UNL     1       5.206   6.145  18.252  0.00  0.00    +0.000 C 
ENDROOT
BRANCH  13  16
ATOM     16  C   UNL     1       3.069   7.416  17.837  0.00  0.00    +0.000 C 
ATOM     17  O   UNL     1       3.252   7.984  16.755  0.00  0.00    +0.000 OA
BRANCH  16  18
ATOM     18  C   UNL     1       2.186   8.121  18.831  0.00  0.00    +0.000 A 
ATOM     19  C   UNL     1       1.469   9.291  18.551  0.00  0.00    +0.000 A 
ATOM     20  C   UNL     1       0.685   9.913  19.526  0.00  0.00    +0.000 A 
ATOM     21  C   UNL     1       0.601   9.363  20.798  0.00  0.00    +0.000 A 
ATOM     22 BR   UNL     1      -0.450  10.219  22.111  0.00  0.00    +0.000 Br
ATOM     23  C   UNL     1       1.286   8.188  21.095  0.00  0.00    +0.000 A 
ATOM     24  C   UNL     1       2.073   7.569  20.116  0.00  0.00    +0.000 A 
ENDBRANCH  16  18
ENDBRANCH  13  16
TORSDOF 2
ENDMDL
MODEL 5
REMARK VINA RESULT:      -7.1      2.100      4.228
REMARK  Name = 
REMARK  4 active torsions:
REMARK  status: ('A' for Active; 'I' for Inactive)
REMARK    1  A    between atoms: C_1  and  C_2
REMARK    2  A    between atoms: C_9  and  C_10
REMARK    3  A    between atoms: C_13  and  C_14
REMARK    4  A    between atoms: C_14  and  C_16
REMARK                            x       y       z     vdW  Elec       q    Type
REMARK                         _______ _______ _______ _____ _____    ______ ____
ROOT
ATOM      1  C   UNL     1       6.991   7.030  17.767  0.00  0.00    +0.000 C 
ATOM      2  C   UNL     1       6.222   6.142  16.809  0.00  0.00    +0.000 C 
ATOM      3  O   UNL     1       6.591   6.019  15.643  0.00  0.00    +0.000 OA
ATOM      4  N   UNL     1       5.113   5.461  17.330  0.00  0.00    +0.000 N 
ATOM      5  C   UNL     1       4.384   4.639  16.392  0.00  0.00    +0.000 C 
ATOM      6  N   UNL     1       3.342   3.853  17.036  0.00  0.00    +0.000 NA
ATOM      7  C   UNL     1       3.798   2.669  17.742  0.00  0.00    +0.000 C 
ATOM      8  N   UNL     1       4.184   2.893  19.128  0.00  0.00    +0.000 N 
ATOM      9  C   UNL     1       4.612   1.850  19.951  0.00  0.00    +0.000 C 
ATOM     10  C   UNL     1       4.752   0.456  19.384  0.00  0.00    +0.000 C 
ATOM     11  O   UNL     1       4.839   2.026  21.154  0.00  0.00    +0.000 OA
ATOM     12  C   UNL     1       3.625   4.028  19.859  0.00  0.00    +0.000 C 
ATOM     13  C   UNL     1       3.215   5.232  19.015  0.00  0.00    +0.000 C 
ATOM     14  C   UNL     1       2.439   4.682  17.821  0.00  0.00    +0.000 C 
ATOM     15  C   UNL     1       4.405   6.022  18.469  0.00  0.00    +0.000 C 
ENDROOT
BRANCH  13  16
ATOM     16  C   UNL     1       2.303   6.144  19.857  0.00  0.00    +0.000 C 
ATOM     17  O   UNL     1       1.807   5.746  20.917  0.00  0.00    +0.000 OA
BRANCH  16  18
ATOM     18  C   UNL     1       2.003   7.564  19.460  0.00  0.00    +0.000 A 
ATOM     19  C   UNL     1       2.255   8.093  18.188  0.00  0.00    +0.000 A 
ATOM     20  C   UNL     1       1.977   9.428  17.888  0.00  0.00    +0.000 A 
ATOM     21  C   UNL     1       1.430  10.254  18.860  0.00  0.00    +0.000 A 
ATOM     22 BR   UNL     1       1.070  12.060  18.448  0.00  0.00    +0.000 Br
ATOM     23  C   UNL     1       1.148   9.748  20.126  0.00  0.00    +0.000 A 
ATOM     24  C   UNL     1       1.431   8.409  20.424  0.00  0.00    +0.000 A 
ENDBRANCH  16  18
ENDBRANCH  13  16
TORSDOF 2
ENDMDL
MODEL 6
REMARK VINA RESULT:      -7.1      5.110      8.618
REMARK  Name = 
REMARK  4 active torsions:
REMARK  status: ('A' for Active; 'I' for Inactive)
REMARK    1  A    between atoms: C_1  and  C_2
REMARK    2  A    between atoms: C_9  and  C_10
REMARK    3  A    between atoms: C_13  and  C_14
REMARK    4  A    between atoms: C_14  and  C_16
REMARK                            x       y       z     vdW  Elec       q    Type
REMARK                         _______ _______ _______ _____ _____    ______ ____
ROOT
ATOM      1  C   UNL     1      -2.813   9.537  17.632  0.00  0.00    +0.000 C 
ATOM      2  C   UNL     1      -2.149  10.897  17.552  0.00  0.00    +0.000 C 
ATOM      3  O   UNL     1      -2.289  11.599  16.552  0.00  0.00    +0.000 OA
ATOM      4  N   UNL     1      -1.416  11.310  18.672  0.00  0.00    +0.000 N 
ATOM      5  C   UNL     1      -0.775  12.600  18.562  0.00  0.00    +0.000 C 
ATOM      6  N   UNL     1      -0.160  13.022  19.811  0.00  0.00    +0.000 NA
ATOM      7  C   UNL     1      -1.071  13.545  20.813  0.00  0.00    +0.000 C 
ATOM      8  N   UNL     1      -1.655  12.540  21.692  0.00  0.00    +0.000 N 
ATOM      9  C   UNL     1      -2.525  12.885  22.728  0.00  0.00    +0.000 C 
ATOM     10  C   UNL     1      -2.939  14.326  22.912  0.00  0.00    +0.000 C 
ATOM     11  O   UNL     1      -2.936  12.043  23.535  0.00  0.00    +0.000 OA
ATOM     12  C   UNL     1      -0.959  11.274  21.905  0.00  0.00    +0.000 C 
ATOM     13  C   UNL     1      -0.055  10.806  20.767  0.00  0.00    +0.000 C 
ATOM     14  C   UNL     1       0.761  12.022  20.332  0.00  0.00    +0.000 C 
ATOM     15  C   UNL     1      -0.828  10.307  19.546  0.00  0.00    +0.000 C 
ENDROOT
BRANCH  13  16
ATOM     16  C   UNL     1       0.885   9.707  21.296  0.00  0.00    +0.000 C 
ATOM     17  O   UNL     1       1.202   9.659  22.489  0.00  0.00    +0.000 OA
BRANCH  16  18
ATOM     18  C   UNL     1       1.429   8.621  20.407  0.00  0.00    +0.000 A 
ATOM     19  C   UNL     1       1.870   8.831  19.094  0.00  0.00    +0.000 A 
ATOM     20  C   UNL     1       2.342   7.776  18.310  0.00  0.00    +0.000 A 
ATOM     21  C   UNL     1       2.389   6.492  18.835  0.00  0.00    +0.000 A 
ATOM     22 BR   UNL     1       3.015   5.072  17.762  0.00  0.00    +0.000 Br
ATOM     23  C   UNL     1       1.977   6.261  20.145  0.00  0.00    +0.000 A 
ATOM     24  C   UNL     1       1.502   7.320  20.928  0.00  0.00    +0.000 A 
ENDBRANCH  16  18
ENDBRANCH  13  16
TORSDOF 2
ENDMDL
MODEL 7
REMARK VINA RESULT:      -7.0      1.418      3.885
REMARK  Name = 
REMARK  4 active torsions:
REMARK  status: ('A' for Active; 'I' for Inactive)
REMARK    1  A    between atoms: C_1  and  C_2
REMARK    2  A    between atoms: C_9  and  C_10
REMARK    3  A    between atoms: C_13  and  C_14
REMARK    4  A    between atoms: C_14  and  C_16
REMARK                            x       y       z     vdW  Elec       q    Type
REMARK                         _______ _______ _______ _____ _____    ______ ____
ROOT
ATOM      1  C   UNL     1       6.648   4.847  17.236  0.00  0.00    +0.000 C 
ATOM      2  C   UNL     1       5.446   4.057  16.759  0.00  0.00    +0.000 C 
ATOM      3  O   UNL     1       5.588   3.124  15.970  0.00  0.00    +0.000 OA
ATOM      4  N   UNL     1       4.199   4.423  17.284  0.00  0.00    +0.000 N 
ATOM      5  C   UNL     1       3.067   3.670  16.796  0.00  0.00    +0.000 C 
ATOM      6  N   UNL     1       1.835   4.007  17.494  0.00  0.00    +0.000 NA
ATOM      7  C   UNL     1       1.679   3.416  18.811  0.00  0.00    +0.000 C 
ATOM      8  N   UNL     1       2.253   4.192  19.901  0.00  0.00    +0.000 N 
ATOM      9  C   UNL     1       2.158   3.775  21.230  0.00  0.00    +0.000 C 
ATOM     10  C   UNL     1       1.507   2.451  21.557  0.00  0.00    +0.000 C 
ATOM     11  O   UNL     1       2.555   4.486  22.161  0.00  0.00    +0.000 OA
ATOM     12  C   UNL     1       2.430   5.634  19.748  0.00  0.00    +0.000 C 
ATOM     13  C   UNL     1       2.622   6.136  18.320  0.00  0.00    +0.000 C 
ATOM     14  C   UNL     1       1.565   5.437  17.467  0.00  0.00    +0.000 C 
ATOM     15  C   UNL     1       3.991   5.791  17.734  0.00  0.00    +0.000 C 
ENDROOT
BRANCH  13  16
ATOM     16  C   UNL     1       2.393   7.659  18.292  0.00  0.00    +0.000 C 
ATOM     17  O   UNL     1       2.778   8.344  17.338  0.00  0.00    +0.000 OA
BRANCH  16  18
ATOM     18  C   UNL     1       1.663   8.381  19.392  0.00  0.00    +0.000 A 
ATOM     19  C   UNL     1       1.636   7.955  20.725  0.00  0.00    +0.000 A 
ATOM     20  C   UNL     1       0.918   8.655  21.698  0.00  0.00    +0.000 A 
ATOM     21  C   UNL     1       0.223   9.804  21.348  0.00  0.00    +0.000 A 
ATOM     22 BR   UNL     1      -0.755  10.736  22.666  0.00  0.00    +0.000 Br
ATOM     23  C   UNL     1       0.252  10.262  20.033  0.00  0.00    +0.000 A 
ATOM     24  C   UNL     1       0.970   9.556  19.060  0.00  0.00    +0.000 A 
ENDBRANCH  16  18
ENDBRANCH  13  16
TORSDOF 2
ENDMDL
MODEL 8
REMARK VINA RESULT:      -6.9      5.147      8.625
REMARK  Name = 
REMARK  4 active torsions:
REMARK  status: ('A' for Active; 'I' for Inactive)
REMARK    1  A    between atoms: C_1  and  C_2
REMARK    2  A    between atoms: C_9  and  C_10
REMARK    3  A    between atoms: C_13  and  C_14
REMARK    4  A    between atoms: C_14  and  C_16
REMARK                            x       y       z     vdW  Elec       q    Type
REMARK                         _______ _______ _______ _____ _____    ______ ____
ROOT
ATOM      1  C   UNL     1      -2.720   9.556  17.697  0.00  0.00    +0.000 C 
ATOM      2  C   UNL     1      -2.089  10.934  17.699  0.00  0.00    +0.000 C 
ATOM      3  O   UNL     1      -2.201  11.671  16.722  0.00  0.00    +0.000 OA
ATOM      4  N   UNL     1      -1.418  11.320  18.868  0.00  0.00    +0.000 N 
ATOM      5  C   UNL     1      -0.806  12.629  18.836  0.00  0.00    +0.000 C 
ATOM      6  N   UNL     1      -0.260  13.016  20.128  0.00  0.00    +0.000 NA
ATOM      7  C   UNL     1      -1.229  13.477  21.106  0.00  0.00    +0.000 C 
ATOM      8  N   UNL     1      -1.825  12.425  21.918  0.00  0.00    +0.000 N 
ATOM      9  C   UNL     1      -2.750  12.708  22.925  0.00  0.00    +0.000 C 
ATOM     10  C   UNL     1      -3.209  14.130  23.145  0.00  0.00    +0.000 C 
ATOM     11  O   UNL     1      -3.175  11.825  23.679  0.00  0.00    +0.000 OA
ATOM     12  C   UNL     1      -1.107  11.168  22.115  0.00  0.00    +0.000 C 
ATOM     13  C   UNL     1      -0.141  10.768  21.003  0.00  0.00    +0.000 C 
ATOM     14  C   UNL     1       0.662  12.019  20.653  0.00  0.00    +0.000 C 
ATOM     15  C   UNL     1      -0.845  10.299  19.729  0.00  0.00    +0.000 C 
ENDROOT
BRANCH  13  16
ATOM     16  C   UNL     1       0.802   9.671  21.532  0.00  0.00    +0.000 C 
ATOM     17  O   UNL     1       1.129   9.632  22.723  0.00  0.00    +0.000 OA
BRANCH  16  18
ATOM     18  C   UNL     1       1.338   8.579  20.646  0.00  0.00    +0.000 A 
ATOM     19  C   UNL     1       1.419   7.233  21.023  0.00  0.00    +0.000 A 
ATOM     20  C   UNL     1       1.950   6.268  20.164  0.00  0.00    +0.000 A 
ATOM     21  C   UNL     1       2.400   6.639  18.905  0.00  0.00    +0.000 A 
ATOM     22 BR   UNL     1       3.129   5.330  17.756  0.00  0.00    +0.000 Br
ATOM     23  C   UNL     1       2.310   7.967  18.496  0.00  0.00    +0.000 A 
ATOM     24  C   UNL     1       1.780   8.932  19.362  0.00  0.00    +0.000 A 
ENDBRANCH  16  18
ENDBRANCH  13  16
TORSDOF 2
ENDMDL
MODEL 9
REMARK VINA RESULT:      -6.8      4.206      7.463
REMARK  Name = 
REMARK  4 active torsions:
REMARK  status: ('A' for Active; 'I' for Inactive)
REMARK    1  A    between atoms: C_1  and  C_2
REMARK    2  A    between atoms: C_9  and  C_10
REMARK    3  A    between atoms: C_13  and  C_14
REMARK    4  A    between atoms: C_14  and  C_16
REMARK                            x       y       z     vdW  Elec       q    Type
REMARK                         _______ _______ _______ _____ _____    ______ ____
ROOT
ATOM      1  C   UNL     1       2.932  13.683  18.017  0.00  0.00    +0.000 C 
ATOM      2  C   UNL     1       2.148  13.364  19.274  0.00  0.00    +0.000 C 
ATOM      3  O   UNL     1       2.081  14.182  20.189  0.00  0.00    +0.000 OA
ATOM      4  N   UNL     1       1.491  12.127  19.313  0.00  0.00    +0.000 N 
ATOM      5  C   UNL     1       0.769  11.837  20.531  0.00  0.00    +0.000 C 
ATOM      6  N   UNL     1      -0.003  10.608  20.438  0.00  0.00    +0.000 NA
ATOM      7  C   UNL     1      -1.252  10.706  19.704  0.00  0.00    +0.000 C 
ATOM      8  N   UNL     1      -1.137  10.485  18.269  0.00  0.00    +0.000 N 
ATOM      9  C   UNL     1      -2.251  10.513  17.429  0.00  0.00    +0.000 C 
ATOM     10  C   UNL     1      -3.611  10.849  17.996  0.00  0.00    +0.000 C 
ATOM     11  O   UNL     1      -2.165  10.223  16.230  0.00  0.00    +0.000 OA
ATOM     12  C   UNL     1      -0.025   9.695  17.746  0.00  0.00    +0.000 C 
ATOM     13  C   UNL     1       1.250   9.696  18.585  0.00  0.00    +0.000 C 
ATOM     14  C   UNL     1       0.818   9.476  20.034  0.00  0.00    +0.000 C 
ATOM     15  C   UNL     1       2.013  11.020  18.527  0.00  0.00    +0.000 C 
ENDROOT
BRANCH  13  16
ATOM     16  C   UNL     1       2.151   8.534  18.126  0.00  0.00    +0.000 C 
ATOM     17  O   UNL     1       2.988   8.693  17.231  0.00  0.00    +0.000 OA
BRANCH  16  18
ATOM     18  C   UNL     1       2.089   7.172  18.761  0.00  0.00    +0.000 A 
ATOM     19  C   UNL     1       2.008   6.954  20.142  0.00  0.00    +0.000 A 
ATOM     20  C   UNL     1       1.978   5.662  20.673  0.00  0.00    +0.000 A 
ATOM     21  C   UNL     1       2.020   4.566  19.823  0.00  0.00    +0.000 A 
ATOM     22 BR   UNL     1       1.993   2.825  20.551  0.00  0.00    +0.000 Br
ATOM     23  C   UNL     1       2.078   4.755  18.444  0.00  0.00    +0.000 A 
ATOM     24  C   UNL     1       2.110   6.051  17.916  0.00  0.00    +0.000 A 
ENDBRANCH  16  18
ENDBRANCH  13  16
TORSDOF 2
ENDMDL
