MODEL 1
REMARK VINA RESULT:      -7.3      0.000      0.000
REMARK  Name = 
REMARK  7 active torsions:
REMARK  status: ('A' for Active; 'I' for Inactive)
REMARK    1  A    between atoms: C_1  and  N_2
REMARK    2  A    between atoms: N_2  and  C_3
REMARK    3  A    between atoms: N_2  and  C_7
REMARK    4  A    between atoms: C_3  and  C_4
REMARK    5  A    between atoms: C_4  and  O_6
REMARK    6  A    between atoms: C_12  and  C_13
REMARK    7  A    between atoms: C_13  and  C_15
REMARK                            x       y       z     vdW  Elec       q    Type
REMARK                         _______ _______ _______ _____ _____    ______ ____
ROOT
ATOM      1  C   UNL     1       4.254   4.244  18.059  0.00  0.00    +0.000 A 
ATOM      2  C   UNL     1       3.943   2.874  18.251  0.00  0.00    +0.000 A 
ATOM      3  C   UNL     1       2.627   2.408  18.200  0.00  0.00    +0.000 A 
ATOM      4  C   UNL     1       1.584   3.288  17.974  0.00  0.00    +0.000 A 
ATOM      5  C   UNL     1       1.844   4.636  17.795  0.00  0.00    +0.000 A 
ATOM      6  C   UNL     1       3.162   5.151  17.820  0.00  0.00    +0.000 A 
ENDROOT
BRANCH   1   8
ATOM      7  C   UNL     1       6.150   5.312  19.311  0.00  0.00    +0.000 C 
ATOM      8  N   UNL     1       5.641   4.655  18.112  0.00  0.00    +0.000 N 
BRANCH   8   9
ATOM      9  C   UNL     1       6.570   4.393  17.013  0.00  0.00    +0.000 C 
BRANCH   9  10
ATOM     10  C   UNL     1       6.727   5.598  16.114  0.00  0.00    +0.000 C 
ATOM     11  O   UNL     1       7.616   6.404  16.342  0.00  0.00    +0.000 OA
BRANCH  10  12
ATOM     12  O   UNL     1       5.914   5.796  15.056  0.00  0.00    +0.000 OA
ATOM     13  H   UNL     1       5.037   6.188  15.153  0.00  0.00    +0.000 HD
ENDBRANCH  10  12
ENDBRANCH   9  10
ENDBRANCH   8   9
ENDBRANCH   1   8
BRANCH   6  14
ATOM     14  C   UNL     1       3.286   6.645  17.713  0.00  0.00    +0.000 C 
ATOM     15  O   UNL     1       4.152   7.125  16.997  0.00  0.00    +0.000 OA
BRANCH  14  16
ATOM     16  C   UNL     1       2.452   7.571  18.540  0.00  0.00    +0.000 A 
ATOM     17  C   UNL     1       2.222   7.290  19.903  0.00  0.00    +0.000 A 
ATOM     18  C   UNL     1       1.456   8.149  20.687  0.00  0.00    +0.000 A 
ATOM     19  C   UNL     1       0.907   9.301  20.126  0.00  0.00    +0.000 A 
ATOM     20  C   UNL     1       1.112   9.588  18.774  0.00  0.00    +0.000 A 
ATOM     21  C   UNL     1       1.872   8.722  17.980  0.00  0.00    +0.000 A 
ENDBRANCH  14  16
ENDBRANCH   6  14
TORSDOF 6
ENDMDL
MODEL 2
REMARK VINA RESULT:      -7.3      2.654      5.438
REMARK  Name = 
REMARK  7 active torsions:
REMARK  status: ('A' for Active; 'I' for Inactive)
REMARK    1  A    between atoms: C_1  and  N_2
REMARK    2  A    between atoms: N_2  and  C_3
REMARK    3  A    between atoms: N_2  and  C_7
REMARK    4  A    between atoms: C_3  and  C_4
REMARK    5  A    between atoms: C_4  and  O_6
REMARK    6  A    between atoms: C_12  and  C_13
REMARK    7  A    between atoms: C_13  and  C_15
REMARK                            x       y       z     vdW  Elec       q    Type
REMARK                         _______ _______ _______ _____ _____    ______ ____
ROOT
ATOM      1  C   UNL     1       2.115   4.717  19.581  0.00  0.00    +0.000 A 
ATOM      2  C   UNL     1       1.738   5.700  20.531  0.00  0.00    +0.000 A 
ATOM      3  C   UNL     1       1.892   7.065  20.272  0.00  0.00    +0.000 A 
ATOM      4  C   UNL     1       2.439   7.489  19.074  0.00  0.00    +0.000 A 
ATOM      5  C   UNL     1       2.832   6.559  18.126  0.00  0.00    +0.000 A 
ATOM      6  C   UNL     1       2.678   5.169  18.337  0.00  0.00    +0.000 A 
ENDROOT
BRANCH   1   8
ATOM      7  C   UNL     1       0.743   2.623  19.393  0.00  0.00    +0.000 C 
ATOM      8  N   UNL     1       1.913   3.322  19.912  0.00  0.00    +0.000 N 
BRANCH   8   9
ATOM      9  C   UNL     1       2.873   2.569  20.719  0.00  0.00    +0.000 C 
BRANCH   9  10
ATOM     10  C   UNL     1       4.045   2.091  19.894  0.00  0.00    +0.000 C 
ATOM     11  O   UNL     1       5.181   2.360  20.254  0.00  0.00    +0.000 OA
BRANCH  10  12
ATOM     12  O   UNL     1       3.865   1.361  18.774  0.00  0.00    +0.000 OA
ATOM     13  H   UNL     1       4.359   0.547  18.610  0.00  0.00    +0.000 HD
ENDBRANCH  10  12
ENDBRANCH   9  10
ENDBRANCH   8   9
ENDBRANCH   1   8
BRANCH   6  14
ATOM     14  C   UNL     1       3.241   4.276  17.267  0.00  0.00    +0.000 C 
ATOM     15  O   UNL     1       2.565   3.350  16.842  0.00  0.00    +0.000 OA
BRANCH  14  16
ATOM     16  C   UNL     1       4.648   4.414  16.779  0.00  0.00    +0.000 A 
ATOM     17  C   UNL     1       4.920   4.421  15.396  0.00  0.00    +0.000 A 
ATOM     18  C   UNL     1       6.224   4.558  14.927  0.00  0.00    +0.000 A 
ATOM     19  C   UNL     1       7.278   4.691  15.829  0.00  0.00    +0.000 A 
ATOM     20  C   UNL     1       7.030   4.671  17.204  0.00  0.00    +0.000 A 
ATOM     21  C   UNL     1       5.722   4.522  17.680  0.00  0.00    +0.000 A 
ENDBRANCH  14  16
ENDBRANCH   6  14
TORSDOF 6
ENDMDL
MODEL 3
REMARK VINA RESULT:      -7.3      2.644      5.352
REMARK  Name = 
REMARK  7 active torsions:
REMARK  status: ('A' for Active; 'I' for Inactive)
REMARK    1  A    between atoms: C_1  and  N_2
REMARK    2  A    between atoms: N_2  and  C_3
REMARK    3  A    between atoms: N_2  and  C_7
REMARK    4  A    between atoms: C_3  and  C_4
REMARK    5  A    between atoms: C_4  and  O_6
REMARK    6  A    between atoms: C_12  and  C_13
REMARK    7  A    between atoms: C_13  and  C_15
REMARK                            x       y       z     vdW  Elec       q    Type
REMARK                         _______ _______ _______ _____ _____    ______ ____
ROOT
ATOM      1  C   UNL     1       2.105   4.773  19.589  0.00  0.00    +0.000 A 
ATOM      2  C   UNL     1       1.718   5.757  20.534  0.00  0.00    +0.000 A 
ATOM      3  C   UNL     1       1.854   7.122  20.266  0.00  0.00    +0.000 A 
ATOM      4  C   UNL     1       2.393   7.546  19.065  0.00  0.00    +0.000 A 
ATOM      5  C   UNL     1       2.795   6.616  18.121  0.00  0.00    +0.000 A 
ATOM      6  C   UNL     1       2.659   5.225  18.341  0.00  0.00    +0.000 A 
ENDROOT
BRANCH   1   8
ATOM      7  C   UNL     1       0.762   2.659  19.413  0.00  0.00    +0.000 C 
ATOM      8  N   UNL     1       1.922   3.377  19.928  0.00  0.00    +0.000 N 
BRANCH   8   9
ATOM      9  C   UNL     1       2.891   2.643  20.741  0.00  0.00    +0.000 C 
BRANCH   9  10
ATOM     10  C   UNL     1       4.035   2.116  19.908  0.00  0.00    +0.000 C 
ATOM     11  O   UNL     1       5.181   2.253  20.308  0.00  0.00    +0.000 OA
BRANCH  10  12
ATOM     12  O   UNL     1       3.819   1.483  18.736  0.00  0.00    +0.000 OA
ATOM     13  H   UNL     1       3.765   1.963  17.900  0.00  0.00    +0.000 HD
ENDBRANCH  10  12
ENDBRANCH   9  10
ENDBRANCH   8   9
ENDBRANCH   1   8
BRANCH   6  14
ATOM     14  C   UNL     1       3.231   4.333  17.275  0.00  0.00    +0.000 C 
ATOM     15  O   UNL     1       2.536   3.447  16.799  0.00  0.00    +0.000 OA
BRANCH  14  16
ATOM     16  C   UNL     1       4.662   4.422  16.850  0.00  0.00    +0.000 A 
ATOM     17  C   UNL     1       5.674   4.623  17.811  0.00  0.00    +0.000 A 
ATOM     18  C   UNL     1       7.012   4.698  17.430  0.00  0.00    +0.000 A 
ATOM     19  C   UNL     1       7.362   4.573  16.087  0.00  0.00    +0.000 A 
ATOM     20  C   UNL     1       6.372   4.387  15.119  0.00  0.00    +0.000 A 
ATOM     21  C   UNL     1       5.025   4.323  15.496  0.00  0.00    +0.000 A 
ENDBRANCH  14  16
ENDBRANCH   6  14
TORSDOF 6
ENDMDL
MODEL 4
REMARK VINA RESULT:      -7.2      2.860      4.683
REMARK  Name = 
REMARK  7 active torsions:
REMARK  status: ('A' for Active; 'I' for Inactive)
REMARK    1  A    between atoms: C_1  and  N_2
REMARK    2  A    between atoms: N_2  and  C_3
REMARK    3  A    between atoms: N_2  and  C_7
REMARK    4  A    between atoms: C_3  and  C_4
REMARK    5  A    between atoms: C_4  and  O_6
REMARK    6  A    between atoms: C_12  and  C_13
REMARK    7  A    between atoms: C_13  and  C_15
REMARK                            x       y       z     vdW  Elec       q    Type
REMARK                         _______ _______ _______ _____ _____    ______ ____
ROOT
ATOM      1  C   UNL     1       6.652   5.209  15.974  0.00  0.00    +0.000 A 
ATOM      2  C   UNL     1       7.473   4.816  14.887  0.00  0.00    +0.000 A 
ATOM      3  C   UNL     1       6.929   4.304  13.706  0.00  0.00    +0.000 A 
ATOM      4  C   UNL     1       5.560   4.150  13.579  0.00  0.00    +0.000 A 
ATOM      5  C   UNL     1       4.724   4.509  14.624  0.00  0.00    +0.000 A 
ATOM      6  C   UNL     1       5.229   5.049  15.830  0.00  0.00    +0.000 A 
ENDROOT
BRANCH   1   8
ATOM      7  C   UNL     1       7.407   7.189  17.319  0.00  0.00    +0.000 C 
ATOM      8  N   UNL     1       7.284   5.745  17.162  0.00  0.00    +0.000 N 
BRANCH   8   9
ATOM      9  C   UNL     1       7.769   4.882  18.239  0.00  0.00    +0.000 C 
BRANCH   9  10
ATOM     10  C   UNL     1       7.234   5.313  19.585  0.00  0.00    +0.000 C 
ATOM     11  O   UNL     1       6.027   5.408  19.748  0.00  0.00    +0.000 OA
BRANCH  10  12
ATOM     12  O   UNL     1       8.060   5.583  20.616  0.00  0.00    +0.000 OA
ATOM     13  H   UNL     1       8.622   6.368  20.628  0.00  0.00    +0.000 HD
ENDBRANCH  10  12
ENDBRANCH   9  10
ENDBRANCH   8   9
ENDBRANCH   1   8
BRANCH   6  14
ATOM     14  C   UNL     1       4.217   5.297  16.913  0.00  0.00    +0.000 C 
ATOM     15  O   UNL     1       4.091   6.424  17.370  0.00  0.00    +0.000 OA
BRANCH  14  16
ATOM     16  C   UNL     1       3.430   4.187  17.532  0.00  0.00    +0.000 A 
ATOM     17  C   UNL     1       2.056   4.355  17.797  0.00  0.00    +0.000 A 
ATOM     18  C   UNL     1       1.308   3.326  18.364  0.00  0.00    +0.000 A 
ATOM     19  C   UNL     1       1.918   2.112  18.676  0.00  0.00    +0.000 A 
ATOM     20  C   UNL     1       3.282   1.931  18.433  0.00  0.00    +0.000 A 
ATOM     21  C   UNL     1       4.040   2.967  17.874  0.00  0.00    +0.000 A 
ENDBRANCH  14  16
ENDBRANCH   6  14
TORSDOF 6
ENDMDL
MODEL 5
REMARK VINA RESULT:      -7.1      0.536      1.354
REMARK  Name = 
REMARK  7 active torsions:
REMARK  status: ('A' for Active; 'I' for Inactive)
REMARK    1  A    between atoms: C_1  and  N_2
REMARK    2  A    between atoms: N_2  and  C_3
REMARK    3  A    between atoms: N_2  and  C_7
REMARK    4  A    between atoms: C_3  and  C_4
REMARK    5  A    between atoms: C_4  and  O_6
REMARK    6  A    between atoms: C_12  and  C_13
REMARK    7  A    between atoms: C_13  and  C_15
REMARK                            x       y       z     vdW  Elec       q    Type
REMARK                         _______ _______ _______ _____ _____    ______ ____
ROOT
ATOM      1  C   UNL     1       4.352   4.267  18.056  0.00  0.00    +0.000 A 
ATOM      2  C   UNL     1       4.055   2.891  18.228  0.00  0.00    +0.000 A 
ATOM      3  C   UNL     1       2.747   2.408  18.142  0.00  0.00    +0.000 A 
ATOM      4  C   UNL     1       1.698   3.277  17.900  0.00  0.00    +0.000 A 
ATOM      5  C   UNL     1       1.945   4.630  17.739  0.00  0.00    +0.000 A 
ATOM      6  C   UNL     1       3.255   5.161  17.800  0.00  0.00    +0.000 A 
ENDROOT
BRANCH   1   8
ATOM      7  C   UNL     1       6.178   5.441  19.315  0.00  0.00    +0.000 C 
ATOM      8  N   UNL     1       5.733   4.694  18.144  0.00  0.00    +0.000 N 
BRANCH   8   9
ATOM      9  C   UNL     1       6.715   4.364  17.113  0.00  0.00    +0.000 C 
BRANCH   9  10
ATOM     10  C   UNL     1       6.197   4.671  15.727  0.00  0.00    +0.000 C 
ATOM     11  O   UNL     1       5.961   3.753  14.957  0.00  0.00    +0.000 OA
BRANCH  10  12
ATOM     12  O   UNL     1       5.977   5.940  15.325  0.00  0.00    +0.000 OA
ATOM     13  H   UNL     1       5.106   6.352  15.390  0.00  0.00    +0.000 HD
ENDBRANCH  10  12
ENDBRANCH   9  10
ENDBRANCH   8   9
ENDBRANCH   1   8
BRANCH   6  14
ATOM     14  C   UNL     1       3.361   6.657  17.710  0.00  0.00    +0.000 C 
ATOM     15  O   UNL     1       4.228   7.155  17.006  0.00  0.00    +0.000 OA
BRANCH  14  16
ATOM     16  C   UNL     1       2.509   7.564  18.539  0.00  0.00    +0.000 A 
ATOM     17  C   UNL     1       1.940   8.720  17.967  0.00  0.00    +0.000 A 
ATOM     18  C   UNL     1       1.136   9.569  18.726  0.00  0.00    +0.000 A 
ATOM     19  C   UNL     1       0.888   9.278  20.066  0.00  0.00    +0.000 A 
ATOM     20  C   UNL     1       1.456   8.145  20.654  0.00  0.00    +0.000 A 
ATOM     21  C   UNL     1       2.272   7.296  19.899  0.00  0.00    +0.000 A 
ENDBRANCH  14  16
ENDBRANCH   6  14
TORSDOF 6
ENDMDL
MODEL 6
REMARK VINA RESULT:      -7.0      2.857      4.568
REMARK  Name = 
REMARK  7 active torsions:
REMARK  status: ('A' for Active; 'I' for Inactive)
REMARK    1  A    between atoms: C_1  and  N_2
REMARK    2  A    between atoms: N_2  and  C_3
REMARK    3  A    between atoms: N_2  and  C_7
REMARK    4  A    between atoms: C_3  and  C_4
REMARK    5  A    between atoms: C_4  and  O_6
REMARK    6  A    between atoms: C_12  and  C_13
REMARK    7  A    between atoms: C_13  and  C_15
REMARK                            x       y       z     vdW  Elec       q    Type
REMARK                         _______ _______ _______ _____ _____    ______ ____
ROOT
ATOM      1  C   UNL     1       6.662   5.254  15.991  0.00  0.00    +0.000 A 
ATOM      2  C   UNL     1       7.477   4.868  14.897  0.00  0.00    +0.000 A 
ATOM      3  C   UNL     1       6.929   4.345  13.723  0.00  0.00    +0.000 A 
ATOM      4  C   UNL     1       5.561   4.174  13.610  0.00  0.00    +0.000 A 
ATOM      5  C   UNL     1       4.731   4.526  14.661  0.00  0.00    +0.000 A 
ATOM      6  C   UNL     1       5.240   5.076  15.861  0.00  0.00    +0.000 A 
ENDROOT
BRANCH   1   8
ATOM      7  C   UNL     1       7.415   7.248  17.317  0.00  0.00    +0.000 C 
ATOM      8  N   UNL     1       7.298   5.801  17.171  0.00  0.00    +0.000 N 
BRANCH   8   9
ATOM      9  C   UNL     1       7.794   4.949  18.251  0.00  0.00    +0.000 C 
BRANCH   9  10
ATOM     10  C   UNL     1       7.165   5.305  19.578  0.00  0.00    +0.000 C 
ATOM     11  O   UNL     1       7.880   5.476  20.554  0.00  0.00    +0.000 OA
BRANCH  10  12
ATOM     12  O   UNL     1       5.830   5.451  19.707  0.00  0.00    +0.000 OA
ATOM     13  H   UNL     1       5.441   6.215  20.152  0.00  0.00    +0.000 HD
ENDBRANCH  10  12
ENDBRANCH   9  10
ENDBRANCH   8   9
ENDBRANCH   1   8
BRANCH   6  14
ATOM     14  C   UNL     1       4.235   5.315  16.952  0.00  0.00    +0.000 C 
ATOM     15  O   UNL     1       4.145   6.427  17.452  0.00  0.00    +0.000 OA
BRANCH  14  16
ATOM     16  C   UNL     1       3.411   4.207  17.527  0.00  0.00    +0.000 A 
ATOM     17  C   UNL     1       4.006   2.965  17.828  0.00  0.00    +0.000 A 
ATOM     18  C   UNL     1       3.252   1.928  18.374  0.00  0.00    +0.000 A 
ATOM     19  C   UNL     1       1.894   2.112  18.627  0.00  0.00    +0.000 A 
ATOM     20  C   UNL     1       1.284   3.331  18.321  0.00  0.00    +0.000 A 
ATOM     21  C   UNL     1       2.035   4.373  17.763  0.00  0.00    +0.000 A 
ENDBRANCH  14  16
ENDBRANCH   6  14
TORSDOF 6
ENDMDL
MODEL 7
REMARK VINA RESULT:      -6.9      0.700      1.374
REMARK  Name = 
REMARK  7 active torsions:
REMARK  status: ('A' for Active; 'I' for Inactive)
REMARK    1  A    between atoms: C_1  and  N_2
REMARK    2  A    between atoms: N_2  and  C_3
REMARK    3  A    between atoms: N_2  and  C_7
REMARK    4  A    between atoms: C_3  and  C_4
REMARK    5  A    between atoms: C_4  and  O_6
REMARK    6  A    between atoms: C_12  and  C_13
REMARK    7  A    between atoms: C_13  and  C_15
REMARK                            x       y       z     vdW  Elec       q    Type
REMARK                         _______ _______ _______ _____ _____    ______ ____
ROOT
ATOM      1  C   UNL     1       3.842   4.079  18.031  0.00  0.00    +0.000 A 
ATOM      2  C   UNL     1       3.415   2.744  18.250  0.00  0.00    +0.000 A 
ATOM      3  C   UNL     1       2.060   2.413  18.328  0.00  0.00    +0.000 A 
ATOM      4  C   UNL     1       1.094   3.397  18.210  0.00  0.00    +0.000 A 
ATOM      5  C   UNL     1       1.471   4.714  18.008  0.00  0.00    +0.000 A 
ATOM      6  C   UNL     1       2.830   5.093  17.904  0.00  0.00    +0.000 A 
ENDROOT
BRANCH   1   8
ATOM      7  C   UNL     1       5.974   4.828  19.126  0.00  0.00    +0.000 C 
ATOM      8  N   UNL     1       5.263   4.347  17.947  0.00  0.00    +0.000 N 
BRANCH   8   9
ATOM      9  C   UNL     1       6.026   4.109  16.722  0.00  0.00    +0.000 C 
BRANCH   9  10
ATOM     10  C   UNL     1       7.367   4.804  16.753  0.00  0.00    +0.000 C 
ATOM     11  O   UNL     1       8.337   4.217  17.208  0.00  0.00    +0.000 OA
BRANCH  10  12
ATOM     12  O   UNL     1       7.520   6.058  16.278  0.00  0.00    +0.000 OA
ATOM     13  H   UNL     1       7.969   6.235  15.441  0.00  0.00    +0.000 HD
ENDBRANCH  10  12
ENDBRANCH   9  10
ENDBRANCH   8   9
ENDBRANCH   1   8
BRANCH   6  14
ATOM     14  C   UNL     1       3.094   6.568  17.789  0.00  0.00    +0.000 C 
ATOM     15  O   UNL     1       4.025   6.959  17.101  0.00  0.00    +0.000 OA
BRANCH  14  16
ATOM     16  C   UNL     1       2.319   7.576  18.577  0.00  0.00    +0.000 A 
ATOM     17  C   UNL     1       1.793   8.719  17.942  0.00  0.00    +0.000 A 
ATOM     18  C   UNL     1       1.061   9.661  18.662  0.00  0.00    +0.000 A 
ATOM     19  C   UNL     1       0.842   9.478  20.026  0.00  0.00    +0.000 A 
ATOM     20  C   UNL     1       1.368   8.358  20.676  0.00  0.00    +0.000 A 
ATOM     21  C   UNL     1       2.113   7.415  19.959  0.00  0.00    +0.000 A 
ENDBRANCH  14  16
ENDBRANCH   6  14
TORSDOF 6
ENDMDL
MODEL 8
REMARK VINA RESULT:      -6.9      2.422      3.687
REMARK  Name = 
REMARK  7 active torsions:
REMARK  status: ('A' for Active; 'I' for Inactive)
REMARK    1  A    between atoms: C_1  and  N_2
REMARK    2  A    between atoms: N_2  and  C_3
REMARK    3  A    between atoms: N_2  and  C_7
REMARK    4  A    between atoms: C_3  and  C_4
REMARK    5  A    between atoms: C_4  and  O_6
REMARK    6  A    between atoms: C_12  and  C_13
REMARK    7  A    between atoms: C_13  and  C_15
REMARK                            x       y       z     vdW  Elec       q    Type
REMARK                         _______ _______ _______ _____ _____    ______ ____
ROOT
ATOM      1  C   UNL     1       3.809   4.352  17.490  0.00  0.00    +0.000 A 
ATOM      2  C   UNL     1       4.561   4.072  16.320  0.00  0.00    +0.000 A 
ATOM      3  C   UNL     1       5.447   5.007  15.779  0.00  0.00    +0.000 A 
ATOM      4  C   UNL     1       5.598   6.249  16.371  0.00  0.00    +0.000 A 
ATOM      5  C   UNL     1       4.871   6.565  17.507  0.00  0.00    +0.000 A 
ATOM      6  C   UNL     1       3.976   5.644  18.100  0.00  0.00    +0.000 A 
ENDROOT
BRANCH   1   8
ATOM      7  C   UNL     1       1.478   3.516  17.900  0.00  0.00    +0.000 C 
ATOM      8  N   UNL     1       2.920   3.330  18.003  0.00  0.00    +0.000 N 
BRANCH   8   9
ATOM      9  C   UNL     1       3.423   2.087  18.587  0.00  0.00    +0.000 C 
BRANCH   9  10
ATOM     10  C   UNL     1       3.907   2.290  20.004  0.00  0.00    +0.000 C 
ATOM     11  O   UNL     1       5.082   2.092  20.271  0.00  0.00    +0.000 OA
BRANCH  10  12
ATOM     12  O   UNL     1       3.070   2.700  20.981  0.00  0.00    +0.000 OA
ATOM     13  H   UNL     1       2.121   2.526  20.946  0.00  0.00    +0.000 HD
ENDBRANCH  10  12
ENDBRANCH   9  10
ENDBRANCH   8   9
ENDBRANCH   1   8
BRANCH   6  14
ATOM     14  C   UNL     1       3.181   6.159  19.267  0.00  0.00    +0.000 C 
ATOM     15  O   UNL     1       3.130   5.500  20.295  0.00  0.00    +0.000 OA
BRANCH  14  16
ATOM     16  C   UNL     1       2.358   7.403  19.177  0.00  0.00    +0.000 A 
ATOM     17  C   UNL     1       1.745   7.932  20.331  0.00  0.00    +0.000 A 
ATOM     18  C   UNL     1       0.983   9.097  20.264  0.00  0.00    +0.000 A 
ATOM     19  C   UNL     1       0.819   9.752  19.045  0.00  0.00    +0.000 A 
ATOM     20  C   UNL     1       1.406   9.234  17.887  0.00  0.00    +0.000 A 
ATOM     21  C   UNL     1       2.164   8.059  17.948  0.00  0.00    +0.000 A 
ENDBRANCH  14  16
ENDBRANCH   6  14
TORSDOF 6
ENDMDL
MODEL 9
REMARK VINA RESULT:      -6.9      2.842      5.022
REMARK  Name = 
REMARK  7 active torsions:
REMARK  status: ('A' for Active; 'I' for Inactive)
REMARK    1  A    between atoms: C_1  and  N_2
REMARK    2  A    between atoms: N_2  and  C_3
REMARK    3  A    between atoms: N_2  and  C_7
REMARK    4  A    between atoms: C_3  and  C_4
REMARK    5  A    between atoms: C_4  and  O_6
REMARK    6  A    between atoms: C_12  and  C_13
REMARK    7  A    between atoms: C_13  and  C_15
REMARK                            x       y       z     vdW  Elec       q    Type
REMARK                         _______ _______ _______ _____ _____    ______ ____
ROOT
ATOM      1  C   UNL     1       2.414   4.483  19.469  0.00  0.00    +0.000 A 
ATOM      2  C   UNL     1       1.487   4.811  20.491  0.00  0.00    +0.000 A 
ATOM      3  C   UNL     1       1.212   6.138  20.831  0.00  0.00    +0.000 A 
ATOM      4  C   UNL     1       1.860   7.173  20.181  0.00  0.00    +0.000 A 
ATOM      5  C   UNL     1       2.782   6.894  19.186  0.00  0.00    +0.000 A 
ATOM      6  C   UNL     1       3.079   5.566  18.796  0.00  0.00    +0.000 A 
ENDROOT
BRANCH   1   8
ATOM      7  C   UNL     1       1.552   2.289  18.607  0.00  0.00    +0.000 C 
ATOM      8  N   UNL     1       2.640   3.086  19.160  0.00  0.00    +0.000 N 
BRANCH   8   9
ATOM      9  C   UNL     1       3.945   2.452  19.344  0.00  0.00    +0.000 C 
BRANCH   9  10
ATOM     10  C   UNL     1       4.187   2.078  20.788  0.00  0.00    +0.000 C 
ATOM     11  O   UNL     1       5.278   1.639  21.119  0.00  0.00    +0.000 OA
BRANCH  10  12
ATOM     12  O   UNL     1       3.227   2.230  21.724  0.00  0.00    +0.000 OA
ATOM     13  H   UNL     1       2.594   1.529  21.924  0.00  0.00    +0.000 HD
ENDBRANCH  10  12
ENDBRANCH   9  10
ENDBRANCH   8   9
ENDBRANCH   1   8
BRANCH   6  14
ATOM     14  C   UNL     1       4.172   5.411  17.776  0.00  0.00    +0.000 C 
ATOM     15  O   UNL     1       3.955   4.773  16.757  0.00  0.00    +0.000 OA
BRANCH  14  16
ATOM     16  C   UNL     1       5.558   5.920  18.017  0.00  0.00    +0.000 A 
ATOM     17  C   UNL     1       6.345   5.370  19.049  0.00  0.00    +0.000 A 
ATOM     18  C   UNL     1       7.641   5.827  19.277  0.00  0.00    +0.000 A 
ATOM     19  C   UNL     1       8.173   6.840  18.480  0.00  0.00    +0.000 A 
ATOM     20  C   UNL     1       7.402   7.407  17.462  0.00  0.00    +0.000 A 
ATOM     21  C   UNL     1       6.096   6.958  17.236  0.00  0.00    +0.000 A 
ENDBRANCH  14  16
ENDBRANCH   6  14
TORSDOF 6
ENDMDL
