MODEL 1
REMARK VINA RESULT:      -8.1      0.000      0.000
REMARK  Name = 
REMARK  11 active torsions:
REMARK  status: ('A' for Active; 'I' for Inactive)
REMARK    1  A    between atoms: C_1  and  O_2
REMARK    2  A    between atoms: O_2  and  C_3
REMARK    3  A    between atoms: C_8  and  O_9
REMARK    4  A    between atoms: O_9  and  C_10
REMARK    5  A    between atoms: C_13  and  C_14
REMARK    6  A    between atoms: C_14  and  C_15
REMARK    7  A    between atoms: N_18  and  C_19
REMARK    8  A    between atoms: C_19  and  C_20
REMARK    9  A    between atoms: C_24  and  C_25
REMARK   10  A    between atoms: C_28  and  C_29
REMARK   11  A    between atoms: C_29  and  C_30
REMARK                            x       y       z     vdW  Elec       q    Type
REMARK                         _______ _______ _______ _____ _____    ______ ____
ROOT
ATOM      1  C   UNL     1       0.682   9.675  19.356  0.00  0.00    +0.000 A 
ATOM      2  C   UNL     1       1.439   9.610  18.178  0.00  0.00    +0.000 A 
ATOM      3  C   UNL     1       2.340   8.574  17.981  0.00  0.00    +0.000 A 
ATOM      4  N   UNL     1       2.517   7.628  18.928  0.00  0.00    +0.000 N 
ATOM      5  C   UNL     1       1.889   7.724  20.125  0.00  0.00    +0.000 A 
ATOM      6  C   UNL     1       0.956   8.736  20.374  0.00  0.00    +0.000 A 
ENDROOT
BRANCH   6   7
ATOM      7  C   UNL     1       0.217   8.702  21.673  0.00  0.00    +0.000 C 
ATOM      8  C   UNL     1       0.795   9.362  22.901  0.00  0.00    +0.000 C 
ATOM      9  O   UNL     1      -0.848   8.092  21.740  0.00  0.00    +0.000 OA
ENDBRANCH   6   7
BRANCH   1  10
ATOM     10  C   UNL     1      -0.390  10.747  19.425  0.00  0.00    +0.000 C 
BRANCH  10  19
ATOM     11  C   UNL     1       2.713  15.319  18.914  0.00  0.00    +0.000 A 
ATOM     12  C   UNL     1       2.750  14.097  19.603  0.00  0.00    +0.000 A 
ATOM     13  C   UNL     1       1.557  13.461  19.897  0.00  0.00    +0.000 A 
ATOM     14  C   UNL     1       0.355  14.060  19.553  0.00  0.00    +0.000 A 
ATOM     15  C   UNL     1       0.270  15.276  18.899  0.00  0.00    +0.000 A 
ATOM     16  C   UNL     1       1.468  15.918  18.568  0.00  0.00    +0.000 A 
ATOM     17  C   UNL     1      -0.725  13.175  19.955  0.00  0.00    +0.000 C 
ATOM     18  O   UNL     1      -1.915  13.438  19.852  0.00  0.00    +0.000 OA
ATOM     19  C   UNL     1      -0.149  11.863  20.445  0.00  0.00    +0.000 C 
ATOM     20  C   UNL     1       1.368  12.155  20.595  0.00  0.00    +0.000 C 
BRANCH  11  22
ATOM     21  C   UNL     1       4.850  15.256  17.892  0.00  0.00    +0.000 C 
ATOM     22  O   UNL     1       3.847  16.011  18.567  0.00  0.00    +0.000 OA
ENDBRANCH  11  22
BRANCH  16  23
ATOM     23  O   UNL     1       1.533  17.116  17.901  0.00  0.00    +0.000 OA
ATOM     24  C   UNL     1       0.900  18.236  18.510  0.00  0.00    +0.000 C 
ENDBRANCH  16  23
ENDBRANCH  10  19
ENDBRANCH   1  10
BRANCH   4  25
ATOM     25  C   UNL     1       3.347   6.433  18.616  0.00  0.00    +0.000 C 
BRANCH  25  26
ATOM     26  C   UNL     1       2.575   5.170  18.860  0.00  0.00    +0.000 A 
ATOM     27  C   UNL     1       1.790   4.608  17.845  0.00  0.00    +0.000 A 
ATOM     28  C   UNL     1       1.011   3.482  18.103  0.00  0.00    +0.000 A 
ATOM     29  C   UNL     1       1.003   2.910  19.375  0.00  0.00    +0.000 A 
ATOM     30  C   UNL     1       1.793   3.444  20.397  0.00  0.00    +0.000 A 
ATOM     31  C   UNL     1       1.804   2.828  21.765  0.00  0.00    +0.000 C 
ATOM     32  C   UNL     1       2.593   4.560  20.126  0.00  0.00    +0.000 A 
ENDBRANCH  25  26
ENDBRANCH   4  25
TORSDOF 7
ENDMDL
MODEL 2
REMARK VINA RESULT:      -7.9      2.950      5.179
REMARK  Name = 
REMARK  11 active torsions:
REMARK  status: ('A' for Active; 'I' for Inactive)
REMARK    1  A    between atoms: C_1  and  O_2
REMARK    2  A    between atoms: O_2  and  C_3
REMARK    3  A    between atoms: C_8  and  O_9
REMARK    4  A    between atoms: O_9  and  C_10
REMARK    5  A    between atoms: C_13  and  C_14
REMARK    6  A    between atoms: C_14  and  C_15
REMARK    7  A    between atoms: N_18  and  C_19
REMARK    8  A    between atoms: C_19  and  C_20
REMARK    9  A    between atoms: C_24  and  C_25
REMARK   10  A    between atoms: C_28  and  C_29
REMARK   11  A    between atoms: C_29  and  C_30
REMARK                            x       y       z     vdW  Elec       q    Type
REMARK                         _______ _______ _______ _____ _____    ______ ____
ROOT
ATOM      1  C   UNL     1       0.922   9.591  19.306  0.00  0.00    +0.000 A 
ATOM      2  C   UNL     1       1.415   9.428  18.005  0.00  0.00    +0.000 A 
ATOM      3  C   UNL     1       2.238   8.355  17.697  0.00  0.00    +0.000 A 
ATOM      4  N   UNL     1       2.591   7.465  18.649  0.00  0.00    +0.000 N 
ATOM      5  C   UNL     1       2.229   7.657  19.941  0.00  0.00    +0.000 A 
ATOM      6  C   UNL     1       1.386   8.711  20.307  0.00  0.00    +0.000 A 
ENDROOT
BRANCH   6   7
ATOM      7  C   UNL     1       0.933   8.782  21.731  0.00  0.00    +0.000 C 
ATOM      8  C   UNL     1      -0.462   8.351  22.113  0.00  0.00    +0.000 C 
ATOM      9  O   UNL     1       1.696   9.236  22.579  0.00  0.00    +0.000 OA
ENDBRANCH   6   7
BRANCH   1  10
ATOM     10  C   UNL     1      -0.094  10.698  19.522  0.00  0.00    +0.000 C 
BRANCH  10  19
ATOM     11  C   UNL     1      -5.555  10.677  18.539  0.00  0.00    +0.000 A 
ATOM     12  C   UNL     1      -4.410   9.986  18.115  0.00  0.00    +0.000 A 
ATOM     13  C   UNL     1      -3.185  10.627  18.173  0.00  0.00    +0.000 A 
ATOM     14  C   UNL     1      -3.117  11.945  18.598  0.00  0.00    +0.000 A 
ATOM     15  C   UNL     1      -4.223  12.673  18.999  0.00  0.00    +0.000 A 
ATOM     16  C   UNL     1      -5.465  12.030  18.975  0.00  0.00    +0.000 A 
ATOM     17  C   UNL     1      -1.724  12.356  18.582  0.00  0.00    +0.000 C 
ATOM     18  O   UNL     1      -1.329  13.484  18.842  0.00  0.00    +0.000 OA
ATOM     19  C   UNL     1      -0.847  11.162  18.272  0.00  0.00    +0.000 C 
ATOM     20  C   UNL     1      -1.849  10.076  17.797  0.00  0.00    +0.000 C 
BRANCH  11  22
ATOM     21  C   UNL     1      -7.064   9.161  19.559  0.00  0.00    +0.000 C 
ATOM     22  O   UNL     1      -6.807  10.115  18.532  0.00  0.00    +0.000 OA
ENDBRANCH  11  22
BRANCH  16  23
ATOM     23  O   UNL     1      -6.640  12.624  19.365  0.00  0.00    +0.000 OA
ATOM     24  C   UNL     1      -7.318  13.423  18.401  0.00  0.00    +0.000 C 
ENDBRANCH  16  23
ENDBRANCH  10  19
ENDBRANCH   1  10
BRANCH   4  25
ATOM     25  C   UNL     1       3.318   6.228  18.254  0.00  0.00    +0.000 C 
BRANCH  25  26
ATOM     26  C   UNL     1       2.560   5.006  18.684  0.00  0.00    +0.000 A 
ATOM     27  C   UNL     1       1.666   4.378  17.807  0.00  0.00    +0.000 A 
ATOM     28  C   UNL     1       0.905   3.294  18.238  0.00  0.00    +0.000 A 
ATOM     29  C   UNL     1       1.022   2.831  19.548  0.00  0.00    +0.000 A 
ATOM     30  C   UNL     1       1.922   3.431  20.434  0.00  0.00    +0.000 A 
ATOM     31  C   UNL     1       2.067   2.932  21.842  0.00  0.00    +0.000 C 
ATOM     32  C   UNL     1       2.702   4.504  19.988  0.00  0.00    +0.000 A 
ENDBRANCH  25  26
ENDBRANCH   4  25
TORSDOF 7
ENDMDL
MODEL 3
REMARK VINA RESULT:      -7.8      1.038      1.212
REMARK  Name = 
REMARK  11 active torsions:
REMARK  status: ('A' for Active; 'I' for Inactive)
REMARK    1  A    between atoms: C_1  and  O_2
REMARK    2  A    between atoms: O_2  and  C_3
REMARK    3  A    between atoms: C_8  and  O_9
REMARK    4  A    between atoms: O_9  and  C_10
REMARK    5  A    between atoms: C_13  and  C_14
REMARK    6  A    between atoms: C_14  and  C_15
REMARK    7  A    between atoms: N_18  and  C_19
REMARK    8  A    between atoms: C_19  and  C_20
REMARK    9  A    between atoms: C_24  and  C_25
REMARK   10  A    between atoms: C_28  and  C_29
REMARK   11  A    between atoms: C_29  and  C_30
REMARK                            x       y       z     vdW  Elec       q    Type
REMARK                         _______ _______ _______ _____ _____    ______ ____
ROOT
ATOM      1  C   UNL     1       0.905   9.611  19.285  0.00  0.00    +0.000 A 
ATOM      2  C   UNL     1       1.436   9.420  18.003  0.00  0.00    +0.000 A 
ATOM      3  C   UNL     1       2.267   8.340  17.743  0.00  0.00    +0.000 A 
ATOM      4  N   UNL     1       2.593   7.473  18.725  0.00  0.00    +0.000 N 
ATOM      5  C   UNL     1       2.193   7.692  20.000  0.00  0.00    +0.000 A 
ATOM      6  C   UNL     1       1.340   8.754  20.319  0.00  0.00    +0.000 A 
ENDROOT
BRANCH   6   7
ATOM      7  C   UNL     1       0.846   8.856  21.727  0.00  0.00    +0.000 C 
ATOM      8  C   UNL     1      -0.578   8.487  22.067  0.00  0.00    +0.000 C 
ATOM      9  O   UNL     1       1.600   9.285  22.596  0.00  0.00    +0.000 OA
ENDBRANCH   6   7
BRANCH   1  10
ATOM     10  C   UNL     1      -0.117  10.722  19.447  0.00  0.00    +0.000 C 
BRANCH  10  19
ATOM     11  C   UNL     1       1.206  16.047  18.615  0.00  0.00    +0.000 A 
ATOM     12  C   UNL     1       1.838  14.858  19.011  0.00  0.00    +0.000 A 
ATOM     13  C   UNL     1       1.082  13.871  19.617  0.00  0.00    +0.000 A 
ATOM     14  C   UNL     1      -0.264  14.091  19.867  0.00  0.00    +0.000 A 
ATOM     15  C   UNL     1      -0.922  15.258  19.520  0.00  0.00    +0.000 A 
ATOM     16  C   UNL     1      -0.179  16.254  18.879  0.00  0.00    +0.000 A 
ATOM     17  C   UNL     1      -0.813  12.896  20.485  0.00  0.00    +0.000 C 
ATOM     18  O   UNL     1      -1.962  12.787  20.889  0.00  0.00    +0.000 OA
ATOM     19  C   UNL     1       0.230  11.798  20.479  0.00  0.00    +0.000 C 
ATOM     20  C   UNL     1       1.542  12.532  20.092  0.00  0.00    +0.000 C 
BRANCH  11  22
ATOM     21  C   UNL     1       3.103  16.717  17.364  0.00  0.00    +0.000 C 
ATOM     22  O   UNL     1       1.874  17.071  17.992  0.00  0.00    +0.000 OA
ENDBRANCH  11  22
BRANCH  16  23
ATOM     23  O   UNL     1      -0.706  17.450  18.460  0.00  0.00    +0.000 OA
ATOM     24  C   UNL     1      -1.123  18.366  19.467  0.00  0.00    +0.000 C 
ENDBRANCH  16  23
ENDBRANCH  10  19
ENDBRANCH   1  10
BRANCH   4  25
ATOM     25  C   UNL     1       3.331   6.227  18.379  0.00  0.00    +0.000 C 
BRANCH  25  26
ATOM     26  C   UNL     1       2.537   5.014  18.764  0.00  0.00    +0.000 A 
ATOM     27  C   UNL     1       1.625   4.445  17.865  0.00  0.00    +0.000 A 
ATOM     28  C   UNL     1       0.832   3.369  18.257  0.00  0.00    +0.000 A 
ATOM     29  C   UNL     1       0.935   2.856  19.549  0.00  0.00    +0.000 A 
ATOM     30  C   UNL     1       1.850   3.396  20.456  0.00  0.00    +0.000 A 
ATOM     31  C   UNL     1       1.980   2.842  21.845  0.00  0.00    +0.000 C 
ATOM     32  C   UNL     1       2.663   4.461  20.049  0.00  0.00    +0.000 A 
ENDBRANCH  25  26
ENDBRANCH   4  25
TORSDOF 7
ENDMDL
MODEL 4
REMARK VINA RESULT:      -7.7      3.634      5.607
REMARK  Name = 
REMARK  11 active torsions:
REMARK  status: ('A' for Active; 'I' for Inactive)
REMARK    1  A    between atoms: C_1  and  O_2
REMARK    2  A    between atoms: O_2  and  C_3
REMARK    3  A    between atoms: C_8  and  O_9
REMARK    4  A    between atoms: O_9  and  C_10
REMARK    5  A    between atoms: C_13  and  C_14
REMARK    6  A    between atoms: C_14  and  C_15
REMARK    7  A    between atoms: N_18  and  C_19
REMARK    8  A    between atoms: C_19  and  C_20
REMARK    9  A    between atoms: C_24  and  C_25
REMARK   10  A    between atoms: C_28  and  C_29
REMARK   11  A    between atoms: C_29  and  C_30
REMARK                            x       y       z     vdW  Elec       q    Type
REMARK                         _______ _______ _______ _____ _____    ______ ____
ROOT
ATOM      1  C   UNL     1       0.172   9.749  18.597  0.00  0.00    +0.000 A 
ATOM      2  C   UNL     1       0.890   9.233  17.510  0.00  0.00    +0.000 A 
ATOM      3  C   UNL     1       1.916   8.324  17.717  0.00  0.00    +0.000 A 
ATOM      4  N   UNL     1       2.252   7.940  18.967  0.00  0.00    +0.000 N 
ATOM      5  C   UNL     1       1.658   8.506  20.045  0.00  0.00    +0.000 A 
ATOM      6  C   UNL     1       0.605   9.415  19.898  0.00  0.00    +0.000 A 
ENDROOT
BRANCH   6   7
ATOM      7  C   UNL     1      -0.078   9.901  21.137  0.00  0.00    +0.000 C 
ATOM      8  C   UNL     1      -0.681   8.920  22.113  0.00  0.00    +0.000 C 
ATOM      9  O   UNL     1      -0.180  11.109  21.328  0.00  0.00    +0.000 OA
ENDBRANCH   6   7
BRANCH   1  10
ATOM     10  C   UNL     1      -1.033  10.615  18.276  0.00  0.00    +0.000 C 
BRANCH  10  19
ATOM     11  C   UNL     1      -6.518  11.402  18.583  0.00  0.00    +0.000 A 
ATOM     12  C   UNL     1      -5.577  10.419  18.929  0.00  0.00    +0.000 A 
ATOM     13  C   UNL     1      -4.395  10.346  18.215  0.00  0.00    +0.000 A 
ATOM     14  C   UNL     1      -4.184  11.204  17.146  0.00  0.00    +0.000 A 
ATOM     15  C   UNL     1      -5.094  12.168  16.751  0.00  0.00    +0.000 A 
ATOM     16  C   UNL     1      -6.281  12.275  17.483  0.00  0.00    +0.000 A 
ATOM     17  C   UNL     1      -2.868  10.927  16.595  0.00  0.00    +0.000 C 
ATOM     18  O   UNL     1      -2.402  11.467  15.602  0.00  0.00    +0.000 OA
ATOM     19  C   UNL     1      -2.148   9.931  17.479  0.00  0.00    +0.000 C 
ATOM     20  C   UNL     1      -3.258   9.402  18.426  0.00  0.00    +0.000 C 
BRANCH  11  22
ATOM     21  C   UNL     1      -7.670  11.316  20.652  0.00  0.00    +0.000 C 
ATOM     22  O   UNL     1      -7.708  11.558  19.248  0.00  0.00    +0.000 OA
ENDBRANCH  11  22
BRANCH  16  23
ATOM     23  O   UNL     1      -7.261  13.199  17.218  0.00  0.00    +0.000 OA
ATOM     24  C   UNL     1      -6.896  14.329  16.431  0.00  0.00    +0.000 C 
ENDBRANCH  16  23
ENDBRANCH  10  19
ENDBRANCH   1  10
BRANCH   4  25
ATOM     25  C   UNL     1       3.226   6.830  19.150  0.00  0.00    +0.000 C 
BRANCH  25  26
ATOM     26  C   UNL     1       2.528   5.501  19.134  0.00  0.00    +0.000 A 
ATOM     27  C   UNL     1       2.026   4.975  17.937  0.00  0.00    +0.000 A 
ATOM     28  C   UNL     1       1.308   3.781  17.942  0.00  0.00    +0.000 A 
ATOM     29  C   UNL     1       1.078   3.106  19.141  0.00  0.00    +0.000 A 
ATOM     30  C   UNL     1       1.586   3.604  20.344  0.00  0.00    +0.000 A 
ATOM     31  C   UNL     1       1.357   2.878  21.637  0.00  0.00    +0.000 C 
ATOM     32  C   UNL     1       2.328   4.790  20.329  0.00  0.00    +0.000 A 
ENDBRANCH  25  26
ENDBRANCH   4  25
TORSDOF 7
ENDMDL
MODEL 5
REMARK VINA RESULT:      -7.7      4.612      8.689
REMARK  Name = 
REMARK  11 active torsions:
REMARK  status: ('A' for Active; 'I' for Inactive)
REMARK    1  A    between atoms: C_1  and  O_2
REMARK    2  A    between atoms: O_2  and  C_3
REMARK    3  A    between atoms: C_8  and  O_9
REMARK    4  A    between atoms: O_9  and  C_10
REMARK    5  A    between atoms: C_13  and  C_14
REMARK    6  A    between atoms: C_14  and  C_15
REMARK    7  A    between atoms: N_18  and  C_19
REMARK    8  A    between atoms: C_19  and  C_20
REMARK    9  A    between atoms: C_24  and  C_25
REMARK   10  A    between atoms: C_28  and  C_29
REMARK   11  A    between atoms: C_29  and  C_30
REMARK                            x       y       z     vdW  Elec       q    Type
REMARK                         _______ _______ _______ _____ _____    ______ ____
ROOT
ATOM      1  C   UNL     1       1.935   4.882  18.750  0.00  0.00    +0.000 A 
ATOM      2  C   UNL     1       2.209   6.155  18.234  0.00  0.00    +0.000 A 
ATOM      3  C   UNL     1       2.137   7.273  19.052  0.00  0.00    +0.000 A 
ATOM      4  N   UNL     1       1.782   7.152  20.349  0.00  0.00    +0.000 N 
ATOM      5  C   UNL     1       1.397   5.954  20.851  0.00  0.00    +0.000 A 
ATOM      6  C   UNL     1       1.467   4.790  20.078  0.00  0.00    +0.000 A 
ENDROOT
BRANCH   6   7
ATOM      7  C   UNL     1       1.142   3.489  20.742  0.00  0.00    +0.000 C 
ATOM      8  C   UNL     1       1.989   2.979  21.882  0.00  0.00    +0.000 C 
ATOM      9  O   UNL     1       0.203   2.820  20.319  0.00  0.00    +0.000 OA
ENDBRANCH   6   7
BRANCH   1  10
ATOM     10  C   UNL     1       2.189   3.700  17.832  0.00  0.00    +0.000 C 
BRANCH  10  19
ATOM     11  C   UNL     1       6.939   5.218  15.398  0.00  0.00    +0.000 A 
ATOM     12  C   UNL     1       5.996   4.183  15.304  0.00  0.00    +0.000 A 
ATOM     13  C   UNL     1       5.250   3.857  16.423  0.00  0.00    +0.000 A 
ATOM     14  C   UNL     1       5.480   4.519  17.620  0.00  0.00    +0.000 A 
ATOM     15  C   UNL     1       6.418   5.525  17.765  0.00  0.00    +0.000 A 
ATOM     16  C   UNL     1       7.160   5.887  16.636  0.00  0.00    +0.000 A 
ATOM     17  C   UNL     1       4.554   4.000  18.611  0.00  0.00    +0.000 C 
ATOM     18  O   UNL     1       4.539   4.328  19.789  0.00  0.00    +0.000 OA
ATOM     19  C   UNL     1       3.574   3.057  17.944  0.00  0.00    +0.000 C 
ATOM     20  C   UNL     1       4.186   2.816  16.539  0.00  0.00    +0.000 C 
BRANCH  11  22
ATOM     21  C   UNL     1       7.433   4.977  13.093  0.00  0.00    +0.000 C 
ATOM     22  O   UNL     1       7.710   5.618  14.335  0.00  0.00    +0.000 OA
ENDBRANCH  11  22
BRANCH  16  23
ATOM     23  O   UNL     1       8.107   6.881  16.630  0.00  0.00    +0.000 OA
ATOM     24  C   UNL     1       7.918   7.966  17.532  0.00  0.00    +0.000 C 
ENDBRANCH  16  23
ENDBRANCH  10  19
ENDBRANCH   1  10
BRANCH   4  25
ATOM     25  C   UNL     1       1.891   8.335  21.246  0.00  0.00    +0.000 C 
BRANCH  25  26
ATOM     26  C   UNL     1       0.788   9.314  20.973  0.00  0.00    +0.000 A 
ATOM     27  C   UNL     1       0.422   9.626  19.656  0.00  0.00    +0.000 A 
ATOM     28  C   UNL     1      -0.546  10.596  19.409  0.00  0.00    +0.000 A 
ATOM     29  C   UNL     1      -1.153  11.268  20.469  0.00  0.00    +0.000 A 
ATOM     30  C   UNL     1      -0.817  10.960  21.790  0.00  0.00    +0.000 A 
ATOM     31  C   UNL     1      -1.475  11.667  22.939  0.00  0.00    +0.000 C 
ATOM     32  C   UNL     1       0.138   9.966  22.034  0.00  0.00    +0.000 A 
ENDBRANCH  25  26
ENDBRANCH   4  25
TORSDOF 7
ENDMDL
MODEL 6
REMARK VINA RESULT:      -7.7      1.794      2.603
REMARK  Name = 
REMARK  11 active torsions:
REMARK  status: ('A' for Active; 'I' for Inactive)
REMARK    1  A    between atoms: C_1  and  O_2
REMARK    2  A    between atoms: O_2  and  C_3
REMARK    3  A    between atoms: C_8  and  O_9
REMARK    4  A    between atoms: O_9  and  C_10
REMARK    5  A    between atoms: C_13  and  C_14
REMARK    6  A    between atoms: C_14  and  C_15
REMARK    7  A    between atoms: N_18  and  C_19
REMARK    8  A    between atoms: C_19  and  C_20
REMARK    9  A    between atoms: C_24  and  C_25
REMARK   10  A    between atoms: C_28  and  C_29
REMARK   11  A    between atoms: C_29  and  C_30
REMARK                            x       y       z     vdW  Elec       q    Type
REMARK                         _______ _______ _______ _____ _____    ______ ____
ROOT
ATOM      1  C   UNL     1       1.284   9.683  19.160  0.00  0.00    +0.000 A 
ATOM      2  C   UNL     1       1.860   9.518  17.894  0.00  0.00    +0.000 A 
ATOM      3  C   UNL     1       2.551   8.356  17.584  0.00  0.00    +0.000 A 
ATOM      4  N   UNL     1       2.695   7.378  18.504  0.00  0.00    +0.000 N 
ATOM      5  C   UNL     1       2.252   7.553  19.773  0.00  0.00    +0.000 A 
ATOM      6  C   UNL     1       1.534   8.696  20.137  0.00  0.00    +0.000 A 
ENDROOT
BRANCH   6   7
ATOM      7  C   UNL     1       0.974   8.758  21.523  0.00  0.00    +0.000 C 
ATOM      8  C   UNL     1      -0.438   8.301  21.799  0.00  0.00    +0.000 C 
ATOM      9  O   UNL     1       1.662   9.227  22.425  0.00  0.00    +0.000 OA
ENDBRANCH   6   7
BRANCH   1  10
ATOM     10  C   UNL     1       0.415  10.911  19.364  0.00  0.00    +0.000 C 
BRANCH  10  19
ATOM     11  C   UNL     1      -1.076  16.256  19.326  0.00  0.00    +0.000 A 
ATOM     12  C   UNL     1      -0.072  15.443  18.778  0.00  0.00    +0.000 A 
ATOM     13  C   UNL     1       0.281  14.281  19.441  0.00  0.00    +0.000 A 
ATOM     14  C   UNL     1      -0.322  13.969  20.651  0.00  0.00    +0.000 A 
ATOM     15  C   UNL     1      -1.294  14.755  21.242  0.00  0.00    +0.000 A 
ATOM     16  C   UNL     1      -1.685  15.918  20.569  0.00  0.00    +0.000 A 
ATOM     17  C   UNL     1       0.214  12.700  21.111  0.00  0.00    +0.000 C 
ATOM     18  O   UNL     1      -0.063  12.174  22.179  0.00  0.00    +0.000 OA
ATOM     19  C   UNL     1       1.100  12.105  20.036  0.00  0.00    +0.000 C 
ATOM     20  C   UNL     1       1.297  13.268  19.028  0.00  0.00    +0.000 C 
BRANCH  11  22
ATOM     21  C   UNL     1      -0.664  17.921  17.692  0.00  0.00    +0.000 C 
ATOM     22  O   UNL     1      -1.501  17.417  18.728  0.00  0.00    +0.000 OA
ENDBRANCH  11  22
BRANCH  16  23
ATOM     23  O   UNL     1      -2.652  16.777  21.028  0.00  0.00    +0.000 OA
ATOM     24  C   UNL     1      -3.988  16.290  21.074  0.00  0.00    +0.000 C 
ENDBRANCH  16  23
ENDBRANCH  10  19
ENDBRANCH   1  10
BRANCH   4  25
ATOM     25  C   UNL     1       3.276   6.071  18.091  0.00  0.00    +0.000 C 
BRANCH  25  26
ATOM     26  C   UNL     1       2.476   4.932  18.653  0.00  0.00    +0.000 A 
ATOM     27  C   UNL     1       1.481   4.313  17.885  0.00  0.00    +0.000 A 
ATOM     28  C   UNL     1       0.688   3.312  18.441  0.00  0.00    +0.000 A 
ATOM     29  C   UNL     1       0.874   2.924  19.767  0.00  0.00    +0.000 A 
ATOM     30  C   UNL     1       1.873   3.515  20.545  0.00  0.00    +0.000 A 
ATOM     31  C   UNL     1       2.093   3.094  21.969  0.00  0.00    +0.000 C 
ATOM     32  C   UNL     1       2.684   4.503  19.975  0.00  0.00    +0.000 A 
ENDBRANCH  25  26
ENDBRANCH   4  25
TORSDOF 7
ENDMDL
MODEL 7
REMARK VINA RESULT:      -7.6      3.869      9.243
REMARK  Name = 
REMARK  11 active torsions:
REMARK  status: ('A' for Active; 'I' for Inactive)
REMARK    1  A    between atoms: C_1  and  O_2
REMARK    2  A    between atoms: O_2  and  C_3
REMARK    3  A    between atoms: C_8  and  O_9
REMARK    4  A    between atoms: O_9  and  C_10
REMARK    5  A    between atoms: C_13  and  C_14
REMARK    6  A    between atoms: C_14  and  C_15
REMARK    7  A    between atoms: N_18  and  C_19
REMARK    8  A    between atoms: C_19  and  C_20
REMARK    9  A    between atoms: C_24  and  C_25
REMARK   10  A    between atoms: C_28  and  C_29
REMARK   11  A    between atoms: C_29  and  C_30
REMARK                            x       y       z     vdW  Elec       q    Type
REMARK                         _______ _______ _______ _____ _____    ______ ____
ROOT
ATOM      1  C   UNL     1      -1.112  11.022  19.547  0.00  0.00    +0.000 A 
ATOM      2  C   UNL     1      -0.513  11.736  20.593  0.00  0.00    +0.000 A 
ATOM      3  C   UNL     1      -1.158  12.827  21.156  0.00  0.00    +0.000 A 
ATOM      4  N   UNL     1      -2.360  13.229  20.691  0.00  0.00    +0.000 N 
ATOM      5  C   UNL     1      -2.914  12.635  19.606  0.00  0.00    +0.000 A 
ATOM      6  C   UNL     1      -2.319  11.520  19.009  0.00  0.00    +0.000 A 
ENDROOT
BRANCH   6   7
ATOM      7  C   UNL     1      -3.054  10.847  17.894  0.00  0.00    +0.000 C 
ATOM      8  C   UNL     1      -2.462  10.798  16.506  0.00  0.00    +0.000 C 
ATOM      9  O   UNL     1      -4.166  10.372  18.111  0.00  0.00    +0.000 OA
ENDBRANCH   6   7
BRANCH   1  10
ATOM     10  C   UNL     1      -0.415   9.751  19.095  0.00  0.00    +0.000 C 
BRANCH  10  19
ATOM     11  C   UNL     1       2.445   5.101  20.086  0.00  0.00    +0.000 A 
ATOM     12  C   UNL     1       1.887   6.164  20.812  0.00  0.00    +0.000 A 
ATOM     13  C   UNL     1       1.730   7.389  20.187  0.00  0.00    +0.000 A 
ATOM     14  C   UNL     1       2.171   7.557  18.883  0.00  0.00    +0.000 A 
ATOM     15  C   UNL     1       2.753   6.546  18.140  0.00  0.00    +0.000 A 
ATOM     16  C   UNL     1       2.890   5.293  18.747  0.00  0.00    +0.000 A 
ATOM     17  C   UNL     1       1.867   8.917  18.473  0.00  0.00    +0.000 C 
ATOM     18  O   UNL     1       2.183   9.406  17.398  0.00  0.00    +0.000 OA
ATOM     19  C   UNL     1       1.040   9.596  19.545  0.00  0.00    +0.000 C 
ATOM     20  C   UNL     1       1.143   8.636  20.760  0.00  0.00    +0.000 C 
BRANCH  11  22
ATOM     21  C   UNL     1       1.435   3.183  21.042  0.00  0.00    +0.000 C 
ATOM     22  O   UNL     1       2.622   3.849  20.620  0.00  0.00    +0.000 OA
ENDBRANCH  11  22
BRANCH  16  23
ATOM     23  O   UNL     1       3.429   4.196  18.121  0.00  0.00    +0.000 OA
ATOM     24  C   UNL     1       2.581   3.469  17.238  0.00  0.00    +0.000 C 
ENDBRANCH  16  23
ENDBRANCH  10  19
ENDBRANCH   1  10
BRANCH   4  25
ATOM     25  C   UNL     1      -3.111  14.281  21.430  0.00  0.00    +0.000 C 
BRANCH  25  26
ATOM     26  C   UNL     1      -3.988  13.669  22.482  0.00  0.00    +0.000 A 
ATOM     27  C   UNL     1      -3.434  13.161  23.664  0.00  0.00    +0.000 A 
ATOM     28  C   UNL     1      -4.243  12.520  24.599  0.00  0.00    +0.000 A 
ATOM     29  C   UNL     1      -5.610  12.374  24.362  0.00  0.00    +0.000 A 
ATOM     30  C   UNL     1      -6.186  12.890  23.198  0.00  0.00    +0.000 A 
ATOM     31  C   UNL     1      -7.658  12.752  22.940  0.00  0.00    +0.000 C 
ATOM     32  C   UNL     1      -5.373  13.555  22.274  0.00  0.00    +0.000 A 
ENDBRANCH  25  26
ENDBRANCH   4  25
TORSDOF 7
ENDMDL
MODEL 8
REMARK VINA RESULT:      -7.6      3.907      9.383
REMARK  Name = 
REMARK  11 active torsions:
REMARK  status: ('A' for Active; 'I' for Inactive)
REMARK    1  A    between atoms: C_1  and  O_2
REMARK    2  A    between atoms: O_2  and  C_3
REMARK    3  A    between atoms: C_8  and  O_9
REMARK    4  A    between atoms: O_9  and  C_10
REMARK    5  A    between atoms: C_13  and  C_14
REMARK    6  A    between atoms: C_14  and  C_15
REMARK    7  A    between atoms: N_18  and  C_19
REMARK    8  A    between atoms: C_19  and  C_20
REMARK    9  A    between atoms: C_24  and  C_25
REMARK   10  A    between atoms: C_28  and  C_29
REMARK   11  A    between atoms: C_29  and  C_30
REMARK                            x       y       z     vdW  Elec       q    Type
REMARK                         _______ _______ _______ _____ _____    ______ ____
ROOT
ATOM      1  C   UNL     1      -0.725  11.011  20.698  0.00  0.00    +0.000 A 
ATOM      2  C   UNL     1      -0.551  11.062  22.087  0.00  0.00    +0.000 A 
ATOM      3  C   UNL     1      -1.085  12.109  22.823  0.00  0.00    +0.000 A 
ATOM      4  N   UNL     1      -1.762  13.104  22.209  0.00  0.00    +0.000 N 
ATOM      5  C   UNL     1      -1.849  13.147  20.858  0.00  0.00    +0.000 A 
ATOM      6  C   UNL     1      -1.345  12.111  20.066  0.00  0.00    +0.000 A 
ENDROOT
BRANCH   6   7
ATOM      7  C   UNL     1      -1.589  12.174  18.592  0.00  0.00    +0.000 C 
ATOM      8  C   UNL     1      -2.723  11.395  17.969  0.00  0.00    +0.000 C 
ATOM      9  O   UNL     1      -0.829  12.833  17.888  0.00  0.00    +0.000 OA
ENDBRANCH   6   7
BRANCH   1  10
ATOM     10  C   UNL     1      -0.247   9.756  19.991  0.00  0.00    +0.000 C 
BRANCH  10  19
ATOM     11  C   UNL     1       2.178   4.775  19.652  0.00  0.00    +0.000 A 
ATOM     12  C   UNL     1       1.814   5.701  20.643  0.00  0.00    +0.000 A 
ATOM     13  C   UNL     1       1.729   7.040  20.306  0.00  0.00    +0.000 A 
ATOM     14  C   UNL     1       2.051   7.447  19.020  0.00  0.00    +0.000 A 
ATOM     15  C   UNL     1       2.441   6.575  18.020  0.00  0.00    +0.000 A 
ATOM     16  C   UNL     1       2.502   5.214  18.336  0.00  0.00    +0.000 A 
ATOM     17  C   UNL     1       1.856   8.884  18.937  0.00  0.00    +0.000 C 
ATOM     18  O   UNL     1       2.113   9.566  17.955  0.00  0.00    +0.000 OA
ATOM     19  C   UNL     1       1.222   9.385  20.218  0.00  0.00    +0.000 C 
ATOM     20  C   UNL     1       1.342   8.180  21.189  0.00  0.00    +0.000 C 
BRANCH  11  22
ATOM     21  C   UNL     1       1.414   2.921  20.913  0.00  0.00    +0.000 C 
ATOM     22  O   UNL     1       2.271   3.428  19.893  0.00  0.00    +0.000 OA
ENDBRANCH  11  22
BRANCH  16  23
ATOM     23  O   UNL     1       2.852   4.236  17.438  0.00  0.00    +0.000 OA
ATOM     24  C   UNL     1       4.213   4.188  17.025  0.00  0.00    +0.000 C 
ENDBRANCH  16  23
ENDBRANCH  10  19
ENDBRANCH   1  10
BRANCH   4  25
ATOM     25  C   UNL     1      -2.480  14.112  23.035  0.00  0.00    +0.000 C 
BRANCH  25  26
ATOM     26  C   UNL     1      -3.858  13.632  23.382  0.00  0.00    +0.000 A 
ATOM     27  C   UNL     1      -4.064  12.791  24.483  0.00  0.00    +0.000 A 
ATOM     28  C   UNL     1      -5.333  12.282  24.751  0.00  0.00    +0.000 A 
ATOM     29  C   UNL     1      -6.406  12.601  23.920  0.00  0.00    +0.000 A 
ATOM     30  C   UNL     1      -6.227  13.453  22.826  0.00  0.00    +0.000 A 
ATOM     31  C   UNL     1      -7.378  13.815  21.933  0.00  0.00    +0.000 C 
ATOM     32  C   UNL     1      -4.955  13.981  22.577  0.00  0.00    +0.000 A 
ENDBRANCH  25  26
ENDBRANCH   4  25
TORSDOF 7
ENDMDL
MODEL 9
REMARK VINA RESULT:      -7.5      4.592      8.675
REMARK  Name = 
REMARK  11 active torsions:
REMARK  status: ('A' for Active; 'I' for Inactive)
REMARK    1  A    between atoms: C_1  and  O_2
REMARK    2  A    between atoms: O_2  and  C_3
REMARK    3  A    between atoms: C_8  and  O_9
REMARK    4  A    between atoms: O_9  and  C_10
REMARK    5  A    between atoms: C_13  and  C_14
REMARK    6  A    between atoms: C_14  and  C_15
REMARK    7  A    between atoms: N_18  and  C_19
REMARK    8  A    between atoms: C_19  and  C_20
REMARK    9  A    between atoms: C_24  and  C_25
REMARK   10  A    between atoms: C_28  and  C_29
REMARK   11  A    between atoms: C_29  and  C_30
REMARK                            x       y       z     vdW  Elec       q    Type
REMARK                         _______ _______ _______ _____ _____    ______ ____
ROOT
ATOM      1  C   UNL     1       1.960   4.873  18.688  0.00  0.00    +0.000 A 
ATOM      2  C   UNL     1       2.212   6.118  18.096  0.00  0.00    +0.000 A 
ATOM      3  C   UNL     1       2.137   7.280  18.850  0.00  0.00    +0.000 A 
ATOM      4  N   UNL     1       1.801   7.230  20.157  0.00  0.00    +0.000 N 
ATOM      5  C   UNL     1       1.438   6.057  20.732  0.00  0.00    +0.000 A 
ATOM      6  C   UNL     1       1.511   4.852  20.026  0.00  0.00    +0.000 A 
ENDROOT
BRANCH   6   7
ATOM      7  C   UNL     1       1.211   3.588  20.767  0.00  0.00    +0.000 C 
ATOM      8  C   UNL     1       2.068   3.163  21.935  0.00  0.00    +0.000 C 
ATOM      9  O   UNL     1       0.285   2.877  20.386  0.00  0.00    +0.000 OA
ENDBRANCH   6   7
BRANCH   1  10
ATOM     10  C   UNL     1       2.216   3.644  17.835  0.00  0.00    +0.000 C 
BRANCH  10  19
ATOM     11  C   UNL     1       6.948   5.263  15.430  0.00  0.00    +0.000 A 
ATOM     12  C   UNL     1       6.027   4.208  15.331  0.00  0.00    +0.000 A 
ATOM     13  C   UNL     1       5.282   3.867  16.445  0.00  0.00    +0.000 A 
ATOM     14  C   UNL     1       5.490   4.533  17.643  0.00  0.00    +0.000 A 
ATOM     15  C   UNL     1       6.406   5.559  17.794  0.00  0.00    +0.000 A 
ATOM     16  C   UNL     1       7.146   5.937  16.669  0.00  0.00    +0.000 A 
ATOM     17  C   UNL     1       4.569   3.995  18.629  0.00  0.00    +0.000 C 
ATOM     18  O   UNL     1       4.540   4.323  19.807  0.00  0.00    +0.000 OA
ATOM     19  C   UNL     1       3.614   3.031  17.956  0.00  0.00    +0.000 C 
ATOM     20  C   UNL     1       4.240   2.803  16.555  0.00  0.00    +0.000 C 
BRANCH  11  22
ATOM     21  C   UNL     1       7.535   4.962  13.154  0.00  0.00    +0.000 C 
ATOM     22  O   UNL     1       7.717   5.680  14.372  0.00  0.00    +0.000 OA
ENDBRANCH  11  22
BRANCH  16  23
ATOM     23  O   UNL     1       8.072   6.951  16.669  0.00  0.00    +0.000 OA
ATOM     24  C   UNL     1       7.800   8.081  17.491  0.00  0.00    +0.000 C 
ENDBRANCH  16  23
ENDBRANCH  10  19
ENDBRANCH   1  10
BRANCH   4  25
ATOM     25  C   UNL     1       1.908   8.463  20.984  0.00  0.00    +0.000 C 
BRANCH  25  26
ATOM     26  C   UNL     1       0.852   9.456  20.597  0.00  0.00    +0.000 A 
ATOM     27  C   UNL     1       0.365  10.378  21.533  0.00  0.00    +0.000 A 
ATOM     28  C   UNL     1      -0.673  11.242  21.191  0.00  0.00    +0.000 A 
ATOM     29  C   UNL     1      -1.239  11.190  19.918  0.00  0.00    +0.000 A 
ATOM     30  C   UNL     1      -0.756  10.291  18.963  0.00  0.00    +0.000 A 
ATOM     31  C   UNL     1      -1.348  10.237  17.585  0.00  0.00    +0.000 C 
ATOM     32  C   UNL     1       0.304   9.442  19.304  0.00  0.00    +0.000 A 
ENDBRANCH  25  26
ENDBRANCH   4  25
TORSDOF 7
ENDMDL
