MODEL 1
REMARK VINA RESULT:      -7.7      0.000      0.000
REMARK  Name = 
REMARK  8 active torsions:
REMARK  status: ('A' for Active; 'I' for Inactive)
REMARK    1  A    between atoms: C_1  and  C_2
REMARK    2  A    between atoms: C_2  and  C_3
REMARK    3  A    between atoms: C_2  and  C_4
REMARK    4  A    between atoms: C_4  and  O_5
REMARK    5  A    between atoms: O_5  and  C_6
REMARK    6  A    between atoms: C_12  and  S_13
REMARK    7  A    between atoms: S_13  and  C_14
REMARK    8  A    between atoms: C_14  and  C_15
REMARK                            x       y       z     vdW  Elec       q    Type
REMARK                         _______ _______ _______ _____ _____    ______ ____
ROOT
ATOM      1  C   UNL     1       8.401   8.999  18.409  0.00  0.00    +0.000 C 
ATOM      2  O   UNL     1       7.492   9.433  17.718  0.00  0.00    +0.000 OA
ATOM      3  N   UNL     1       8.551   7.742  18.914  0.00  0.00    +0.000 N 
ATOM      4  C   UNL     1       7.801   6.633  18.612  0.00  0.00    +0.000 A 
ATOM      5  N   UNL     1       8.023   5.455  19.156  0.00  0.00    +0.000 NA
ATOM      6  N   UNL     1       7.150   4.488  18.683  0.00  0.00    +0.000 NA
ATOM      7  C   UNL     1       6.327   4.972  17.779  0.00  0.00    +0.000 A 
ATOM      8  S   UNL     1       6.552   6.639  17.449  0.00  0.00    +0.000 S 
ATOM      9  H   UNL     1       9.354   7.582  19.501  0.00  0.00    +0.000 HD
ENDROOT
BRANCH   1  10
ATOM     10  O   UNL     1       9.506   9.727  18.736  0.00  0.00    +0.000 OA
BRANCH  10  11
ATOM     11  C   UNL     1       9.578  11.016  18.106  0.00  0.00    +0.000 C 
BRANCH  11  13
ATOM     12  C   UNL     1      11.023  12.934  17.272  0.00  0.00    +0.000 C 
ATOM     13  C   UNL     1      11.004  11.543  17.905  0.00  0.00    +0.000 C 
ATOM     14  C   UNL     1      11.708  11.581  19.265  0.00  0.00    +0.000 C 
ENDBRANCH  11  13
ENDBRANCH  10  11
ENDBRANCH   1  10
BRANCH   7  15
ATOM     15  S   UNL     1       5.137   3.994  16.951  0.00  0.00    +0.000 S 
BRANCH  15  16
ATOM     16  C   UNL     1       3.640   4.989  17.213  0.00  0.00    +0.000 C 
BRANCH  16  17
ATOM     17  C   UNL     1       2.791   4.439  18.332  0.00  0.00    +0.000 A 
ATOM     18  C   UNL     1       1.786   3.488  18.081  0.00  0.00    +0.000 A 
ATOM     19  C   UNL     1       1.008   2.988  19.127  0.00  0.00    +0.000 A 
ATOM     20  C   UNL     1       1.215   3.431  20.435  0.00  0.00    +0.000 A 
ATOM     21  C   UNL     1       2.206   4.375  20.697  0.00  0.00    +0.000 A 
ATOM     22  C   UNL     1       2.979   4.864  19.647  0.00  0.00    +0.000 A 
ATOM     23  F   UNL     1       3.929   5.777  19.925  0.00  0.00    +0.000 F 
ENDBRANCH  16  17
ENDBRANCH  15  16
ENDBRANCH   7  15
TORSDOF 6
ENDMDL
MODEL 2
REMARK VINA RESULT:      -7.3      1.315      1.675
REMARK  Name = 
REMARK  8 active torsions:
REMARK  status: ('A' for Active; 'I' for Inactive)
REMARK    1  A    between atoms: C_1  and  C_2
REMARK    2  A    between atoms: C_2  and  C_3
REMARK    3  A    between atoms: C_2  and  C_4
REMARK    4  A    between atoms: C_4  and  O_5
REMARK    5  A    between atoms: O_5  and  C_6
REMARK    6  A    between atoms: C_12  and  S_13
REMARK    7  A    between atoms: S_13  and  C_14
REMARK    8  A    between atoms: C_14  and  C_15
REMARK                            x       y       z     vdW  Elec       q    Type
REMARK                         _______ _______ _______ _____ _____    ______ ____
ROOT
ATOM      1  C   UNL     1       8.174   8.827  18.019  0.00  0.00    +0.000 C 
ATOM      2  O   UNL     1       7.249   9.228  17.329  0.00  0.00    +0.000 OA
ATOM      3  N   UNL     1       8.316   7.611  18.616  0.00  0.00    +0.000 N 
ATOM      4  C   UNL     1       7.532   6.500  18.429  0.00  0.00    +0.000 A 
ATOM      5  N   UNL     1       7.750   5.363  19.056  0.00  0.00    +0.000 NA
ATOM      6  N   UNL     1       6.839   4.383  18.693  0.00  0.00    +0.000 NA
ATOM      7  C   UNL     1       5.993   4.815  17.783  0.00  0.00    +0.000 A 
ATOM      8  S   UNL     1       6.241   6.445  17.315  0.00  0.00    +0.000 S 
ATOM      9  H   UNL     1       9.137   7.478  19.185  0.00  0.00    +0.000 HD
ENDROOT
BRANCH   1  10
ATOM     10  O   UNL     1       9.306   9.552  18.248  0.00  0.00    +0.000 OA
BRANCH  10  11
ATOM     11  C   UNL     1       9.284  10.322  19.461  0.00  0.00    +0.000 C 
BRANCH  11  13
ATOM     12  C   UNL     1      10.194  12.475  18.460  0.00  0.00    +0.000 C 
ATOM     13  C   UNL     1      10.366  11.406  19.540  0.00  0.00    +0.000 C 
ATOM     14  C   UNL     1      10.308  12.055  20.927  0.00  0.00    +0.000 C 
ENDBRANCH  11  13
ENDBRANCH  10  11
ENDBRANCH   1  10
BRANCH   7  15
ATOM     15  S   UNL     1       4.752   3.804  17.077  0.00  0.00    +0.000 S 
BRANCH  15  16
ATOM     16  C   UNL     1       3.259   4.735  17.531  0.00  0.00    +0.000 C 
BRANCH  16  17
ATOM     17  C   UNL     1       2.643   4.216  18.807  0.00  0.00    +0.000 A 
ATOM     18  C   UNL     1       2.755   4.933  20.011  0.00  0.00    +0.000 A 
ATOM     19  C   UNL     1       2.181   4.440  21.184  0.00  0.00    +0.000 A 
ATOM     20  C   UNL     1       1.491   3.226  21.176  0.00  0.00    +0.000 A 
ATOM     21  C   UNL     1       1.375   2.504  19.990  0.00  0.00    +0.000 A 
ATOM     22  C   UNL     1       1.949   3.007  18.824  0.00  0.00    +0.000 A 
ATOM     23  F   UNL     1       1.824   2.290  17.691  0.00  0.00    +0.000 F 
ENDBRANCH  16  17
ENDBRANCH  15  16
ENDBRANCH   7  15
TORSDOF 6
ENDMDL
MODEL 3
REMARK VINA RESULT:      -7.2      4.858      6.946
REMARK  Name = 
REMARK  8 active torsions:
REMARK  status: ('A' for Active; 'I' for Inactive)
REMARK    1  A    between atoms: C_1  and  C_2
REMARK    2  A    between atoms: C_2  and  C_3
REMARK    3  A    between atoms: C_2  and  C_4
REMARK    4  A    between atoms: C_4  and  O_5
REMARK    5  A    between atoms: O_5  and  C_6
REMARK    6  A    between atoms: C_12  and  S_13
REMARK    7  A    between atoms: S_13  and  C_14
REMARK    8  A    between atoms: C_14  and  C_15
REMARK                            x       y       z     vdW  Elec       q    Type
REMARK                         _______ _______ _______ _____ _____    ______ ____
ROOT
ATOM      1  C   UNL     1       5.848   3.894  13.403  0.00  0.00    +0.000 C 
ATOM      2  O   UNL     1       4.652   4.069  13.578  0.00  0.00    +0.000 OA
ATOM      3  N   UNL     1       6.866   4.089  14.286  0.00  0.00    +0.000 N 
ATOM      4  C   UNL     1       6.760   4.356  15.628  0.00  0.00    +0.000 A 
ATOM      5  N   UNL     1       7.809   4.531  16.404  0.00  0.00    +0.000 NA
ATOM      6  N   UNL     1       7.451   4.771  17.721  0.00  0.00    +0.000 NA
ATOM      7  C   UNL     1       6.147   4.735  17.888  0.00  0.00    +0.000 A 
ATOM      8  S   UNL     1       5.267   4.418  16.452  0.00  0.00    +0.000 S 
ATOM      9  H   UNL     1       7.801   3.929  13.944  0.00  0.00    +0.000 HD
ENDROOT
BRANCH   1  10
ATOM     10  O   UNL     1       6.369   3.377  12.254  0.00  0.00    +0.000 OA
BRANCH  10  11
ATOM     11  C   UNL     1       5.578   2.338  11.656  0.00  0.00    +0.000 C 
BRANCH  11  13
ATOM     12  C   UNL     1       7.874   1.661  10.800  0.00  0.00    +0.000 C 
ATOM     13  C   UNL     1       6.377   1.349  10.800  0.00  0.00    +0.000 C 
ATOM     14  C   UNL     1       6.142  -0.066  11.338  0.00  0.00    +0.000 C 
ENDBRANCH  11  13
ENDBRANCH  10  11
ENDBRANCH   1  10
BRANCH   7  15
ATOM     15  S   UNL     1       5.377   4.948  19.444  0.00  0.00    +0.000 S 
BRANCH  15  16
ATOM     16  C   UNL     1       4.772   3.263  19.754  0.00  0.00    +0.000 C 
BRANCH  16  17
ATOM     17  C   UNL     1       3.267   3.187  19.677  0.00  0.00    +0.000 A 
ATOM     18  C   UNL     1       2.456   3.917  20.563  0.00  0.00    +0.000 A 
ATOM     19  C   UNL     1       1.065   3.836  20.481  0.00  0.00    +0.000 A 
ATOM     20  C   UNL     1       0.462   3.024  19.518  0.00  0.00    +0.000 A 
ATOM     21  C   UNL     1       1.254   2.292  18.635  0.00  0.00    +0.000 A 
ATOM     22  C   UNL     1       2.641   2.384  18.724  0.00  0.00    +0.000 A 
ATOM     23  F   UNL     1       3.384   1.667  17.860  0.00  0.00    +0.000 F 
ENDBRANCH  16  17
ENDBRANCH  15  16
ENDBRANCH   7  15
TORSDOF 6
ENDMDL
MODEL 4
REMARK VINA RESULT:      -7.2      4.682      6.766
REMARK  Name = 
REMARK  8 active torsions:
REMARK  status: ('A' for Active; 'I' for Inactive)
REMARK    1  A    between atoms: C_1  and  C_2
REMARK    2  A    between atoms: C_2  and  C_3
REMARK    3  A    between atoms: C_2  and  C_4
REMARK    4  A    between atoms: C_4  and  O_5
REMARK    5  A    between atoms: O_5  and  C_6
REMARK    6  A    between atoms: C_12  and  S_13
REMARK    7  A    between atoms: S_13  and  C_14
REMARK    8  A    between atoms: C_14  and  C_15
REMARK                            x       y       z     vdW  Elec       q    Type
REMARK                         _______ _______ _______ _____ _____    ______ ____
ROOT
ATOM      1  C   UNL     1       5.867   3.925  13.438  0.00  0.00    +0.000 C 
ATOM      2  O   UNL     1       4.675   4.145  13.586  0.00  0.00    +0.000 OA
ATOM      3  N   UNL     1       6.876   4.104  14.336  0.00  0.00    +0.000 N 
ATOM      4  C   UNL     1       6.754   4.405  15.669  0.00  0.00    +0.000 A 
ATOM      5  N   UNL     1       7.794   4.560  16.461  0.00  0.00    +0.000 NA
ATOM      6  N   UNL     1       7.421   4.842  17.765  0.00  0.00    +0.000 NA
ATOM      7  C   UNL     1       6.114   4.856  17.908  0.00  0.00    +0.000 A 
ATOM      8  S   UNL     1       5.250   4.537  16.463  0.00  0.00    +0.000 S 
ATOM      9  H   UNL     1       7.810   3.903  14.015  0.00  0.00    +0.000 HD
ENDROOT
BRANCH   1  10
ATOM     10  O   UNL     1       6.391   3.363  12.311  0.00  0.00    +0.000 OA
BRANCH  10  11
ATOM     11  C   UNL     1       5.586   2.322  11.735  0.00  0.00    +0.000 C 
BRANCH  11  13
ATOM     12  C   UNL     1       7.851   1.680  10.775  0.00  0.00    +0.000 C 
ATOM     13  C   UNL     1       6.357   1.359  10.825  0.00  0.00    +0.000 C 
ATOM     14  C   UNL     1       6.150  -0.070  11.338  0.00  0.00    +0.000 C 
ENDBRANCH  11  13
ENDBRANCH  10  11
ENDBRANCH   1  10
BRANCH   7  15
ATOM     15  S   UNL     1       5.324   5.131  19.444  0.00  0.00    +0.000 S 
BRANCH  15  16
ATOM     16  C   UNL     1       3.686   5.686  18.888  0.00  0.00    +0.000 C 
BRANCH  16  17
ATOM     17  C   UNL     1       2.623   4.648  19.155  0.00  0.00    +0.000 A 
ATOM     18  C   UNL     1       2.153   3.810  18.130  0.00  0.00    +0.000 A 
ATOM     19  C   UNL     1       1.169   2.855  18.391  0.00  0.00    +0.000 A 
ATOM     20  C   UNL     1       0.636   2.725  19.676  0.00  0.00    +0.000 A 
ATOM     21  C   UNL     1       1.091   3.552  20.701  0.00  0.00    +0.000 A 
ATOM     22  C   UNL     1       2.077   4.498  20.429  0.00  0.00    +0.000 A 
ATOM     23  F   UNL     1       2.499   5.286  21.436  0.00  0.00    +0.000 F 
ENDBRANCH  16  17
ENDBRANCH  15  16
ENDBRANCH   7  15
TORSDOF 6
ENDMDL
MODEL 5
REMARK VINA RESULT:      -7.2      1.363      1.695
REMARK  Name = 
REMARK  8 active torsions:
REMARK  status: ('A' for Active; 'I' for Inactive)
REMARK    1  A    between atoms: C_1  and  C_2
REMARK    2  A    between atoms: C_2  and  C_3
REMARK    3  A    between atoms: C_2  and  C_4
REMARK    4  A    between atoms: C_4  and  O_5
REMARK    5  A    between atoms: O_5  and  C_6
REMARK    6  A    between atoms: C_12  and  S_13
REMARK    7  A    between atoms: S_13  and  C_14
REMARK    8  A    between atoms: C_14  and  C_15
REMARK                            x       y       z     vdW  Elec       q    Type
REMARK                         _______ _______ _______ _____ _____    ______ ____
ROOT
ATOM      1  C   UNL     1       8.464   8.934  18.514  0.00  0.00    +0.000 C 
ATOM      2  O   UNL     1       7.735   9.359  17.631  0.00  0.00    +0.000 OA
ATOM      3  N   UNL     1       8.526   7.671  19.020  0.00  0.00    +0.000 N 
ATOM      4  C   UNL     1       7.907   6.549  18.529  0.00  0.00    +0.000 A 
ATOM      5  N   UNL     1       8.028   5.366  19.092  0.00  0.00    +0.000 NA
ATOM      6  N   UNL     1       7.325   4.387  18.407  0.00  0.00    +0.000 NA
ATOM      7  C   UNL     1       6.730   4.869  17.338  0.00  0.00    +0.000 A 
ATOM      8  S   UNL     1       6.976   6.548  17.099  0.00  0.00    +0.000 S 
ATOM      9  H   UNL     1       9.169   7.518  19.782  0.00  0.00    +0.000 HD
ENDROOT
BRANCH   1  10
ATOM     10  O   UNL     1       9.434   9.684  19.110  0.00  0.00    +0.000 OA
BRANCH  10  11
ATOM     11  C   UNL     1       9.366  11.088  18.815  0.00  0.00    +0.000 C 
BRANCH  11  13
ATOM     12  C   UNL     1      10.976  12.028  20.544  0.00  0.00    +0.000 C 
ATOM     13  C   UNL     1       9.534  11.999  20.037  0.00  0.00    +0.000 C 
ATOM     14  C   UNL     1       9.088  13.415  19.658  0.00  0.00    +0.000 C 
ENDBRANCH  11  13
ENDBRANCH  10  11
ENDBRANCH   1  10
BRANCH   7  15
ATOM     15  S   UNL     1       5.806   3.879  16.231  0.00  0.00    +0.000 S 
BRANCH  15  16
ATOM     16  C   UNL     1       4.150   4.597  16.436  0.00  0.00    +0.000 C 
BRANCH  16  17
ATOM     17  C   UNL     1       3.320   3.816  17.425  0.00  0.00    +0.000 A 
ATOM     18  C   UNL     1       3.649   2.492  17.763  0.00  0.00    +0.000 A 
ATOM     19  C   UNL     1       2.872   1.781  18.679  0.00  0.00    +0.000 A 
ATOM     20  C   UNL     1       1.754   2.376  19.268  0.00  0.00    +0.000 A 
ATOM     21  C   UNL     1       1.415   3.687  18.939  0.00  0.00    +0.000 A 
ATOM     22  C   UNL     1       2.200   4.389  18.027  0.00  0.00    +0.000 A 
ATOM     23  F   UNL     1       1.851   5.654  17.725  0.00  0.00    +0.000 F 
ENDBRANCH  16  17
ENDBRANCH  15  16
ENDBRANCH   7  15
TORSDOF 6
ENDMDL
MODEL 6
REMARK VINA RESULT:      -7.2      0.976      1.257
REMARK  Name = 
REMARK  8 active torsions:
REMARK  status: ('A' for Active; 'I' for Inactive)
REMARK    1  A    between atoms: C_1  and  C_2
REMARK    2  A    between atoms: C_2  and  C_3
REMARK    3  A    between atoms: C_2  and  C_4
REMARK    4  A    between atoms: C_4  and  O_5
REMARK    5  A    between atoms: O_5  and  C_6
REMARK    6  A    between atoms: C_12  and  S_13
REMARK    7  A    between atoms: S_13  and  C_14
REMARK    8  A    between atoms: C_14  and  C_15
REMARK                            x       y       z     vdW  Elec       q    Type
REMARK                         _______ _______ _______ _____ _____    ______ ____
ROOT
ATOM      1  C   UNL     1       8.306   8.825  18.257  0.00  0.00    +0.000 C 
ATOM      2  O   UNL     1       7.395   9.277  17.580  0.00  0.00    +0.000 OA
ATOM      3  N   UNL     1       8.431   7.570  18.772  0.00  0.00    +0.000 N 
ATOM      4  C   UNL     1       7.645   6.479  18.497  0.00  0.00    +0.000 A 
ATOM      5  N   UNL     1       7.846   5.301  19.049  0.00  0.00    +0.000 NA
ATOM      6  N   UNL     1       6.937   4.354  18.604  0.00  0.00    +0.000 NA
ATOM      7  C   UNL     1       6.109   4.851  17.711  0.00  0.00    +0.000 A 
ATOM      8  S   UNL     1       6.374   6.508  17.360  0.00  0.00    +0.000 S 
ATOM      9  H   UNL     1       9.242   7.394  19.345  0.00  0.00    +0.000 HD
ENDROOT
BRANCH   1  10
ATOM     10  O   UNL     1       9.437   9.526  18.554  0.00  0.00    +0.000 OA
BRANCH  10  11
ATOM     11  C   UNL     1       9.284  10.480  19.617  0.00  0.00    +0.000 C 
BRANCH  11  13
ATOM     12  C   UNL     1      10.975  12.130  20.555  0.00  0.00    +0.000 C 
ATOM     13  C   UNL     1      10.036  11.798  19.395  0.00  0.00    +0.000 C 
ATOM     14  C   UNL     1      10.837  11.692  18.093  0.00  0.00    +0.000 C 
ENDBRANCH  11  13
ENDBRANCH  10  11
ENDBRANCH   1  10
BRANCH   7  15
ATOM     15  S   UNL     1       4.876   3.899  16.918  0.00  0.00    +0.000 S 
BRANCH  15  16
ATOM     16  C   UNL     1       3.379   4.799  17.419  0.00  0.00    +0.000 C 
BRANCH  16  17
ATOM     17  C   UNL     1       2.921   4.398  18.799  0.00  0.00    +0.000 A 
ATOM     18  C   UNL     1       3.025   3.067  19.241  0.00  0.00    +0.000 A 
ATOM     19  C   UNL     1       2.597   2.710  20.521  0.00  0.00    +0.000 A 
ATOM     20  C   UNL     1       2.055   3.672  21.377  0.00  0.00    +0.000 A 
ATOM     21  C   UNL     1       1.942   4.994  20.950  0.00  0.00    +0.000 A 
ATOM     22  C   UNL     1       2.377   5.339  19.673  0.00  0.00    +0.000 A 
ATOM     23  F   UNL     1       2.257   6.622  19.284  0.00  0.00    +0.000 F 
ENDBRANCH  16  17
ENDBRANCH  15  16
ENDBRANCH   7  15
TORSDOF 6
ENDMDL
MODEL 7
REMARK VINA RESULT:      -7.1      1.474      1.939
REMARK  Name = 
REMARK  8 active torsions:
REMARK  status: ('A' for Active; 'I' for Inactive)
REMARK    1  A    between atoms: C_1  and  C_2
REMARK    2  A    between atoms: C_2  and  C_3
REMARK    3  A    between atoms: C_2  and  C_4
REMARK    4  A    between atoms: C_4  and  O_5
REMARK    5  A    between atoms: O_5  and  C_6
REMARK    6  A    between atoms: C_12  and  S_13
REMARK    7  A    between atoms: S_13  and  C_14
REMARK    8  A    between atoms: C_14  and  C_15
REMARK                            x       y       z     vdW  Elec       q    Type
REMARK                         _______ _______ _______ _____ _____    ______ ____
ROOT
ATOM      1  C   UNL     1       8.357   8.954  18.291  0.00  0.00    +0.000 C 
ATOM      2  O   UNL     1       7.425   9.416  17.651  0.00  0.00    +0.000 OA
ATOM      3  N   UNL     1       8.495   7.693  18.788  0.00  0.00    +0.000 N 
ATOM      4  C   UNL     1       7.697   6.608  18.528  0.00  0.00    +0.000 A 
ATOM      5  N   UNL     1       7.913   5.423  19.060  0.00  0.00    +0.000 NA
ATOM      6  N   UNL     1       6.986   4.483  18.637  0.00  0.00    +0.000 NA
ATOM      7  C   UNL     1       6.130   4.993  17.778  0.00  0.00    +0.000 A 
ATOM      8  S   UNL     1       6.388   6.652  17.435  0.00  0.00    +0.000 S 
ATOM      9  H   UNL     1       9.325   7.508  19.331  0.00  0.00    +0.000 HD
ENDROOT
BRANCH   1  10
ATOM     10  O   UNL     1       9.500   9.648  18.557  0.00  0.00    +0.000 OA
BRANCH  10  11
ATOM     11  C   UNL     1       9.395  11.067  18.355  0.00  0.00    +0.000 C 
BRANCH  11  13
ATOM     12  C   UNL     1       9.563  11.468  20.860  0.00  0.00    +0.000 C 
ATOM     13  C   UNL     1      10.023  11.911  19.471  0.00  0.00    +0.000 C 
ATOM     14  C   UNL     1      11.548  11.801  19.369  0.00  0.00    +0.000 C 
ENDBRANCH  11  13
ENDBRANCH  10  11
ENDBRANCH   1  10
BRANCH   7  15
ATOM     15  S   UNL     1       4.867   4.052  17.017  0.00  0.00    +0.000 S 
BRANCH  15  16
ATOM     16  C   UNL     1       4.525   2.830  18.318  0.00  0.00    +0.000 C 
BRANCH  16  17
ATOM     17  C   UNL     1       3.190   3.073  18.976  0.00  0.00    +0.000 A 
ATOM     18  C   UNL     1       3.085   3.851  20.142  0.00  0.00    +0.000 A 
ATOM     19  C   UNL     1       1.843   4.066  20.741  0.00  0.00    +0.000 A 
ATOM     20  C   UNL     1       0.688   3.506  20.190  0.00  0.00    +0.000 A 
ATOM     21  C   UNL     1       0.778   2.730  19.036  0.00  0.00    +0.000 A 
ATOM     22  C   UNL     1       2.022   2.525  18.445  0.00  0.00    +0.000 A 
ATOM     23  F   UNL     1       2.083   1.770  17.332  0.00  0.00    +0.000 F 
ENDBRANCH  16  17
ENDBRANCH  15  16
ENDBRANCH   7  15
TORSDOF 6
ENDMDL
MODEL 8
REMARK VINA RESULT:      -7.0      2.060      2.499
REMARK  Name = 
REMARK  8 active torsions:
REMARK  status: ('A' for Active; 'I' for Inactive)
REMARK    1  A    between atoms: C_1  and  C_2
REMARK    2  A    between atoms: C_2  and  C_3
REMARK    3  A    between atoms: C_2  and  C_4
REMARK    4  A    between atoms: C_4  and  O_5
REMARK    5  A    between atoms: O_5  and  C_6
REMARK    6  A    between atoms: C_12  and  S_13
REMARK    7  A    between atoms: S_13  and  C_14
REMARK    8  A    between atoms: C_14  and  C_15
REMARK                            x       y       z     vdW  Elec       q    Type
REMARK                         _______ _______ _______ _____ _____    ______ ____
ROOT
ATOM      1  C   UNL     1       8.060   7.783  17.859  0.00  0.00    +0.000 C 
ATOM      2  O   UNL     1       8.239   7.203  18.918  0.00  0.00    +0.000 OA
ATOM      3  N   UNL     1       7.312   7.383  16.793  0.00  0.00    +0.000 N 
ATOM      4  C   UNL     1       6.446   6.319  16.742  0.00  0.00    +0.000 A 
ATOM      5  N   UNL     1       5.764   6.010  15.660  0.00  0.00    +0.000 NA
ATOM      6  N   UNL     1       4.945   4.909  15.855  0.00  0.00    +0.000 NA
ATOM      7  C   UNL     1       5.022   4.454  17.086  0.00  0.00    +0.000 A 
ATOM      8  S   UNL     1       6.103   5.329  18.088  0.00  0.00    +0.000 S 
ATOM      9  H   UNL     1       7.318   7.983  15.983  0.00  0.00    +0.000 HD
ENDROOT
BRANCH   1  10
ATOM     10  O   UNL     1       8.552   9.027  17.594  0.00  0.00    +0.000 OA
BRANCH  10  11
ATOM     11  C   UNL     1       8.512   9.932  18.709  0.00  0.00    +0.000 C 
BRANCH  11  13
ATOM     12  C   UNL     1      10.362  11.532  18.015  0.00  0.00    +0.000 C 
ATOM     13  C   UNL     1       9.869  10.545  19.074  0.00  0.00    +0.000 C 
ATOM     14  C   UNL     1       9.739  11.256  20.425  0.00  0.00    +0.000 C 
ENDBRANCH  11  13
ENDBRANCH  10  11
ENDBRANCH   1  10
BRANCH   7  15
ATOM     15  S   UNL     1       4.072   3.105  17.667  0.00  0.00    +0.000 S 
BRANCH  15  16
ATOM     16  C   UNL     1       2.400   3.810  17.587  0.00  0.00    +0.000 C 
BRANCH  16  17
ATOM     17  C   UNL     1       2.249   4.999  18.503  0.00  0.00    +0.000 A 
ATOM     18  C   UNL     1       2.454   6.308  18.033  0.00  0.00    +0.000 A 
ATOM     19  C   UNL     1       2.312   7.399  18.893  0.00  0.00    +0.000 A 
ATOM     20  C   UNL     1       1.970   7.202  20.232  0.00  0.00    +0.000 A 
ATOM     21  C   UNL     1       1.768   5.909  20.712  0.00  0.00    +0.000 A 
ATOM     22  C   UNL     1       1.908   4.828  19.845  0.00  0.00    +0.000 A 
ATOM     23  F   UNL     1       1.708   3.589  20.332  0.00  0.00    +0.000 F 
ENDBRANCH  16  17
ENDBRANCH  15  16
ENDBRANCH   7  15
TORSDOF 6
ENDMDL
MODEL 9
REMARK VINA RESULT:      -7.0      2.945      9.004
REMARK  Name = 
REMARK  8 active torsions:
REMARK  status: ('A' for Active; 'I' for Inactive)
REMARK    1  A    between atoms: C_1  and  C_2
REMARK    2  A    between atoms: C_2  and  C_3
REMARK    3  A    between atoms: C_2  and  C_4
REMARK    4  A    between atoms: C_4  and  O_5
REMARK    5  A    between atoms: O_5  and  C_6
REMARK    6  A    between atoms: C_12  and  S_13
REMARK    7  A    between atoms: S_13  and  C_14
REMARK    8  A    between atoms: C_14  and  C_15
REMARK                            x       y       z     vdW  Elec       q    Type
REMARK                         _______ _______ _______ _____ _____    ______ ____
ROOT
ATOM      1  C   UNL     1       4.646   3.748  17.617  0.00  0.00    +0.000 C 
ATOM      2  O   UNL     1       4.206   4.400  16.683  0.00  0.00    +0.000 OA
ATOM      3  N   UNL     1       5.757   3.992  18.365  0.00  0.00    +0.000 N 
ATOM      4  C   UNL     1       6.535   5.122  18.351  0.00  0.00    +0.000 A 
ATOM      5  N   UNL     1       7.597   5.264  19.115  0.00  0.00    +0.000 NA
ATOM      6  N   UNL     1       8.209   6.495  18.937  0.00  0.00    +0.000 NA
ATOM      7  C   UNL     1       7.562   7.241  18.068  0.00  0.00    +0.000 A 
ATOM      8  S   UNL     1       6.172   6.492  17.401  0.00  0.00    +0.000 S 
ATOM      9  H   UNL     1       5.985   3.312  19.075  0.00  0.00    +0.000 HD
ENDROOT
BRANCH   1  10
ATOM     10  O   UNL     1       4.013   2.655  18.131  0.00  0.00    +0.000 OA
BRANCH  10  11
ATOM     11  C   UNL     1       2.580   2.751  18.151  0.00  0.00    +0.000 C 
BRANCH  11  13
ATOM     12  C   UNL     1       3.025   2.606  20.650  0.00  0.00    +0.000 C 
ATOM     13  C   UNL     1       1.965   2.740  19.555  0.00  0.00    +0.000 C 
ATOM     14  C   UNL     1       1.176   4.038  19.754  0.00  0.00    +0.000 C 
ENDBRANCH  11  13
ENDBRANCH  10  11
ENDBRANCH   1  10
BRANCH   7  15
ATOM     15  S   UNL     1       8.049   8.871  17.660  0.00  0.00    +0.000 S 
BRANCH  15  16
ATOM     16  C   UNL     1       8.954   9.340  19.164  0.00  0.00    +0.000 C 
BRANCH  16  17
ATOM     17  C   UNL     1       9.566  10.713  19.043  0.00  0.00    +0.000 A 
ATOM     18  C   UNL     1      10.012  11.203  17.803  0.00  0.00    +0.000 A 
ATOM     19  C   UNL     1      10.577  12.476  17.706  0.00  0.00    +0.000 A 
ATOM     20  C   UNL     1      10.711  13.277  18.843  0.00  0.00    +0.000 A 
ATOM     21  C   UNL     1      10.276  12.802  20.079  0.00  0.00    +0.000 A 
ATOM     22  C   UNL     1       9.709  11.532  20.163  0.00  0.00    +0.000 A 
ATOM     23  F   UNL     1       9.297  11.097  21.368  0.00  0.00    +0.000 F 
ENDBRANCH  16  17
ENDBRANCH  15  16
ENDBRANCH   7  15
TORSDOF 6
ENDMDL
