MODEL 1
REMARK VINA RESULT:      -7.2      0.000      0.000
REMARK  Name = 
REMARK  1 active torsions:
REMARK  status: ('A' for Active; 'I' for Inactive)
REMARK    1  A    between atoms: C_2  and  C_3
REMARK                            x       y       z     vdW  Elec       q    Type
REMARK                         _______ _______ _______ _____ _____    ______ ____
ROOT
ATOM      1  O   UNL     1       4.363   5.989  16.625  0.00  0.00    +0.000 OA
ATOM      2  C   UNL     1       3.688   5.795  17.636  0.00  0.00    +0.000 C 
ATOM      3  N   UNL     1       2.941   6.809  18.239  0.00  0.00    +0.000 N 
ATOM      4  C   UNL     1       2.118   6.657  19.458  0.00  0.00    +0.000 C 
ATOM      5  C   UNL     1       1.981   7.947  20.285  0.00  0.00    +0.000 C 
ATOM      6  N   UNL     1       1.554   9.004  19.379  0.00  0.00    +0.000 N 
ATOM      7  C   UNL     1       0.551   9.858  19.761  0.00  0.00    +0.000 A 
ATOM      8  C   UNL     1      -0.243  10.476  18.803  0.00  0.00    +0.000 A 
ATOM      9  C   UNL     1      -1.329  11.262  19.184  0.00  0.00    +0.000 A 
ATOM     10  C   UNL     1      -1.582  11.433  20.533  0.00  0.00    +0.000 A 
ATOM     11  N   UNL     1      -2.665  12.236  20.978  0.00  0.00    +0.000 N 
ATOM     12  C   UNL     1      -3.614  12.872  20.199  0.00  0.00    +0.000 A 
ATOM     13  C   UNL     1      -4.471  13.576  21.020  0.00  0.00    +0.000 A 
ATOM     14  C   UNL     1      -4.048  13.365  22.348  0.00  0.00    +0.000 A 
ATOM     15  C   UNL     1      -2.951  12.532  22.297  0.00  0.00    +0.000 A 
ATOM     16  N   UNL     1      -0.800  10.837  21.457  0.00  0.00    +0.000 NA
ATOM     17  N   UNL     1       0.253  10.034  21.060  0.00  0.00    +0.000 NA
ATOM     18  C   UNL     1       2.495   9.293  18.298  0.00  0.00    +0.000 C 
ATOM     19  C   UNL     1       2.685   8.024  17.445  0.00  0.00    +0.000 C 
ENDROOT
BRANCH   2  20
ATOM     20  C   UNL     1       3.721   4.434  18.219  0.00  0.00    +0.000 A 
ATOM     21  C   UNL     1       2.816   3.424  17.887  0.00  0.00    +0.000 A 
ATOM     22  C   UNL     1       2.880   2.198  18.542  0.00  0.00    +0.000 A 
ATOM     23  C   UNL     1       3.899   1.996  19.458  0.00  0.00    +0.000 A 
ATOM     24  N   UNL     1       4.838   2.923  19.749  0.00  0.00    +0.000 NA
ATOM     25  C   UNL     1       4.734   4.120  19.116  0.00  0.00    +0.000 A 
ENDBRANCH   2  20
TORSDOF 1
ENDMDL
MODEL 2
REMARK VINA RESULT:      -7.1      2.467      3.240
REMARK  Name = 
REMARK  1 active torsions:
REMARK  status: ('A' for Active; 'I' for Inactive)
REMARK    1  A    between atoms: C_2  and  C_3
REMARK                            x       y       z     vdW  Elec       q    Type
REMARK                         _______ _______ _______ _____ _____    ______ ____
ROOT
ATOM      1  O   UNL     1       4.865   3.834  18.988  0.00  0.00    +0.000 OA
ATOM      2  C   UNL     1       4.710   4.804  18.246  0.00  0.00    +0.000 C 
ATOM      3  N   UNL     1       3.798   5.823  18.532  0.00  0.00    +0.000 N 
ATOM      4  C   UNL     1       3.548   7.010  17.687  0.00  0.00    +0.000 C 
ATOM      5  C   UNL     1       2.122   7.574  17.808  0.00  0.00    +0.000 C 
ATOM      6  N   UNL     1       1.843   7.755  19.226  0.00  0.00    +0.000 N 
ATOM      7  C   UNL     1       1.248   8.914  19.655  0.00  0.00    +0.000 A 
ATOM      8  C   UNL     1       1.458   9.369  20.951  0.00  0.00    +0.000 A 
ATOM      9  C   UNL     1       0.944  10.597  21.362  0.00  0.00    +0.000 A 
ATOM     10  C   UNL     1       0.199  11.337  20.463  0.00  0.00    +0.000 A 
ATOM     11  N   UNL     1      -0.363  12.588  20.833  0.00  0.00    +0.000 N 
ATOM     12  C   UNL     1      -0.212  13.253  22.036  0.00  0.00    +0.000 A 
ATOM     13  C   UNL     1      -0.949  14.419  22.000  0.00  0.00    +0.000 A 
ATOM     14  C   UNL     1      -1.569  14.485  20.736  0.00  0.00    +0.000 A 
ATOM     15  C   UNL     1      -1.185  13.362  20.036  0.00  0.00    +0.000 A 
ATOM     16  N   UNL     1      -0.010  10.884  19.209  0.00  0.00    +0.000 NA
ATOM     17  N   UNL     1       0.538   9.679  18.809  0.00  0.00    +0.000 NA
ATOM     18  C   UNL     1       1.878   6.524  20.013  0.00  0.00    +0.000 C 
ATOM     19  C   UNL     1       3.285   5.903  19.912  0.00  0.00    +0.000 C 
ENDROOT
BRANCH   2  20
ATOM     20  C   UNL     1       5.514   4.838  17.003  0.00  0.00    +0.000 A 
ATOM     21  C   UNL     1       5.155   4.179  15.827  0.00  0.00    +0.000 A 
ATOM     22  C   UNL     1       6.012   4.208  14.730  0.00  0.00    +0.000 A 
ATOM     23  C   UNL     1       7.171   4.961  14.824  0.00  0.00    +0.000 A 
ATOM     24  N   UNL     1       7.514   5.673  15.920  0.00  0.00    +0.000 NA
ATOM     25  C   UNL     1       6.674   5.603  16.984  0.00  0.00    +0.000 A 
ENDBRANCH   2  20
TORSDOF 1
ENDMDL
MODEL 3
REMARK VINA RESULT:      -7.0      6.667      8.304
REMARK  Name = 
REMARK  1 active torsions:
REMARK  status: ('A' for Active; 'I' for Inactive)
REMARK    1  A    between atoms: C_2  and  C_3
REMARK                            x       y       z     vdW  Elec       q    Type
REMARK                         _______ _______ _______ _____ _____    ______ ____
ROOT
ATOM      1  O   UNL     1       3.397   3.449  16.901  0.00  0.00    +0.000 OA
ATOM      2  C   UNL     1       3.786   3.906  17.975  0.00  0.00    +0.000 C 
ATOM      3  N   UNL     1       4.825   4.836  18.058  0.00  0.00    +0.000 N 
ATOM      4  C   UNL     1       5.354   5.419  19.309  0.00  0.00    +0.000 C 
ATOM      5  C   UNL     1       6.836   5.823  19.232  0.00  0.00    +0.000 C 
ATOM      6  N   UNL     1       7.002   6.651  18.046  0.00  0.00    +0.000 N 
ATOM      7  C   UNL     1       7.741   7.804  18.124  0.00  0.00    +0.000 A 
ATOM      8  C   UNL     1       7.486   8.858  17.255  0.00  0.00    +0.000 A 
ATOM      9  C   UNL     1       8.159  10.070  17.395  0.00  0.00    +0.000 A 
ATOM     10  C   UNL     1       9.102  10.190  18.398  0.00  0.00    +0.000 A 
ATOM     11  N   UNL     1       9.830  11.397  18.577  0.00  0.00    +0.000 N 
ATOM     12  C   UNL     1       9.678  12.581  17.878  0.00  0.00    +0.000 A 
ATOM     13  C   UNL     1      10.601  13.496  18.338  0.00  0.00    +0.000 A 
ATOM     14  C   UNL     1      11.344  12.867  19.357  0.00  0.00    +0.000 A 
ATOM     15  C   UNL     1      10.845  11.590  19.494  0.00  0.00    +0.000 A 
ATOM     16  N   UNL     1       9.352   9.159  19.232  0.00  0.00    +0.000 NA
ATOM     17  N   UNL     1       8.650   7.976  19.099  0.00  0.00    +0.000 NA
ATOM     18  C   UNL     1       6.682   5.979  16.788  0.00  0.00    +0.000 C 
ATOM     19  C   UNL     1       5.207   5.534  16.817  0.00  0.00    +0.000 C 
ENDROOT
BRANCH   2  20
ATOM     20  C   UNL     1       3.124   3.403  19.201  0.00  0.00    +0.000 A 
ATOM     21  C   UNL     1       1.779   3.622  19.504  0.00  0.00    +0.000 A 
ATOM     22  C   UNL     1       1.263   3.173  20.717  0.00  0.00    +0.000 A 
ATOM     23  C   UNL     1       2.095   2.451  21.556  0.00  0.00    +0.000 A 
ATOM     24  N   UNL     1       3.381   2.155  21.262  0.00  0.00    +0.000 NA
ATOM     25  C   UNL     1       3.865   2.630  20.086  0.00  0.00    +0.000 A 
ENDBRANCH   2  20
TORSDOF 1
ENDMDL
MODEL 4
REMARK VINA RESULT:      -7.0      1.685      2.199
REMARK  Name = 
REMARK  1 active torsions:
REMARK  status: ('A' for Active; 'I' for Inactive)
REMARK    1  A    between atoms: C_2  and  C_3
REMARK                            x       y       z     vdW  Elec       q    Type
REMARK                         _______ _______ _______ _____ _____    ______ ____
ROOT
ATOM      1  O   UNL     1       2.971   6.738  17.904  0.00  0.00    +0.000 OA
ATOM      2  C   UNL     1       2.456   6.642  19.018  0.00  0.00    +0.000 C 
ATOM      3  N   UNL     1       1.861   7.729  19.661  0.00  0.00    +0.000 N 
ATOM      4  C   UNL     1       1.236   7.695  21.000  0.00  0.00    +0.000 C 
ATOM      5  C   UNL     1       1.290   9.037  21.750  0.00  0.00    +0.000 C 
ATOM      6  N   UNL     1       0.773  10.060  20.852  0.00  0.00    +0.000 N 
ATOM      7  C   UNL     1      -0.118  10.990  21.327  0.00  0.00    +0.000 A 
ATOM      8  C   UNL     1      -1.024  11.593  20.465  0.00  0.00    +0.000 A 
ATOM      9  C   UNL     1      -1.999  12.459  20.956  0.00  0.00    +0.000 A 
ATOM     10  C   UNL     1      -2.027  12.723  22.313  0.00  0.00    +0.000 A 
ATOM     11  N   UNL     1      -2.989  13.610  22.866  0.00  0.00    +0.000 N 
ATOM     12  C   UNL     1      -4.020  14.250  22.204  0.00  0.00    +0.000 A 
ATOM     13  C   UNL     1      -4.703  15.047  23.098  0.00  0.00    +0.000 A 
ATOM     14  C   UNL     1      -4.084  14.892  24.356  0.00  0.00    +0.000 A 
ATOM     15  C   UNL     1      -3.048  13.998  24.192  0.00  0.00    +0.000 A 
ATOM     16  N   UNL     1      -1.137  12.141  23.143  0.00  0.00    +0.000 NA
ATOM     17  N   UNL     1      -0.198  11.259  22.642  0.00  0.00    +0.000 NA
ATOM     18  C   UNL     1       1.543  10.233  19.621  0.00  0.00    +0.000 C 
ATOM     19  C   UNL     1       1.537   8.908  18.835  0.00  0.00    +0.000 C 
ENDROOT
BRANCH   2  20
ATOM     20  C   UNL     1       2.520   5.318  19.678  0.00  0.00    +0.000 A 
ATOM     21  C   UNL     1       1.491   4.789  20.460  0.00  0.00    +0.000 A 
ATOM     22  C   UNL     1       1.671   3.567  21.102  0.00  0.00    +0.000 A 
ATOM     23  C   UNL     1       2.851   2.876  20.879  0.00  0.00    +0.000 A 
ATOM     24  N   UNL     1       3.836   3.321  20.068  0.00  0.00    +0.000 NA
ATOM     25  C   UNL     1       3.646   4.529  19.478  0.00  0.00    +0.000 A 
ENDBRANCH   2  20
TORSDOF 1
ENDMDL
MODEL 5
REMARK VINA RESULT:      -7.0      3.528      3.985
REMARK  Name = 
REMARK  1 active torsions:
REMARK  status: ('A' for Active; 'I' for Inactive)
REMARK    1  A    between atoms: C_2  and  C_3
REMARK                            x       y       z     vdW  Elec       q    Type
REMARK                         _______ _______ _______ _____ _____    ______ ____
ROOT
ATOM      1  O   UNL     1       1.831   5.379  20.910  0.00  0.00    +0.000 OA
ATOM      2  C   UNL     1       2.212   6.058  19.957  0.00  0.00    +0.000 C 
ATOM      3  N   UNL     1       1.867   7.404  19.815  0.00  0.00    +0.000 N 
ATOM      4  C   UNL     1       2.274   8.279  18.695  0.00  0.00    +0.000 C 
ATOM      5  C   UNL     1       1.277   9.410  18.390  0.00  0.00    +0.000 C 
ATOM      6  N   UNL     1       1.001  10.098  19.643  0.00  0.00    +0.000 N 
ATOM      7  C   UNL     1       0.989  11.470  19.673  0.00  0.00    +0.000 A 
ATOM      8  C   UNL     1       1.281  12.146  20.851  0.00  0.00    +0.000 A 
ATOM      9  C   UNL     1       1.373  13.536  20.864  0.00  0.00    +0.000 A 
ATOM     10  C   UNL     1       1.140  14.226  19.689  0.00  0.00    +0.000 A 
ATOM     11  N   UNL     1       1.204  15.645  19.649  0.00  0.00    +0.000 N 
ATOM     12  C   UNL     1       1.551  16.499  20.678  0.00  0.00    +0.000 A 
ATOM     13  C   UNL     1       1.455  17.802  20.234  0.00  0.00    +0.000 A 
ATOM     14  C   UNL     1       1.045  17.756  18.886  0.00  0.00    +0.000 A 
ATOM     15  C   UNL     1       0.911  16.427  18.547  0.00  0.00    +0.000 A 
ATOM     16  N   UNL     1       0.846  13.563  18.551  0.00  0.00    +0.000 NA
ATOM     17  N   UNL     1       0.793  12.182  18.550  0.00  0.00    +0.000 NA
ATOM     18  C   UNL     1       0.388   9.261  20.673  0.00  0.00    +0.000 C 
ATOM     19  C   UNL     1       1.341   8.096  21.006  0.00  0.00    +0.000 C 
ENDROOT
BRANCH   2  20
ATOM     20  C   UNL     1       3.036   5.378  18.932  0.00  0.00    +0.000 A 
ATOM     21  C   UNL     1       2.510   4.753  17.800  0.00  0.00    +0.000 A 
ATOM     22  C   UNL     1       3.359   4.076  16.929  0.00  0.00    +0.000 A 
ATOM     23  C   UNL     1       4.720   4.110  17.181  0.00  0.00    +0.000 A 
ATOM     24  N   UNL     1       5.272   4.768  18.224  0.00  0.00    +0.000 NA
ATOM     25  C   UNL     1       4.419   5.396  19.073  0.00  0.00    +0.000 A 
ENDBRANCH   2  20
TORSDOF 1
ENDMDL
MODEL 6
REMARK VINA RESULT:      -6.9      3.197      9.630
REMARK  Name = 
REMARK  1 active torsions:
REMARK  status: ('A' for Active; 'I' for Inactive)
REMARK    1  A    between atoms: C_2  and  C_3
REMARK                            x       y       z     vdW  Elec       q    Type
REMARK                         _______ _______ _______ _____ _____    ______ ____
ROOT
ATOM      1  O   UNL     1      -2.482  14.377  20.453  0.00  0.00    +0.000 OA
ATOM      2  C   UNL     1      -1.661  13.813  21.176  0.00  0.00    +0.000 C 
ATOM      3  N   UNL     1      -1.041  12.616  20.810  0.00  0.00    +0.000 N 
ATOM      4  C   UNL     1      -0.058  11.876  21.629  0.00  0.00    +0.000 C 
ATOM      5  C   UNL     1      -0.055  10.358  21.381  0.00  0.00    +0.000 C 
ATOM      6  N   UNL     1       0.056  10.150  19.944  0.00  0.00    +0.000 N 
ATOM      7  C   UNL     1       0.927   9.206  19.462  0.00  0.00    +0.000 A 
ATOM      8  C   UNL     1       1.468   9.339  18.190  0.00  0.00    +0.000 A 
ATOM      9  C   UNL     1       2.432   8.443  17.734  0.00  0.00    +0.000 A 
ATOM     10  C   UNL     1       2.817   7.406  18.563  0.00  0.00    +0.000 A 
ATOM     11  N   UNL     1       3.783   6.453  18.143  0.00  0.00    +0.000 N 
ATOM     12  C   UNL     1       4.496   6.446  16.958  0.00  0.00    +0.000 A 
ATOM     13  C   UNL     1       5.306   5.330  16.927  0.00  0.00    +0.000 A 
ATOM     14  C   UNL     1       5.099   4.627  18.131  0.00  0.00    +0.000 A 
ATOM     15  C   UNL     1       4.174   5.340  18.864  0.00  0.00    +0.000 A 
ATOM     16  N   UNL     1       2.279   7.276  19.794  0.00  0.00    +0.000 NA
ATOM     17  N   UNL     1       1.349   8.195  20.242  0.00  0.00    +0.000 NA
ATOM     18  C   UNL     1      -1.050  10.703  19.164  0.00  0.00    +0.000 C 
ATOM     19  C   UNL     1      -1.112  12.226  19.390  0.00  0.00    +0.000 C 
ENDROOT
BRANCH   2  20
ATOM     20  C   UNL     1      -1.373  14.442  22.486  0.00  0.00    +0.000 A 
ATOM     21  C   UNL     1      -2.130  14.223  23.637  0.00  0.00    +0.000 A 
ATOM     22  C   UNL     1      -1.826  14.916  24.806  0.00  0.00    +0.000 A 
ATOM     23  C   UNL     1      -0.724  15.755  24.803  0.00  0.00    +0.000 A 
ATOM     24  N   UNL     1       0.077  15.934  23.729  0.00  0.00    +0.000 NA
ATOM     25  C   UNL     1      -0.260  15.267  22.595  0.00  0.00    +0.000 A 
ENDBRANCH   2  20
TORSDOF 1
ENDMDL
MODEL 7
REMARK VINA RESULT:      -6.8      1.377      1.868
REMARK  Name = 
REMARK  1 active torsions:
REMARK  status: ('A' for Active; 'I' for Inactive)
REMARK    1  A    between atoms: C_2  and  C_3
REMARK                            x       y       z     vdW  Elec       q    Type
REMARK                         _______ _______ _______ _____ _____    ______ ____
ROOT
ATOM      1  O   UNL     1       3.397   7.736  17.086  0.00  0.00    +0.000 OA
ATOM      2  C   UNL     1       2.768   7.398  18.089  0.00  0.00    +0.000 C 
ATOM      3  N   UNL     1       2.013   8.305  18.836  0.00  0.00    +0.000 N 
ATOM      4  C   UNL     1       1.243   7.978  20.055  0.00  0.00    +0.000 C 
ATOM      5  C   UNL     1       1.098   9.154  21.037  0.00  0.00    +0.000 C 
ATOM      6  N   UNL     1       0.603  10.295  20.281  0.00  0.00    +0.000 N 
ATOM      7  C   UNL     1      -0.412  11.060  20.798  0.00  0.00    +0.000 A 
ATOM      8  C   UNL     1      -1.262  11.760  19.951  0.00  0.00    +0.000 A 
ATOM      9  C   UNL     1      -2.356  12.455  20.461  0.00  0.00    +0.000 A 
ATOM     10  C   UNL     1      -2.561  12.453  21.829  0.00  0.00    +0.000 A 
ATOM     11  N   UNL     1      -3.651  13.158  22.405  0.00  0.00    +0.000 N 
ATOM     12  C   UNL     1      -4.650  13.848  21.743  0.00  0.00    +0.000 A 
ATOM     13  C   UNL     1      -5.495  14.417  22.672  0.00  0.00    +0.000 A 
ATOM     14  C   UNL     1      -5.015  14.064  23.949  0.00  0.00    +0.000 A 
ATOM     15  C   UNL     1      -3.895  13.283  23.760  0.00  0.00    +0.000 A 
ATOM     16  N   UNL     1      -1.726  11.780  22.647  0.00  0.00    +0.000 NA
ATOM     17  N   UNL     1      -0.664  11.069  22.118  0.00  0.00    +0.000 NA
ATOM     18  C   UNL     1       1.491  10.746  19.211  0.00  0.00    +0.000 C 
ATOM     19  C   UNL     1       1.687   9.597  18.204  0.00  0.00    +0.000 C 
ENDROOT
BRANCH   2  20
ATOM     20  C   UNL     1       2.866   5.979  18.500  0.00  0.00    +0.000 A 
ATOM     21  C   UNL     1       1.963   4.991  18.106  0.00  0.00    +0.000 A 
ATOM     22  C   UNL     1       2.095   3.697  18.604  0.00  0.00    +0.000 A 
ATOM     23  C   UNL     1       3.175   3.417  19.425  0.00  0.00    +0.000 A 
ATOM     24  N   UNL     1       4.111   4.330  19.766  0.00  0.00    +0.000 NA
ATOM     25  C   UNL     1       3.942   5.590  19.289  0.00  0.00    +0.000 A 
ENDBRANCH   2  20
TORSDOF 1
ENDMDL
MODEL 8
REMARK VINA RESULT:      -6.7      3.145      3.786
REMARK  Name = 
REMARK  1 active torsions:
REMARK  status: ('A' for Active; 'I' for Inactive)
REMARK    1  A    between atoms: C_2  and  C_3
REMARK                            x       y       z     vdW  Elec       q    Type
REMARK                         _______ _______ _______ _____ _____    ______ ____
ROOT
ATOM      1  O   UNL     1       2.651   5.534  20.215  0.00  0.00    +0.000 OA
ATOM      2  C   UNL     1       2.806   6.312  19.274  0.00  0.00    +0.000 C 
ATOM      3  N   UNL     1       2.219   7.579  19.250  0.00  0.00    +0.000 N 
ATOM      4  C   UNL     1       2.347   8.561  18.152  0.00  0.00    +0.000 C 
ATOM      5  C   UNL     1       1.143   9.508  18.015  0.00  0.00    +0.000 C 
ATOM      6  N   UNL     1       0.885  10.080  19.329  0.00  0.00    +0.000 N 
ATOM      7  C   UNL     1       0.638  11.424  19.445  0.00  0.00    +0.000 A 
ATOM      8  C   UNL     1       0.931  12.090  20.628  0.00  0.00    +0.000 A 
ATOM      9  C   UNL     1       0.781  13.472  20.719  0.00  0.00    +0.000 A 
ATOM     10  C   UNL     1       0.309  14.160  19.616  0.00  0.00    +0.000 A 
ATOM     11  N   UNL     1       0.121  15.567  19.658  0.00  0.00    +0.000 N 
ATOM     12  C   UNL     1       0.421  16.424  20.701  0.00  0.00    +0.000 A 
ATOM     13  C   UNL     1       0.054  17.706  20.349  0.00  0.00    +0.000 A 
ATOM     14  C   UNL     1      -0.482  17.647  19.047  0.00  0.00    +0.000 A 
ATOM     15  C   UNL     1      -0.418  16.332  18.641  0.00  0.00    +0.000 A 
ATOM     16  N   UNL     1       0.016  13.506  18.474  0.00  0.00    +0.000 NA
ATOM     17  N   UNL     1       0.204  12.138  18.392  0.00  0.00    +0.000 NA
ATOM     18  C   UNL     1       0.540   9.102  20.359  0.00  0.00    +0.000 C 
ATOM     19  C   UNL     1       1.709   8.113  20.526  0.00  0.00    +0.000 C 
ENDROOT
BRANCH   2  20
ATOM     20  C   UNL     1       3.622   5.837  18.134  0.00  0.00    +0.000 A 
ATOM     21  C   UNL     1       4.567   6.624  17.473  0.00  0.00    +0.000 A 
ATOM     22  C   UNL     1       5.235   6.114  16.363  0.00  0.00    +0.000 A 
ATOM     23  C   UNL     1       4.989   4.801  15.995  0.00  0.00    +0.000 A 
ATOM     24  N   UNL     1       4.138   3.986  16.657  0.00  0.00    +0.000 NA
ATOM     25  C   UNL     1       3.479   4.519  17.718  0.00  0.00    +0.000 A 
ENDBRANCH   2  20
TORSDOF 1
ENDMDL
MODEL 9
REMARK VINA RESULT:      -6.7      3.861      9.557
REMARK  Name = 
REMARK  1 active torsions:
REMARK  status: ('A' for Active; 'I' for Inactive)
REMARK    1  A    between atoms: C_2  and  C_3
REMARK                            x       y       z     vdW  Elec       q    Type
REMARK                         _______ _______ _______ _____ _____    ______ ____
ROOT
ATOM      1  O   UNL     1      -0.438  15.332  19.151  0.00  0.00    +0.000 OA
ATOM      2  C   UNL     1       0.246  14.722  19.973  0.00  0.00    +0.000 C 
ATOM      3  N   UNL     1       0.480  13.349  19.876  0.00  0.00    +0.000 N 
ATOM      4  C   UNL     1       1.278  12.547  20.829  0.00  0.00    +0.000 C 
ATOM      5  C   UNL     1       0.841  11.075  20.927  0.00  0.00    +0.000 C 
ATOM      6  N   UNL     1       0.782  10.547  19.572  0.00  0.00    +0.000 N 
ATOM      7  C   UNL     1       1.319   9.313  19.303  0.00  0.00    +0.000 A 
ATOM      8  C   UNL     1       1.780   9.014  18.027  0.00  0.00    +0.000 A 
ATOM      9  C   UNL     1       2.421   7.803  17.772  0.00  0.00    +0.000 A 
ATOM     10  C   UNL     1       2.564   6.899  18.808  0.00  0.00    +0.000 A 
ATOM     11  N   UNL     1       3.194   5.643  18.600  0.00  0.00    +0.000 N 
ATOM     12  C   UNL     1       3.786   5.182  17.439  0.00  0.00    +0.000 A 
ATOM     13  C   UNL     1       4.250   3.900  17.649  0.00  0.00    +0.000 A 
ATOM     14  C   UNL     1       3.946   3.557  18.982  0.00  0.00    +0.000 A 
ATOM     15  C   UNL     1       3.313   4.643  19.547  0.00  0.00    +0.000 A 
ATOM     16  N   UNL     1       2.104   7.192  20.042  0.00  0.00    +0.000 NA
ATOM     17  N   UNL     1       1.501   8.412  20.284  0.00  0.00    +0.000 NA
ATOM     18  C   UNL     1      -0.182  11.216  18.700  0.00  0.00    +0.000 C 
ATOM     19  C   UNL     1       0.199  12.705  18.581  0.00  0.00    +0.000 C 
ENDROOT
BRANCH   2  20
ATOM     20  C   UNL     1       0.794  15.503  21.106  0.00  0.00    +0.000 A 
ATOM     21  C   UNL     1       1.987  16.226  21.047  0.00  0.00    +0.000 A 
ATOM     22  C   UNL     1       2.460  16.870  22.186  0.00  0.00    +0.000 A 
ATOM     23  C   UNL     1       1.684  16.831  23.332  0.00  0.00    +0.000 A 
ATOM     24  N   UNL     1       0.488  16.206  23.405  0.00  0.00    +0.000 NA
ATOM     25  C   UNL     1       0.064  15.562  22.287  0.00  0.00    +0.000 A 
ENDBRANCH   2  20
TORSDOF 1
ENDMDL
