MODEL 1
REMARK VINA RESULT:      -9.2      0.000      0.000
REMARK  Name = 
REMARK  7 active torsions:
REMARK  status: ('A' for Active; 'I' for Inactive)
REMARK    1  A    between atoms: C_4  and  O_5
REMARK    2  A    between atoms: O_5  and  C_6
REMARK    3  A    between atoms: C_6  and  C_7
REMARK    4  A    between atoms: C_19  and  O_20
REMARK    5  A    between atoms: O_20  and  C_21
REMARK    6  A    between atoms: C_21  and  C_22
REMARK    7  A    between atoms: C_25  and  N_26
REMARK                            x       y       z     vdW  Elec       q    Type
REMARK                         _______ _______ _______ _____ _____    ______ ____
ROOT
ATOM      1  O   UNL     1       0.606  12.677  18.872  0.00  0.00    +0.000 OA
ATOM      2  C   UNL     1       0.504  11.779  19.704  0.00  0.00    +0.000 A 
ATOM      3  N   UNL     1      -0.118  12.018  20.902  0.00  0.00    +0.000 NA
ATOM      4  C   UNL     1      -0.219  11.028  21.703  0.00  0.00    +0.000 A 
ATOM      5  C   UNL     1       0.264   9.671  21.506  0.00  0.00    +0.000 A 
ATOM      6  C   UNL     1       0.913   9.453  20.356  0.00  0.00    +0.000 A 
ATOM      7  N   UNL     1       1.025  10.492  19.446  0.00  0.00    +0.000 N 
ATOM      8  C   UNL     1       1.662  10.330  18.150  0.00  0.00    +0.000 C 
ATOM      9  C   UNL     1       2.257   8.974  17.787  0.00  0.00    +0.000 C 
ATOM     10  C   UNL     1       2.137   7.894  18.820  0.00  0.00    +0.000 A 
ATOM     11  C   UNL     1       2.669   6.622  18.518  0.00  0.00    +0.000 A 
ATOM     12  C   UNL     1       2.566   5.567  19.420  0.00  0.00    +0.000 A 
ATOM     13  C   UNL     1       1.998   5.801  20.664  0.00  0.00    +0.000 A 
ATOM     14  C   UNL     1       1.470   7.057  20.966  0.00  0.00    +0.000 A 
ATOM     15  C   UNL     1       1.506   8.124  20.049  0.00  0.00    +0.000 A 
ENDROOT
BRANCH   4  16
ATOM     16  O   UNL     1      -0.813  11.099  22.914  0.00  0.00    +0.000 OA
BRANCH  16  17
ATOM     17  C   UNL     1      -1.507  12.322  23.231  0.00  0.00    +0.000 C 
BRANCH  17  18
ATOM     18  C   UNL     1      -2.997  12.075  22.996  0.00  0.00    +0.000 C 
ATOM     19  C   UNL     1      -3.664  13.125  22.124  0.00  0.00    +0.000 C 
ATOM     20  C   UNL     1      -5.089  13.081  22.617  0.00  0.00    +0.000 C 
ATOM     21  C   UNL     1      -4.905  12.858  24.102  0.00  0.00    +0.000 C 
ATOM     22  O   UNL     1      -3.703  12.095  24.258  0.00  0.00    +0.000 OA
ENDBRANCH  17  18
ENDBRANCH  16  17
ENDBRANCH   4  16
BRANCH  12  23
ATOM     23  O   UNL     1       3.045   4.357  19.001  0.00  0.00    +0.000 OA
BRANCH  23  24
ATOM     24  C   UNL     1       4.450   4.160  19.207  0.00  0.00    +0.000 C 
BRANCH  24  25
ATOM     25  C   UNL     1       5.168   4.305  17.889  0.00  0.00    +0.000 A 
ATOM     26  C   UNL     1       6.514   4.695  17.843  0.00  0.00    +0.000 A 
ATOM     27  C   UNL     1       7.166   4.845  16.617  0.00  0.00    +0.000 A 
ATOM     28  C   UNL     1       6.465   4.598  15.429  0.00  0.00    +0.000 A 
ATOM     29  C   UNL     1       5.133   4.166  15.462  0.00  0.00    +0.000 A 
ATOM     30  C   UNL     1       4.493   4.019  16.692  0.00  0.00    +0.000 A 
BRANCH  28  31
ATOM     31  N   UNL     1       7.125   4.816  14.137  0.00  0.00    +0.000 N 
ATOM     32  O   UNL     1       8.049   5.641  14.094  0.00  0.00    +0.000 OA
ATOM     33  O   UNL     1       6.715   4.169  13.164  0.00  0.00    +0.000 OA
ENDBRANCH  28  31
ENDBRANCH  24  25
ENDBRANCH  23  24
ENDBRANCH  12  23
TORSDOF 7
ENDMDL
MODEL 2
REMARK VINA RESULT:      -9.0      3.135     10.448
REMARK  Name = 
REMARK  7 active torsions:
REMARK  status: ('A' for Active; 'I' for Inactive)
REMARK    1  A    between atoms: C_4  and  O_5
REMARK    2  A    between atoms: O_5  and  C_6
REMARK    3  A    between atoms: C_6  and  C_7
REMARK    4  A    between atoms: C_19  and  O_20
REMARK    5  A    between atoms: O_20  and  C_21
REMARK    6  A    between atoms: C_21  and  C_22
REMARK    7  A    between atoms: C_25  and  N_26
REMARK                            x       y       z     vdW  Elec       q    Type
REMARK                         _______ _______ _______ _____ _____    ______ ____
ROOT
ATOM      1  O   UNL     1       3.115   3.272  20.162  0.00  0.00    +0.000 OA
ATOM      2  C   UNL     1       3.272   4.177  19.346  0.00  0.00    +0.000 A 
ATOM      3  N   UNL     1       4.037   3.970  18.228  0.00  0.00    +0.000 NA
ATOM      4  C   UNL     1       4.125   4.943  17.406  0.00  0.00    +0.000 A 
ATOM      5  C   UNL     1       3.521   6.261  17.518  0.00  0.00    +0.000 A 
ATOM      6  C   UNL     1       2.814   6.476  18.634  0.00  0.00    +0.000 A 
ATOM      7  N   UNL     1       2.671   5.439  19.543  0.00  0.00    +0.000 N 
ATOM      8  C   UNL     1       1.874   5.565  20.751  0.00  0.00    +0.000 C 
ATOM      9  C   UNL     1       1.191   6.896  21.047  0.00  0.00    +0.000 C 
ATOM     10  C   UNL     1       1.405   7.992  20.048  0.00  0.00    +0.000 A 
ATOM     11  C   UNL     1       0.783   9.238  20.284  0.00  0.00    +0.000 A 
ATOM     12  C   UNL     1       0.916  10.291  19.382  0.00  0.00    +0.000 A 
ATOM     13  C   UNL     1       1.737  10.126  18.276  0.00  0.00    +0.000 A 
ATOM     14  C   UNL     1       2.354   8.896  18.039  0.00  0.00    +0.000 A 
ATOM     15  C   UNL     1       2.186   7.798  18.903  0.00  0.00    +0.000 A 
ENDROOT
BRANCH   4  16
ATOM     16  O   UNL     1       4.832   4.894  16.255  0.00  0.00    +0.000 OA
BRANCH  16  17
ATOM     17  C   UNL     1       6.054   4.130  16.272  0.00  0.00    +0.000 C 
BRANCH  17  18
ATOM     18  C   UNL     1       7.173   5.068  16.719  0.00  0.00    +0.000 C 
ATOM     19  C   UNL     1       7.355   5.134  18.226  0.00  0.00    +0.000 C 
ATOM     20  C   UNL     1       7.921   6.520  18.412  0.00  0.00    +0.000 C 
ATOM     21  C   UNL     1       7.163   7.315  17.372  0.00  0.00    +0.000 C 
ATOM     22  O   UNL     1       6.883   6.419  16.291  0.00  0.00    +0.000 OA
ENDBRANCH  17  18
ENDBRANCH  16  17
ENDBRANCH   4  16
BRANCH  12  23
ATOM     23  O   UNL     1       0.212  11.428  19.663  0.00  0.00    +0.000 OA
BRANCH  23  24
ATOM     24  C   UNL     1      -0.282  12.131  18.517  0.00  0.00    +0.000 C 
BRANCH  24  25
ATOM     25  C   UNL     1      -1.766  11.890  18.391  0.00  0.00    +0.000 A 
ATOM     26  C   UNL     1      -2.296  11.247  17.263  0.00  0.00    +0.000 A 
ATOM     27  C   UNL     1      -3.673  11.045  17.147  0.00  0.00    +0.000 A 
ATOM     28  C   UNL     1      -4.523  11.485  18.170  0.00  0.00    +0.000 A 
ATOM     29  C   UNL     1      -4.003  12.088  19.322  0.00  0.00    +0.000 A 
ATOM     30  C   UNL     1      -2.627  12.285  19.427  0.00  0.00    +0.000 A 
BRANCH  28  31
ATOM     31  N   UNL     1      -5.975  11.333  18.024  0.00  0.00    +0.000 N 
ATOM     32  O   UNL     1      -6.579  12.182  17.352  0.00  0.00    +0.000 OA
ATOM     33  O   UNL     1      -6.514  10.370  18.587  0.00  0.00    +0.000 OA
ENDBRANCH  28  31
ENDBRANCH  24  25
ENDBRANCH  23  24
ENDBRANCH  12  23
TORSDOF 7
ENDMDL
MODEL 3
REMARK VINA RESULT:      -9.0      2.104     10.881
REMARK  Name = 
REMARK  7 active torsions:
REMARK  status: ('A' for Active; 'I' for Inactive)
REMARK    1  A    between atoms: C_4  and  O_5
REMARK    2  A    between atoms: O_5  and  C_6
REMARK    3  A    between atoms: C_6  and  C_7
REMARK    4  A    between atoms: C_19  and  O_20
REMARK    5  A    between atoms: O_20  and  C_21
REMARK    6  A    between atoms: C_21  and  C_22
REMARK    7  A    between atoms: C_25  and  N_26
REMARK                            x       y       z     vdW  Elec       q    Type
REMARK                         _______ _______ _______ _____ _____    ______ ____
ROOT
ATOM      1  O   UNL     1       3.431   3.046  19.983  0.00  0.00    +0.000 OA
ATOM      2  C   UNL     1       3.584   3.958  19.174  0.00  0.00    +0.000 A 
ATOM      3  N   UNL     1       4.372   3.772  18.069  0.00  0.00    +0.000 NA
ATOM      4  C   UNL     1       4.455   4.752  17.253  0.00  0.00    +0.000 A 
ATOM      5  C   UNL     1       3.823   6.058  17.362  0.00  0.00    +0.000 A 
ATOM      6  C   UNL     1       3.093   6.252  18.467  0.00  0.00    +0.000 A 
ATOM      7  N   UNL     1       2.955   5.208  19.367  0.00  0.00    +0.000 N 
ATOM      8  C   UNL     1       2.136   5.311  20.563  0.00  0.00    +0.000 C 
ATOM      9  C   UNL     1       1.422   6.626  20.855  0.00  0.00    +0.000 C 
ATOM     10  C   UNL     1       1.631   7.733  19.865  0.00  0.00    +0.000 A 
ATOM     11  C   UNL     1       0.981   8.965  20.096  0.00  0.00    +0.000 A 
ATOM     12  C   UNL     1       1.108  10.024  19.203  0.00  0.00    +0.000 A 
ATOM     13  C   UNL     1       1.951   9.882  18.110  0.00  0.00    +0.000 A 
ATOM     14  C   UNL     1       2.595   8.666  17.877  0.00  0.00    +0.000 A 
ATOM     15  C   UNL     1       2.435   7.560  18.732  0.00  0.00    +0.000 A 
ENDROOT
BRANCH   4  16
ATOM     16  O   UNL     1       5.181   4.723  16.114  0.00  0.00    +0.000 OA
BRANCH  16  17
ATOM     17  C   UNL     1       6.451   4.042  16.167  0.00  0.00    +0.000 C 
BRANCH  17  18
ATOM     18  C   UNL     1       7.469   5.020  16.752  0.00  0.00    +0.000 C 
ATOM     19  C   UNL     1       7.439   5.106  18.268  0.00  0.00    +0.000 C 
ATOM     20  C   UNL     1       7.932   6.510  18.512  0.00  0.00    +0.000 C 
ATOM     21  C   UNL     1       7.301   7.271  17.367  0.00  0.00    +0.000 C 
ATOM     22  O   UNL     1       7.200   6.357  16.269  0.00  0.00    +0.000 OA
ENDBRANCH  17  18
ENDBRANCH  16  17
ENDBRANCH   4  16
BRANCH  12  23
ATOM     23  O   UNL     1       0.378  11.147  19.478  0.00  0.00    +0.000 OA
BRANCH  23  24
ATOM     24  C   UNL     1       0.707  11.792  20.714  0.00  0.00    +0.000 C 
BRANCH  24  25
ATOM     25  C   UNL     1      -0.559  12.043  21.494  0.00  0.00    +0.000 A 
ATOM     26  C   UNL     1      -0.876  11.267  22.618  0.00  0.00    +0.000 A 
ATOM     27  C   UNL     1      -2.060  11.494  23.323  0.00  0.00    +0.000 A 
ATOM     28  C   UNL     1      -2.929  12.510  22.902  0.00  0.00    +0.000 A 
ATOM     29  C   UNL     1      -2.603  13.321  21.809  0.00  0.00    +0.000 A 
ATOM     30  C   UNL     1      -1.418  13.085  21.112  0.00  0.00    +0.000 A 
BRANCH  28  31
ATOM     31  N   UNL     1      -4.204  12.710  23.600  0.00  0.00    +0.000 N 
ATOM     32  O   UNL     1      -4.955  13.604  23.183  0.00  0.00    +0.000 OA
ATOM     33  O   UNL     1      -4.452  11.979  24.569  0.00  0.00    +0.000 OA
ENDBRANCH  28  31
ENDBRANCH  24  25
ENDBRANCH  23  24
ENDBRANCH  12  23
TORSDOF 7
ENDMDL
MODEL 4
REMARK VINA RESULT:      -8.8      1.120      1.472
REMARK  Name = 
REMARK  7 active torsions:
REMARK  status: ('A' for Active; 'I' for Inactive)
REMARK    1  A    between atoms: C_4  and  O_5
REMARK    2  A    between atoms: O_5  and  C_6
REMARK    3  A    between atoms: C_6  and  C_7
REMARK    4  A    between atoms: C_19  and  O_20
REMARK    5  A    between atoms: O_20  and  C_21
REMARK    6  A    between atoms: C_21  and  C_22
REMARK    7  A    between atoms: C_25  and  N_26
REMARK                            x       y       z     vdW  Elec       q    Type
REMARK                         _______ _______ _______ _____ _____    ______ ____
ROOT
ATOM      1  O   UNL     1       1.318  12.158  18.619  0.00  0.00    +0.000 OA
ATOM      2  C   UNL     1       1.138  11.334  19.511  0.00  0.00    +0.000 A 
ATOM      3  N   UNL     1       0.676  11.737  20.737  0.00  0.00    +0.000 NA
ATOM      4  C   UNL     1       0.477  10.820  21.604  0.00  0.00    +0.000 A 
ATOM      5  C   UNL     1       0.698   9.391  21.456  0.00  0.00    +0.000 A 
ATOM      6  C   UNL     1       1.195   9.006  20.274  0.00  0.00    +0.000 A 
ATOM      7  N   UNL     1       1.403   9.964  19.295  0.00  0.00    +0.000 N 
ATOM      8  C   UNL     1       1.884   9.629  17.965  0.00  0.00    +0.000 C 
ATOM      9  C   UNL     1       2.200   8.172  17.642  0.00  0.00    +0.000 C 
ATOM     10  C   UNL     1       1.988   7.182  18.748  0.00  0.00    +0.000 A 
ATOM     11  C   UNL     1       2.263   5.822  18.486  0.00  0.00    +0.000 A 
ATOM     12  C   UNL     1       2.060   4.847  19.458  0.00  0.00    +0.000 A 
ATOM     13  C   UNL     1       1.654   5.238  20.726  0.00  0.00    +0.000 A 
ATOM     14  C   UNL     1       1.381   6.581  20.989  0.00  0.00    +0.000 A 
ATOM     15  C   UNL     1       1.519   7.579  20.006  0.00  0.00    +0.000 A 
ENDROOT
BRANCH   4  16
ATOM     16  O   UNL     1       0.014  11.054  22.853  0.00  0.00    +0.000 OA
BRANCH  16  17
ATOM     17  C   UNL     1      -1.387  10.812  23.085  0.00  0.00    +0.000 C 
BRANCH  17  18
ATOM     18  C   UNL     1      -2.109  12.153  22.958  0.00  0.00    +0.000 C 
ATOM     19  C   UNL     1      -3.321  12.288  23.864  0.00  0.00    +0.000 C 
ATOM     20  C   UNL     1      -4.183  13.255  23.092  0.00  0.00    +0.000 C 
ATOM     21  C   UNL     1      -3.937  12.828  21.662  0.00  0.00    +0.000 C 
ATOM     22  O   UNL     1      -2.599  12.320  21.607  0.00  0.00    +0.000 OA
ENDBRANCH  17  18
ENDBRANCH  16  17
ENDBRANCH   4  16
BRANCH  12  23
ATOM     23  O   UNL     1       2.283   3.552  19.080  0.00  0.00    +0.000 OA
BRANCH  23  24
ATOM     24  C   UNL     1       3.593   3.054  19.378  0.00  0.00    +0.000 C 
BRANCH  24  25
ATOM     25  C   UNL     1       4.603   3.774  18.520  0.00  0.00    +0.000 A 
ATOM     26  C   UNL     1       5.576   4.602  19.097  0.00  0.00    +0.000 A 
ATOM     27  C   UNL     1       6.495   5.279  18.293  0.00  0.00    +0.000 A 
ATOM     28  C   UNL     1       6.443   5.120  16.902  0.00  0.00    +0.000 A 
ATOM     29  C   UNL     1       5.505   4.262  16.316  0.00  0.00    +0.000 A 
ATOM     30  C   UNL     1       4.592   3.590  17.128  0.00  0.00    +0.000 A 
BRANCH  28  31
ATOM     31  N   UNL     1       7.364   5.879  16.049  0.00  0.00    +0.000 N 
ATOM     32  O   UNL     1       7.685   5.381  14.960  0.00  0.00    +0.000 OA
ATOM     33  O   UNL     1       7.775   6.969  16.470  0.00  0.00    +0.000 OA
ENDBRANCH  28  31
ENDBRANCH  24  25
ENDBRANCH  23  24
ENDBRANCH  12  23
TORSDOF 7
ENDMDL
MODEL 5
REMARK VINA RESULT:      -8.7      2.716     10.718
REMARK  Name = 
REMARK  7 active torsions:
REMARK  status: ('A' for Active; 'I' for Inactive)
REMARK    1  A    between atoms: C_4  and  O_5
REMARK    2  A    between atoms: O_5  and  C_6
REMARK    3  A    between atoms: C_6  and  C_7
REMARK    4  A    between atoms: C_19  and  O_20
REMARK    5  A    between atoms: O_20  and  C_21
REMARK    6  A    between atoms: C_21  and  C_22
REMARK    7  A    between atoms: C_25  and  N_26
REMARK                            x       y       z     vdW  Elec       q    Type
REMARK                         _______ _______ _______ _____ _____    ______ ____
ROOT
ATOM      1  O   UNL     1       3.226   3.085  20.051  0.00  0.00    +0.000 OA
ATOM      2  C   UNL     1       3.382   3.994  19.240  0.00  0.00    +0.000 A 
ATOM      3  N   UNL     1       4.142   3.791  18.117  0.00  0.00    +0.000 NA
ATOM      4  C   UNL     1       4.229   4.769  17.300  0.00  0.00    +0.000 A 
ATOM      5  C   UNL     1       3.631   6.088  17.422  0.00  0.00    +0.000 A 
ATOM      6  C   UNL     1       2.929   6.299  18.543  0.00  0.00    +0.000 A 
ATOM      7  N   UNL     1       2.787   5.258  19.446  0.00  0.00    +0.000 N 
ATOM      8  C   UNL     1       1.996   5.379  20.658  0.00  0.00    +0.000 C 
ATOM      9  C   UNL     1       1.319   6.710  20.966  0.00  0.00    +0.000 C 
ATOM     10  C   UNL     1       1.531   7.812  19.971  0.00  0.00    +0.000 A 
ATOM     11  C   UNL     1       0.915   9.059  20.217  0.00  0.00    +0.000 A 
ATOM     12  C   UNL     1       1.048  10.116  19.321  0.00  0.00    +0.000 A 
ATOM     13  C   UNL     1       1.863   9.955  18.210  0.00  0.00    +0.000 A 
ATOM     14  C   UNL     1       2.475   8.724  17.963  0.00  0.00    +0.000 A 
ATOM     15  C   UNL     1       2.307   7.621  18.822  0.00  0.00    +0.000 A 
ENDROOT
BRANCH   4  16
ATOM     16  O   UNL     1       4.931   4.723  16.145  0.00  0.00    +0.000 OA
BRANCH  16  17
ATOM     17  C   UNL     1       6.190   4.023  16.174  0.00  0.00    +0.000 C 
BRANCH  17  18
ATOM     18  C   UNL     1       7.250   5.010  16.660  0.00  0.00    +0.000 C 
ATOM     19  C   UNL     1       7.411   5.045  18.171  0.00  0.00    +0.000 C 
ATOM     20  C   UNL     1       7.897   6.455  18.400  0.00  0.00    +0.000 C 
ATOM     21  C   UNL     1       7.107   7.234  17.372  0.00  0.00    +0.000 C 
ATOM     22  O   UNL     1       6.889   6.354  16.264  0.00  0.00    +0.000 OA
ENDBRANCH  17  18
ENDBRANCH  16  17
ENDBRANCH   4  16
BRANCH  12  23
ATOM     23  O   UNL     1       0.349  11.254  19.612  0.00  0.00    +0.000 OA
BRANCH  23  24
ATOM     24  C   UNL     1      -0.375  11.816  18.510  0.00  0.00    +0.000 C 
BRANCH  24  25
ATOM     25  C   UNL     1      -1.825  11.965  18.897  0.00  0.00    +0.000 A 
ATOM     26  C   UNL     1      -2.187  12.597  20.096  0.00  0.00    +0.000 A 
ATOM     27  C   UNL     1      -3.532  12.714  20.455  0.00  0.00    +0.000 A 
ATOM     28  C   UNL     1      -4.520  12.200  19.605  0.00  0.00    +0.000 A 
ATOM     29  C   UNL     1      -4.175  11.606  18.385  0.00  0.00    +0.000 A 
ATOM     30  C   UNL     1      -2.829  11.495  18.036  0.00  0.00    +0.000 A 
BRANCH  28  31
ATOM     31  N   UNL     1      -5.929  12.262  20.007  0.00  0.00    +0.000 N 
ATOM     32  O   UNL     1      -6.273  11.615  21.007  0.00  0.00    +0.000 OA
ATOM     33  O   UNL     1      -6.695  12.952  19.320  0.00  0.00    +0.000 OA
ENDBRANCH  28  31
ENDBRANCH  24  25
ENDBRANCH  23  24
ENDBRANCH  12  23
TORSDOF 7
ENDMDL
MODEL 6
REMARK VINA RESULT:      -8.7      2.196     10.875
REMARK  Name = 
REMARK  7 active torsions:
REMARK  status: ('A' for Active; 'I' for Inactive)
REMARK    1  A    between atoms: C_4  and  O_5
REMARK    2  A    between atoms: O_5  and  C_6
REMARK    3  A    between atoms: C_6  and  C_7
REMARK    4  A    between atoms: C_19  and  O_20
REMARK    5  A    between atoms: O_20  and  C_21
REMARK    6  A    between atoms: C_21  and  C_22
REMARK    7  A    between atoms: C_25  and  N_26
REMARK                            x       y       z     vdW  Elec       q    Type
REMARK                         _______ _______ _______ _____ _____    ______ ____
ROOT
ATOM      1  O   UNL     1       3.075   3.484  20.321  0.00  0.00    +0.000 OA
ATOM      2  C   UNL     1       3.255   4.345  19.464  0.00  0.00    +0.000 A 
ATOM      3  N   UNL     1       4.033   4.073  18.369  0.00  0.00    +0.000 NA
ATOM      4  C   UNL     1       4.145   5.004  17.500  0.00  0.00    +0.000 A 
ATOM      5  C   UNL     1       3.558   6.333  17.538  0.00  0.00    +0.000 A 
ATOM      6  C   UNL     1       2.837   6.611  18.632  0.00  0.00    +0.000 A 
ATOM      7  N   UNL     1       2.668   5.623  19.589  0.00  0.00    +0.000 N 
ATOM      8  C   UNL     1       1.856   5.819  20.778  0.00  0.00    +0.000 C 
ATOM      9  C   UNL     1       1.187   7.171  20.998  0.00  0.00    +0.000 C 
ATOM     10  C   UNL     1       1.429   8.214  19.949  0.00  0.00    +0.000 A 
ATOM     11  C   UNL     1       0.821   9.478  20.113  0.00  0.00    +0.000 A 
ATOM     12  C   UNL     1       0.980  10.482  19.163  0.00  0.00    +0.000 A 
ATOM     13  C   UNL     1       1.815  10.253  18.078  0.00  0.00    +0.000 A 
ATOM     14  C   UNL     1       2.418   9.005  17.912  0.00  0.00    +0.000 A 
ATOM     15  C   UNL     1       2.224   7.953  18.826  0.00  0.00    +0.000 A 
ENDROOT
BRANCH   4  16
ATOM     16  O   UNL     1       4.867   4.888  16.364  0.00  0.00    +0.000 OA
BRANCH  16  17
ATOM     17  C   UNL     1       6.102   4.150  16.447  0.00  0.00    +0.000 C 
BRANCH  17  18
ATOM     18  C   UNL     1       7.203   5.142  16.818  0.00  0.00    +0.000 C 
ATOM     19  C   UNL     1       7.414   5.296  18.315  0.00  0.00    +0.000 C 
ATOM     20  C   UNL     1       7.944   6.705  18.413  0.00  0.00    +0.000 C 
ATOM     21  C   UNL     1       7.142   7.420  17.348  0.00  0.00    +0.000 C 
ATOM     22  O   UNL     1       6.865   6.459  16.324  0.00  0.00    +0.000 OA
ENDBRANCH  17  18
ENDBRANCH  16  17
ENDBRANCH   4  16
BRANCH  12  23
ATOM     23  O   UNL     1       0.288  11.642  19.378  0.00  0.00    +0.000 OA
BRANCH  23  24
ATOM     24  C   UNL     1      -1.051  11.647  18.869  0.00  0.00    +0.000 C 
BRANCH  24  25
ATOM     25  C   UNL     1      -1.998  12.043  19.975  0.00  0.00    +0.000 A 
ATOM     26  C   UNL     1      -1.567  12.083  21.309  0.00  0.00    +0.000 A 
ATOM     27  C   UNL     1      -2.456  12.433  22.328  0.00  0.00    +0.000 A 
ATOM     28  C   UNL     1      -3.783  12.749  22.008  0.00  0.00    +0.000 A 
ATOM     29  C   UNL     1      -4.214  12.756  20.676  0.00  0.00    +0.000 A 
ATOM     30  C   UNL     1      -3.318  12.405  19.666  0.00  0.00    +0.000 A 
BRANCH  28  31
ATOM     31  N   UNL     1      -4.736  13.054  23.080  0.00  0.00    +0.000 N 
ATOM     32  O   UNL     1      -4.491  14.024  23.812  0.00  0.00    +0.000 OA
ATOM     33  O   UNL     1      -5.726  12.319  23.197  0.00  0.00    +0.000 OA
ENDBRANCH  28  31
ENDBRANCH  24  25
ENDBRANCH  23  24
ENDBRANCH  12  23
TORSDOF 7
ENDMDL
MODEL 7
REMARK VINA RESULT:      -8.5      2.239     11.433
REMARK  Name = 
REMARK  7 active torsions:
REMARK  status: ('A' for Active; 'I' for Inactive)
REMARK    1  A    between atoms: C_4  and  O_5
REMARK    2  A    between atoms: O_5  and  C_6
REMARK    3  A    between atoms: C_6  and  C_7
REMARK    4  A    between atoms: C_19  and  O_20
REMARK    5  A    between atoms: O_20  and  C_21
REMARK    6  A    between atoms: C_21  and  C_22
REMARK    7  A    between atoms: C_25  and  N_26
REMARK                            x       y       z     vdW  Elec       q    Type
REMARK                         _______ _______ _______ _____ _____    ______ ____
ROOT
ATOM      1  O   UNL     1       4.573   2.707  19.926  0.00  0.00    +0.000 OA
ATOM      2  C   UNL     1       4.633   3.669  19.165  0.00  0.00    +0.000 A 
ATOM      3  N   UNL     1       5.528   3.670  18.127  0.00  0.00    +0.000 NA
ATOM      4  C   UNL     1       5.509   4.687  17.354  0.00  0.00    +0.000 A 
ATOM      5  C   UNL     1       4.658   5.862  17.450  0.00  0.00    +0.000 A 
ATOM      6  C   UNL     1       3.818   5.879  18.492  0.00  0.00    +0.000 A 
ATOM      7  N   UNL     1       3.787   4.786  19.342  0.00  0.00    +0.000 N 
ATOM      8  C   UNL     1       2.868   4.695  20.463  0.00  0.00    +0.000 C 
ATOM      9  C   UNL     1       1.919   5.857  20.734  0.00  0.00    +0.000 C 
ATOM     10  C   UNL     1       2.016   7.029  19.803  0.00  0.00    +0.000 A 
ATOM     11  C   UNL     1       1.150   8.123  20.017  0.00  0.00    +0.000 A 
ATOM     12  C   UNL     1       1.167   9.230  19.173  0.00  0.00    +0.000 A 
ATOM     13  C   UNL     1       2.108   9.282  18.154  0.00  0.00    +0.000 A 
ATOM     14  C   UNL     1       2.967   8.202  17.940  0.00  0.00    +0.000 A 
ATOM     15  C   UNL     1       2.928   7.046  18.741  0.00  0.00    +0.000 A 
ENDROOT
BRANCH   4  16
ATOM     16  O   UNL     1       6.321   4.833  16.284  0.00  0.00    +0.000 OA
BRANCH  16  17
ATOM     17  C   UNL     1       6.240   3.821  15.260  0.00  0.00    +0.000 C 
BRANCH  17  18
ATOM     18  C   UNL     1       6.292   4.533  13.909  0.00  0.00    +0.000 C 
ATOM     19  C   UNL     1       6.556   3.606  12.735  0.00  0.00    +0.000 C 
ATOM     20  C   UNL     1       7.236   4.529  11.755  0.00  0.00    +0.000 C 
ATOM     21  C   UNL     1       8.076   5.397  12.665  0.00  0.00    +0.000 C 
ATOM     22  O   UNL     1       7.367   5.501  13.905  0.00  0.00    +0.000 OA
ENDBRANCH  17  18
ENDBRANCH  16  17
ENDBRANCH   4  16
BRANCH  12  23
ATOM     23  O   UNL     1       0.237  10.201  19.419  0.00  0.00    +0.000 OA
BRANCH  23  24
ATOM     24  C   UNL     1       0.636  11.188  20.378  0.00  0.00    +0.000 C 
BRANCH  24  25
ATOM     25  C   UNL     1      -0.563  11.592  21.200  0.00  0.00    +0.000 A 
ATOM     26  C   UNL     1      -0.767  11.060  22.481  0.00  0.00    +0.000 A 
ATOM     27  C   UNL     1      -1.889  11.425  23.228  0.00  0.00    +0.000 A 
ATOM     28  C   UNL     1      -2.810  12.333  22.689  0.00  0.00    +0.000 A 
ATOM     29  C   UNL     1      -2.595  12.906  21.429  0.00  0.00    +0.000 A 
ATOM     30  C   UNL     1      -1.471  12.534  20.693  0.00  0.00    +0.000 A 
BRANCH  28  31
ATOM     31  N   UNL     1      -4.023  12.671  23.441  0.00  0.00    +0.000 N 
ATOM     32  O   UNL     1      -4.639  13.695  23.114  0.00  0.00    +0.000 OA
ATOM     33  O   UNL     1      -4.357  11.916  24.366  0.00  0.00    +0.000 OA
ENDBRANCH  28  31
ENDBRANCH  24  25
ENDBRANCH  23  24
ENDBRANCH  12  23
TORSDOF 7
ENDMDL
MODEL 8
REMARK VINA RESULT:      -8.5      2.224     11.527
REMARK  Name = 
REMARK  7 active torsions:
REMARK  status: ('A' for Active; 'I' for Inactive)
REMARK    1  A    between atoms: C_4  and  O_5
REMARK    2  A    between atoms: O_5  and  C_6
REMARK    3  A    between atoms: C_6  and  C_7
REMARK    4  A    between atoms: C_19  and  O_20
REMARK    5  A    between atoms: O_20  and  C_21
REMARK    6  A    between atoms: C_21  and  C_22
REMARK    7  A    between atoms: C_25  and  N_26
REMARK                            x       y       z     vdW  Elec       q    Type
REMARK                         _______ _______ _______ _____ _____    ______ ____
ROOT
ATOM      1  O   UNL     1       4.450   3.182  19.337  0.00  0.00    +0.000 OA
ATOM      2  C   UNL     1       4.361   4.159  18.598  0.00  0.00    +0.000 A 
ATOM      3  N   UNL     1       5.046   4.189  17.411  0.00  0.00    +0.000 NA
ATOM      4  C   UNL     1       4.877   5.221  16.677  0.00  0.00    +0.000 A 
ATOM      5  C   UNL     1       4.053   6.386  16.956  0.00  0.00    +0.000 A 
ATOM      6  C   UNL     1       3.423   6.375  18.137  0.00  0.00    +0.000 A 
ATOM      7  N   UNL     1       3.558   5.265  18.955  0.00  0.00    +0.000 N 
ATOM      8  C   UNL     1       2.865   5.143  20.226  0.00  0.00    +0.000 C 
ATOM      9  C   UNL     1       1.979   6.292  20.694  0.00  0.00    +0.000 C 
ATOM     10  C   UNL     1       1.894   7.482  19.787  0.00  0.00    +0.000 A 
ATOM     11  C   UNL     1       1.077   8.564  20.182  0.00  0.00    +0.000 A 
ATOM     12  C   UNL     1       0.930   9.687  19.374  0.00  0.00    +0.000 A 
ATOM     13  C   UNL     1       1.663   9.768  18.198  0.00  0.00    +0.000 A 
ATOM     14  C   UNL     1       2.471   8.701  17.804  0.00  0.00    +0.000 A 
ATOM     15  C   UNL     1       2.589   7.528  18.573  0.00  0.00    +0.000 A 
ENDROOT
BRANCH   4  16
ATOM     16  O   UNL     1       5.472   5.396  15.477  0.00  0.00    +0.000 OA
BRANCH  16  17
ATOM     17  C   UNL     1       6.900   5.212  15.424  0.00  0.00    +0.000 C 
BRANCH  17  18
ATOM     18  C   UNL     1       7.200   4.300  14.234  0.00  0.00    +0.000 C 
ATOM     19  C   UNL     1       7.536   5.049  12.955  0.00  0.00    +0.000 C 
ATOM     20  C   UNL     1       7.091   4.072  11.895  0.00  0.00    +0.000 C 
ATOM     21  C   UNL     1       5.843   3.480  12.513  0.00  0.00    +0.000 C 
ATOM     22  O   UNL     1       6.040   3.491  13.932  0.00  0.00    +0.000 OA
ENDBRANCH  17  18
ENDBRANCH  16  17
ENDBRANCH   4  16
BRANCH  12  23
ATOM     23  O   UNL     1       0.057  10.645  19.811  0.00  0.00    +0.000 OA
BRANCH  23  24
ATOM     24  C   UNL     1       0.188  10.993  21.195  0.00  0.00    +0.000 C 
BRANCH  24  25
ATOM     25  C   UNL     1      -1.114  11.576  21.684  0.00  0.00    +0.000 A 
ATOM     26  C   UNL     1      -1.498  11.449  23.026  0.00  0.00    +0.000 A 
ATOM     27  C   UNL     1      -2.714  11.976  23.466  0.00  0.00    +0.000 A 
ATOM     28  C   UNL     1      -3.548  12.639  22.555  0.00  0.00    +0.000 A 
ATOM     29  C   UNL     1      -3.156  12.811  21.223  0.00  0.00    +0.000 A 
ATOM     30  C   UNL     1      -1.939  12.281  20.794  0.00  0.00    +0.000 A 
BRANCH  28  31
ATOM     31  N   UNL     1      -4.855  13.138  22.997  0.00  0.00    +0.000 N 
ATOM     32  O   UNL     1      -5.170  14.293  22.678  0.00  0.00    +0.000 OA
ATOM     33  O   UNL     1      -5.565  12.377  23.671  0.00  0.00    +0.000 OA
ENDBRANCH  28  31
ENDBRANCH  24  25
ENDBRANCH  23  24
ENDBRANCH  12  23
TORSDOF 7
ENDMDL
MODEL 9
REMARK VINA RESULT:      -8.4      3.367     10.435
REMARK  Name = 
REMARK  7 active torsions:
REMARK  status: ('A' for Active; 'I' for Inactive)
REMARK    1  A    between atoms: C_4  and  O_5
REMARK    2  A    between atoms: O_5  and  C_6
REMARK    3  A    between atoms: C_6  and  C_7
REMARK    4  A    between atoms: C_19  and  O_20
REMARK    5  A    between atoms: O_20  and  C_21
REMARK    6  A    between atoms: C_21  and  C_22
REMARK    7  A    between atoms: C_25  and  N_26
REMARK                            x       y       z     vdW  Elec       q    Type
REMARK                         _______ _______ _______ _____ _____    ______ ____
ROOT
ATOM      1  O   UNL     1       3.376   2.758  20.469  0.00  0.00    +0.000 OA
ATOM      2  C   UNL     1       3.557   3.554  19.551  0.00  0.00    +0.000 A 
ATOM      3  N   UNL     1       4.311   3.192  18.465  0.00  0.00    +0.000 NA
ATOM      4  C   UNL     1       4.426   4.058  17.533  0.00  0.00    +0.000 A 
ATOM      5  C   UNL     1       3.865   5.398  17.488  0.00  0.00    +0.000 A 
ATOM      6  C   UNL     1       3.170   5.766  18.572  0.00  0.00    +0.000 A 
ATOM      7  N   UNL     1       2.998   4.850  19.597  0.00  0.00    +0.000 N 
ATOM      8  C   UNL     1       2.211   5.143  20.783  0.00  0.00    +0.000 C 
ATOM      9  C   UNL     1       1.572   6.521  20.920  0.00  0.00    +0.000 C 
ATOM     10  C   UNL     1       1.816   7.484  19.797  0.00  0.00    +0.000 A 
ATOM     11  C   UNL     1       1.235   8.769  19.884  0.00  0.00    +0.000 A 
ATOM     12  C   UNL     1       1.397   9.702  18.863  0.00  0.00    +0.000 A 
ATOM     13  C   UNL     1       2.208   9.381  17.784  0.00  0.00    +0.000 A 
ATOM     14  C   UNL     1       2.784   8.113  17.694  0.00  0.00    +0.000 A 
ATOM     15  C   UNL     1       2.586   7.130  18.682  0.00  0.00    +0.000 A 
ENDROOT
BRANCH   4  16
ATOM     16  O   UNL     1       5.126   3.850  16.396  0.00  0.00    +0.000 OA
BRANCH  16  17
ATOM     17  C   UNL     1       6.233   4.735  16.140  0.00  0.00    +0.000 C 
BRANCH  17  18
ATOM     18  C   UNL     1       6.237   5.040  14.642  0.00  0.00    +0.000 C 
ATOM     19  C   UNL     1       6.016   3.820  13.765  0.00  0.00    +0.000 C 
ATOM     20  C   UNL     1       6.737   4.210  12.499  0.00  0.00    +0.000 C 
ATOM     21  C   UNL     1       7.935   4.962  13.035  0.00  0.00    +0.000 C 
ATOM     22  O   UNL     1       7.520   5.585  14.255  0.00  0.00    +0.000 OA
ENDBRANCH  17  18
ENDBRANCH  16  17
ENDBRANCH   4  16
BRANCH  12  23
ATOM     23  O   UNL     1       0.732  10.887  19.008  0.00  0.00    +0.000 OA
BRANCH  23  24
ATOM     24  C   UNL     1       1.040  11.608  20.208  0.00  0.00    +0.000 C 
BRANCH  24  25
ATOM     25  C   UNL     1       1.857  12.826  19.856  0.00  0.00    +0.000 A 
ATOM     26  C   UNL     1       2.464  13.597  20.858  0.00  0.00    +0.000 A 
ATOM     27  C   UNL     1       3.204  14.734  20.525  0.00  0.00    +0.000 A 
ATOM     28  C   UNL     1       3.340  15.097  19.178  0.00  0.00    +0.000 A 
ATOM     29  C   UNL     1       2.776  14.312  18.166  0.00  0.00    +0.000 A 
ATOM     30  C   UNL     1       2.040  13.179  18.510  0.00  0.00    +0.000 A 
BRANCH  28  31
ATOM     31  N   UNL     1       4.061  16.325  18.827  0.00  0.00    +0.000 N 
ATOM     32  O   UNL     1       5.087  16.216  18.140  0.00  0.00    +0.000 OA
ATOM     33  O   UNL     1       3.606  17.400  19.243  0.00  0.00    +0.000 OA
ENDBRANCH  28  31
ENDBRANCH  24  25
ENDBRANCH  23  24
ENDBRANCH  12  23
TORSDOF 7
ENDMDL
