MODEL 1
REMARK VINA RESULT:      -7.3      0.000      0.000
REMARK  Name = 
REMARK  8 active torsions:
REMARK  status: ('A' for Active; 'I' for Inactive)
REMARK    1  A    between atoms: C_1  and  C_2
REMARK    2  A    between atoms: C_2  and  C_3
REMARK    3  A    between atoms: C_2  and  O_4
REMARK    4  A    between atoms: O_4  and  C_5
REMARK    5  A    between atoms: C_5  and  C_6
REMARK    6  A    between atoms: C_6  and  C_7
REMARK    7  A    between atoms: C_7  and  C_9
REMARK    8  A    between atoms: C_12  and  N_13
REMARK                            x       y       z     vdW  Elec       q    Type
REMARK                         _______ _______ _______ _____ _____    ______ ____
ROOT
ATOM      1  C   UNL     1       4.875   5.543  17.074  0.00  0.00    +0.000 C 
ATOM      2  O   UNL     1       4.574   6.607  16.528  0.00  0.00    +0.000 OA
ENDROOT
BRANCH   1   3
ATOM      3  C   UNL     1       3.766   4.779  17.768  0.00  0.00    +0.000 A 
ATOM      4  C   UNL     1       3.267   3.553  17.314  0.00  0.00    +0.000 A 
ATOM      5  C   UNL     1       2.165   2.950  17.928  0.00  0.00    +0.000 A 
ATOM      6  C   UNL     1       1.581   3.509  19.065  0.00  0.00    +0.000 A 
ATOM      7  C   UNL     1       2.095   4.731  19.535  0.00  0.00    +0.000 A 
ATOM      8 CL   UNL     1       1.402   5.489  20.928  0.00  0.00    +0.000 Cl
ATOM      9  C   UNL     1       3.179   5.355  18.904  0.00  0.00    +0.000 A 
BRANCH   6  10
ATOM     10  N   UNL     1       0.380   2.965  19.543  0.00  0.00    +0.000 N 
ATOM     11  H   UNL     1       0.473   2.078  20.029  0.00  0.00    +0.000 HD
ATOM     12  H   UNL     1      -0.188   3.639  20.052  0.00  0.00    +0.000 HD
ENDBRANCH   6  10
ENDBRANCH   1   3
BRANCH   1  13
ATOM     13  C   UNL     1       6.336   4.993  17.046  0.00  0.00    +0.000 C 
ATOM     14  C   UNL     1       7.385   6.118  16.985  0.00  0.00    +0.000 C 
ATOM     15  C   UNL     1       7.586   6.579  18.419  0.00  0.00    +0.000 C 
ATOM     16  C   UNL     1       7.001   5.474  19.277  0.00  0.00    +0.000 C 
ATOM     17  N   UNL     1       6.663   4.382  18.363  0.00  0.00    +0.000 NA
ATOM     18  H   UNL     1       5.901   3.839  18.756  0.00  0.00    +0.000 HD
BRANCH  13  19
ATOM     19  C   UNL     1       6.519   4.096  15.788  0.00  0.00    +0.000 C 
BRANCH  19  20
ATOM     20  O   UNL     1       7.439   4.659  14.847  0.00  0.00    +0.000 OA
BRANCH  20  22
ATOM     21  C   UNL     1       8.003   5.356  12.639  0.00  0.00    +0.000 C 
ATOM     22  C   UNL     1       6.871   4.900  13.555  0.00  0.00    +0.000 C 
ATOM     23  C   UNL     1       6.223   3.641  12.984  0.00  0.00    +0.000 C 
ENDBRANCH  20  22
ENDBRANCH  19  20
ENDBRANCH  13  19
ENDBRANCH   1  13
TORSDOF 6
ENDMDL
MODEL 2
REMARK VINA RESULT:      -7.2      1.336      1.889
REMARK  Name = 
REMARK  8 active torsions:
REMARK  status: ('A' for Active; 'I' for Inactive)
REMARK    1  A    between atoms: C_1  and  C_2
REMARK    2  A    between atoms: C_2  and  C_3
REMARK    3  A    between atoms: C_2  and  O_4
REMARK    4  A    between atoms: O_4  and  C_5
REMARK    5  A    between atoms: C_5  and  C_6
REMARK    6  A    between atoms: C_6  and  C_7
REMARK    7  A    between atoms: C_7  and  C_9
REMARK    8  A    between atoms: C_12  and  N_13
REMARK                            x       y       z     vdW  Elec       q    Type
REMARK                         _______ _______ _______ _____ _____    ______ ____
ROOT
ATOM      1  C   UNL     1       4.420   5.688  17.540  0.00  0.00    +0.000 C 
ATOM      2  O   UNL     1       4.115   6.758  17.008  0.00  0.00    +0.000 OA
ENDROOT
BRANCH   1   3
ATOM      3  C   UNL     1       3.437   5.098  18.529  0.00  0.00    +0.000 A 
ATOM      4  C   UNL     1       3.309   5.536  19.851  0.00  0.00    +0.000 A 
ATOM      5  C   UNL     1       2.466   4.878  20.752  0.00  0.00    +0.000 A 
ATOM      6  C   UNL     1       1.663   3.815  20.339  0.00  0.00    +0.000 A 
ATOM      7  C   UNL     1       1.774   3.386  19.005  0.00  0.00    +0.000 A 
ATOM      8 CL   UNL     1       0.822   2.059  18.434  0.00  0.00    +0.000 Cl
ATOM      9  C   UNL     1       2.641   4.023  18.107  0.00  0.00    +0.000 A 
BRANCH   6  10
ATOM     10  N   UNL     1       0.966   3.080  21.309  0.00  0.00    +0.000 N 
ATOM     11  H   UNL     1       0.335   3.624  21.890  0.00  0.00    +0.000 HD
ATOM     12  H   UNL     1       0.535   2.236  20.936  0.00  0.00    +0.000 HD
ENDBRANCH   6  10
ENDBRANCH   1   3
BRANCH   1  13
ATOM     13  C   UNL     1       5.759   4.960  17.204  0.00  0.00    +0.000 C 
ATOM     14  C   UNL     1       6.884   5.943  16.830  0.00  0.00    +0.000 C 
ATOM     15  C   UNL     1       7.474   6.420  18.147  0.00  0.00    +0.000 C 
ATOM     16  C   UNL     1       6.991   5.424  19.183  0.00  0.00    +0.000 C 
ATOM     17  N   UNL     1       6.321   4.355  18.441  0.00  0.00    +0.000 NA
ATOM     18  H   UNL     1       5.619   3.924  19.034  0.00  0.00    +0.000 HD
BRANCH  13  19
ATOM     19  C   UNL     1       5.532   4.007  15.994  0.00  0.00    +0.000 C 
BRANCH  19  20
ATOM     20  O   UNL     1       5.620   4.690  14.739  0.00  0.00    +0.000 OA
BRANCH  20  22
ATOM     21  C   UNL     1       5.563   3.509  12.670  0.00  0.00    +0.000 C 
ATOM     22  C   UNL     1       6.463   4.037  13.783  0.00  0.00    +0.000 C 
ATOM     23  C   UNL     1       7.495   4.999  13.197  0.00  0.00    +0.000 C 
ENDBRANCH  20  22
ENDBRANCH  19  20
ENDBRANCH  13  19
ENDBRANCH   1  13
TORSDOF 6
ENDMDL
MODEL 3
REMARK VINA RESULT:      -7.1      1.514      1.987
REMARK  Name = 
REMARK  8 active torsions:
REMARK  status: ('A' for Active; 'I' for Inactive)
REMARK    1  A    between atoms: C_1  and  C_2
REMARK    2  A    between atoms: C_2  and  C_3
REMARK    3  A    between atoms: C_2  and  O_4
REMARK    4  A    between atoms: O_4  and  C_5
REMARK    5  A    between atoms: C_5  and  C_6
REMARK    6  A    between atoms: C_6  and  C_7
REMARK    7  A    between atoms: C_7  and  C_9
REMARK    8  A    between atoms: C_12  and  N_13
REMARK                            x       y       z     vdW  Elec       q    Type
REMARK                         _______ _______ _______ _____ _____    ______ ____
ROOT
ATOM      1  C   UNL     1       6.012   4.340  17.770  0.00  0.00    +0.000 C 
ATOM      2  O   UNL     1       6.932   4.201  18.580  0.00  0.00    +0.000 OA
ENDROOT
BRANCH   1   3
ATOM      3  C   UNL     1       4.651   3.806  18.165  0.00  0.00    +0.000 A 
ATOM      4  C   UNL     1       4.008   2.755  17.504  0.00  0.00    +0.000 A 
ATOM      5  C   UNL     1       2.703   2.381  17.839  0.00  0.00    +0.000 A 
ATOM      6  C   UNL     1       2.032   2.988  18.901  0.00  0.00    +0.000 A 
ATOM      7  C   UNL     1       2.685   4.031  19.581  0.00  0.00    +0.000 A 
ATOM      8 CL   UNL     1       1.900   4.842  20.893  0.00  0.00    +0.000 Cl
ATOM      9  C   UNL     1       3.981   4.431  19.227  0.00  0.00    +0.000 A 
BRANCH   6  10
ATOM     10  N   UNL     1       0.672   2.702  19.091  0.00  0.00    +0.000 N 
ATOM     11  H   UNL     1       0.101   2.750  18.253  0.00  0.00    +0.000 HD
ATOM     12  H   UNL     1       0.516   1.853  19.631  0.00  0.00    +0.000 HD
ENDBRANCH   6  10
ENDBRANCH   1   3
BRANCH   1  13
ATOM     13  C   UNL     1       6.232   5.046  16.395  0.00  0.00    +0.000 C 
ATOM     14  C   UNL     1       5.040   5.934  15.995  0.00  0.00    +0.000 C 
ATOM     15  C   UNL     1       5.249   7.258  16.709  0.00  0.00    +0.000 C 
ATOM     16  C   UNL     1       6.703   7.255  17.136  0.00  0.00    +0.000 C 
ATOM     17  N   UNL     1       7.305   6.068  16.527  0.00  0.00    +0.000 NA
ATOM     18  H   UNL     1       8.088   5.760  17.094  0.00  0.00    +0.000 HD
BRANCH  13  19
ATOM     19  C   UNL     1       6.420   3.965  15.291  0.00  0.00    +0.000 C 
BRANCH  19  20
ATOM     20  O   UNL     1       5.733   4.300  14.080  0.00  0.00    +0.000 OA
BRANCH  20  22
ATOM     21  C   UNL     1       5.018   3.306  12.036  0.00  0.00    +0.000 C 
ATOM     22  C   UNL     1       6.220   3.603  12.927  0.00  0.00    +0.000 C 
ATOM     23  C   UNL     1       7.239   4.440  12.156  0.00  0.00    +0.000 C 
ENDBRANCH  20  22
ENDBRANCH  19  20
ENDBRANCH  13  19
ENDBRANCH   1  13
TORSDOF 6
ENDMDL
MODEL 4
REMARK VINA RESULT:      -7.0      2.747      3.968
REMARK  Name = 
REMARK  8 active torsions:
REMARK  status: ('A' for Active; 'I' for Inactive)
REMARK    1  A    between atoms: C_1  and  C_2
REMARK    2  A    between atoms: C_2  and  C_3
REMARK    3  A    between atoms: C_2  and  O_4
REMARK    4  A    between atoms: O_4  and  C_5
REMARK    5  A    between atoms: C_5  and  C_6
REMARK    6  A    between atoms: C_6  and  C_7
REMARK    7  A    between atoms: C_7  and  C_9
REMARK    8  A    between atoms: C_12  and  N_13
REMARK                            x       y       z     vdW  Elec       q    Type
REMARK                         _______ _______ _______ _____ _____    ______ ____
ROOT
ATOM      1  C   UNL     1       2.579   4.093  17.841  0.00  0.00    +0.000 C 
ATOM      2  O   UNL     1       1.603   3.609  17.265  0.00  0.00    +0.000 OA
ENDROOT
BRANCH   1   3
ATOM      3  C   UNL     1       2.347   5.330  18.684  0.00  0.00    +0.000 A 
ATOM      4  C   UNL     1       1.991   5.292  20.036  0.00  0.00    +0.000 A 
ATOM      5  C   UNL     1       1.677   6.463  20.733  0.00  0.00    +0.000 A 
ATOM      6  C   UNL     1       1.792   7.713  20.126  0.00  0.00    +0.000 A 
ATOM      7  C   UNL     1       2.170   7.755  18.773  0.00  0.00    +0.000 A 
ATOM      8 CL   UNL     1       2.309   9.273  17.953  0.00  0.00    +0.000 Cl
ATOM      9  C   UNL     1       2.454   6.582  18.060  0.00  0.00    +0.000 A 
BRANCH   6  10
ATOM     10  N   UNL     1       1.306   8.840  20.806  0.00  0.00    +0.000 N 
ATOM     11  H   UNL     1       2.017   9.494  21.117  0.00  0.00    +0.000 HD
ATOM     12  H   UNL     1       0.533   9.293  20.323  0.00  0.00    +0.000 HD
ENDBRANCH   6  10
ENDBRANCH   1   3
BRANCH   1  13
ATOM     13  C   UNL     1       3.999   3.454  17.722  0.00  0.00    +0.000 C 
ATOM     14  C   UNL     1       4.836   3.645  19.000  0.00  0.00    +0.000 C 
ATOM     15  C   UNL     1       4.415   2.532  19.944  0.00  0.00    +0.000 C 
ATOM     16  C   UNL     1       3.697   1.521  19.072  0.00  0.00    +0.000 C 
ATOM     17  N   UNL     1       3.876   1.972  17.691  0.00  0.00    +0.000 NA
ATOM     18  H   UNL     1       3.100   1.643  17.127  0.00  0.00    +0.000 HD
BRANCH  13  19
ATOM     19  C   UNL     1       4.761   4.123  16.542  0.00  0.00    +0.000 C 
BRANCH  19  20
ATOM     20  O   UNL     1       6.107   4.468  16.890  0.00  0.00    +0.000 OA
BRANCH  20  22
ATOM     21  C   UNL     1       5.303   6.431  15.805  0.00  0.00    +0.000 C 
ATOM     22  C   UNL     1       6.537   5.727  16.359  0.00  0.00    +0.000 C 
ATOM     23  C   UNL     1       7.186   6.596  17.435  0.00  0.00    +0.000 C 
ENDBRANCH  20  22
ENDBRANCH  19  20
ENDBRANCH  13  19
ENDBRANCH   1  13
TORSDOF 6
ENDMDL
MODEL 5
REMARK VINA RESULT:      -6.9      3.080      5.950
REMARK  Name = 
REMARK  8 active torsions:
REMARK  status: ('A' for Active; 'I' for Inactive)
REMARK    1  A    between atoms: C_1  and  C_2
REMARK    2  A    between atoms: C_2  and  C_3
REMARK    3  A    between atoms: C_2  and  O_4
REMARK    4  A    between atoms: O_4  and  C_5
REMARK    5  A    between atoms: C_5  and  C_6
REMARK    6  A    between atoms: C_6  and  C_7
REMARK    7  A    between atoms: C_7  and  C_9
REMARK    8  A    between atoms: C_12  and  N_13
REMARK                            x       y       z     vdW  Elec       q    Type
REMARK                         _______ _______ _______ _____ _____    ______ ____
ROOT
ATOM      1  C   UNL     1       3.309   3.240  18.846  0.00  0.00    +0.000 C 
ATOM      2  O   UNL     1       3.223   2.012  18.923  0.00  0.00    +0.000 OA
ENDROOT
BRANCH   1   3
ATOM      3  C   UNL     1       4.508   3.809  18.115  0.00  0.00    +0.000 A 
ATOM      4  C   UNL     1       5.589   4.420  18.758  0.00  0.00    +0.000 A 
ATOM      5  C   UNL     1       6.613   5.030  18.027  0.00  0.00    +0.000 A 
ATOM      6  C   UNL     1       6.632   4.974  16.633  0.00  0.00    +0.000 A 
ATOM      7  C   UNL     1       5.557   4.341  15.986  0.00  0.00    +0.000 A 
ATOM      8 CL   UNL     1       5.508   4.255  14.258  0.00  0.00    +0.000 Cl
ATOM      9  C   UNL     1       4.512   3.756  16.714  0.00  0.00    +0.000 A 
BRANCH   6  10
ATOM     10  N   UNL     1       7.581   5.741  15.940  0.00  0.00    +0.000 N 
ATOM     11  H   UNL     1       7.863   5.365  15.040  0.00  0.00    +0.000 HD
ATOM     12  H   UNL     1       7.341   6.729  15.901  0.00  0.00    +0.000 HD
ENDBRANCH   6  10
ENDBRANCH   1   3
BRANCH   1  13
ATOM     13  C   UNL     1       2.223   4.176  19.463  0.00  0.00    +0.000 C 
ATOM     14  C   UNL     1       0.941   3.415  19.845  0.00  0.00    +0.000 C 
ATOM     15  C   UNL     1       1.205   2.818  21.217  0.00  0.00    +0.000 C 
ATOM     16  C   UNL     1       2.407   3.570  21.753  0.00  0.00    +0.000 C 
ATOM     17  N   UNL     1       2.674   4.648  20.800  0.00  0.00    +0.000 NA
ATOM     18  H   UNL     1       3.660   4.888  20.831  0.00  0.00    +0.000 HD
BRANCH  13  19
ATOM     19  C   UNL     1       1.842   5.269  18.422  0.00  0.00    +0.000 C 
BRANCH  19  20
ATOM     20  O   UNL     1       2.289   6.572  18.813  0.00  0.00    +0.000 OA
BRANCH  20  22
ATOM     21  C   UNL     1       2.046   8.846  18.143  0.00  0.00    +0.000 C 
ATOM     22  C   UNL     1       2.517   7.460  17.713  0.00  0.00    +0.000 C 
ATOM     23  C   UNL     1       3.996   7.513  17.334  0.00  0.00    +0.000 C 
ENDBRANCH  20  22
ENDBRANCH  19  20
ENDBRANCH  13  19
ENDBRANCH   1  13
TORSDOF 6
ENDMDL
MODEL 6
REMARK VINA RESULT:      -6.9      2.878      6.159
REMARK  Name = 
REMARK  8 active torsions:
REMARK  status: ('A' for Active; 'I' for Inactive)
REMARK    1  A    between atoms: C_1  and  C_2
REMARK    2  A    between atoms: C_2  and  C_3
REMARK    3  A    between atoms: C_2  and  O_4
REMARK    4  A    between atoms: O_4  and  C_5
REMARK    5  A    between atoms: C_5  and  C_6
REMARK    6  A    between atoms: C_6  and  C_7
REMARK    7  A    between atoms: C_7  and  C_9
REMARK    8  A    between atoms: C_12  and  N_13
REMARK                            x       y       z     vdW  Elec       q    Type
REMARK                         _______ _______ _______ _____ _____    ______ ____
ROOT
ATOM      1  C   UNL     1       3.985   3.684  19.323  0.00  0.00    +0.000 C 
ATOM      2  O   UNL     1       4.472   2.769  19.991  0.00  0.00    +0.000 OA
ENDROOT
BRANCH   1   3
ATOM      3  C   UNL     1       4.813   4.225  18.176  0.00  0.00    +0.000 A 
ATOM      4  C   UNL     1       4.745   3.729  16.869  0.00  0.00    +0.000 A 
ATOM      5  C   UNL     1       5.615   4.189  15.876  0.00  0.00    +0.000 A 
ATOM      6  C   UNL     1       6.521   5.217  16.135  0.00  0.00    +0.000 A 
ATOM      7  C   UNL     1       6.576   5.732  17.442  0.00  0.00    +0.000 A 
ATOM      8 CL   UNL     1       7.693   6.994  17.836  0.00  0.00    +0.000 Cl
ATOM      9  C   UNL     1       5.728   5.251  18.449  0.00  0.00    +0.000 A 
BRANCH   6  10
ATOM     10  N   UNL     1       7.485   5.527  15.164  0.00  0.00    +0.000 N 
ATOM     11  H   UNL     1       7.158   6.121  14.408  0.00  0.00    +0.000 HD
ATOM     12  H   UNL     1       8.366   5.841  15.565  0.00  0.00    +0.000 HD
ENDBRANCH   6  10
ENDBRANCH   1   3
BRANCH   1  13
ATOM     13  C   UNL     1       2.568   4.258  19.635  0.00  0.00    +0.000 C 
ATOM     14  C   UNL     1       1.584   4.058  18.467  0.00  0.00    +0.000 C 
ATOM     15  C   UNL     1       1.044   2.645  18.616  0.00  0.00    +0.000 C 
ATOM     16  C   UNL     1       1.382   2.238  20.037  0.00  0.00    +0.000 C 
ATOM     17  N   UNL     1       1.917   3.434  20.689  0.00  0.00    +0.000 NA
ATOM     18  H   UNL     1       2.550   3.157  21.432  0.00  0.00    +0.000 HD
BRANCH  13  19
ATOM     19  C   UNL     1       2.685   5.786  19.907  0.00  0.00    +0.000 C 
BRANCH  19  20
ATOM     20  O   UNL     1       2.293   6.573  18.777  0.00  0.00    +0.000 OA
BRANCH  20  22
ATOM     21  C   UNL     1       1.740   8.666  17.782  0.00  0.00    +0.000 C 
ATOM     22  C   UNL     1       2.324   7.984  19.016  0.00  0.00    +0.000 C 
ATOM     23  C   UNL     1       1.504   8.362  20.248  0.00  0.00    +0.000 C 
ENDBRANCH  20  22
ENDBRANCH  19  20
ENDBRANCH  13  19
ENDBRANCH   1  13
TORSDOF 6
ENDMDL
MODEL 7
REMARK VINA RESULT:      -6.8      2.770      3.726
REMARK  Name = 
REMARK  8 active torsions:
REMARK  status: ('A' for Active; 'I' for Inactive)
REMARK    1  A    between atoms: C_1  and  C_2
REMARK    2  A    between atoms: C_2  and  C_3
REMARK    3  A    between atoms: C_2  and  O_4
REMARK    4  A    between atoms: O_4  and  C_5
REMARK    5  A    between atoms: C_5  and  C_6
REMARK    6  A    between atoms: C_6  and  C_7
REMARK    7  A    between atoms: C_7  and  C_9
REMARK    8  A    between atoms: C_12  and  N_13
REMARK                            x       y       z     vdW  Elec       q    Type
REMARK                         _______ _______ _______ _____ _____    ______ ____
ROOT
ATOM      1  C   UNL     1       2.691   4.257  17.907  0.00  0.00    +0.000 C 
ATOM      2  O   UNL     1       1.754   3.757  17.282  0.00  0.00    +0.000 OA
ENDROOT
BRANCH   1   3
ATOM      3  C   UNL     1       2.400   5.502  18.720  0.00  0.00    +0.000 A 
ATOM      4  C   UNL     1       2.032   5.478  20.070  0.00  0.00    +0.000 A 
ATOM      5  C   UNL     1       1.663   6.649  20.739  0.00  0.00    +0.000 A 
ATOM      6  C   UNL     1       1.733   7.890  20.106  0.00  0.00    +0.000 A 
ATOM      7  C   UNL     1       2.123   7.919  18.755  0.00  0.00    +0.000 A 
ATOM      8 CL   UNL     1       2.209   9.423  17.904  0.00  0.00    +0.000 Cl
ATOM      9  C   UNL     1       2.463   6.743  18.071  0.00  0.00    +0.000 A 
BRANCH   6  10
ATOM     10  N   UNL     1       1.194   9.010  20.756  0.00  0.00    +0.000 N 
ATOM     11  H   UNL     1       1.491   9.907  20.384  0.00  0.00    +0.000 HD
ATOM     12  H   UNL     1       0.187   8.947  20.888  0.00  0.00    +0.000 HD
ENDBRANCH   6  10
ENDBRANCH   1   3
BRANCH   1  13
ATOM     13  C   UNL     1       4.121   3.632  17.876  0.00  0.00    +0.000 C 
ATOM     14  C   UNL     1       4.792   3.633  19.262  0.00  0.00    +0.000 C 
ATOM     15  C   UNL     1       4.268   2.400  19.979  0.00  0.00    +0.000 C 
ATOM     16  C   UNL     1       3.675   1.529  18.889  0.00  0.00    +0.000 C 
ATOM     17  N   UNL     1       4.020   2.170  17.620  0.00  0.00    +0.000 NA
ATOM     18  H   UNL     1       3.322   1.930  16.922  0.00  0.00    +0.000 HD
BRANCH  13  19
ATOM     19  C   UNL     1       5.017   4.456  16.907  0.00  0.00    +0.000 C 
BRANCH  19  20
ATOM     20  O   UNL     1       4.921   3.998  15.554  0.00  0.00    +0.000 OA
BRANCH  20  22
ATOM     21  C   UNL     1       7.150   4.827  15.410  0.00  0.00    +0.000 C 
ATOM     22  C   UNL     1       5.836   4.639  14.659  0.00  0.00    +0.000 C 
ATOM     23  C   UNL     1       6.075   3.800  13.405  0.00  0.00    +0.000 C 
ENDBRANCH  20  22
ENDBRANCH  19  20
ENDBRANCH  13  19
ENDBRANCH   1  13
TORSDOF 6
ENDMDL
MODEL 8
REMARK VINA RESULT:      -6.8      2.944      5.892
REMARK  Name = 
REMARK  8 active torsions:
REMARK  status: ('A' for Active; 'I' for Inactive)
REMARK    1  A    between atoms: C_1  and  C_2
REMARK    2  A    between atoms: C_2  and  C_3
REMARK    3  A    between atoms: C_2  and  O_4
REMARK    4  A    between atoms: O_4  and  C_5
REMARK    5  A    between atoms: C_5  and  C_6
REMARK    6  A    between atoms: C_6  and  C_7
REMARK    7  A    between atoms: C_7  and  C_9
REMARK    8  A    between atoms: C_12  and  N_13
REMARK                            x       y       z     vdW  Elec       q    Type
REMARK                         _______ _______ _______ _____ _____    ______ ____
ROOT
ATOM      1  C   UNL     1       3.651   3.697  19.004  0.00  0.00    +0.000 C 
ATOM      2  O   UNL     1       3.872   2.556  19.415  0.00  0.00    +0.000 OA
ENDROOT
BRANCH   1   3
ATOM      3  C   UNL     1       4.608   4.265  17.977  0.00  0.00    +0.000 A 
ATOM      4  C   UNL     1       4.555   3.956  16.613  0.00  0.00    +0.000 A 
ATOM      5  C   UNL     1       5.536   4.418  15.730  0.00  0.00    +0.000 A 
ATOM      6  C   UNL     1       6.549   5.272  16.164  0.00  0.00    +0.000 A 
ATOM      7  C   UNL     1       6.592   5.600  17.531  0.00  0.00    +0.000 A 
ATOM      8 CL   UNL     1       7.837   6.637  18.139  0.00  0.00    +0.000 Cl
ATOM      9  C   UNL     1       5.630   5.113  18.426  0.00  0.00    +0.000 A 
BRANCH   6  10
ATOM     10  N   UNL     1       7.602   5.571  15.286  0.00  0.00    +0.000 N 
ATOM     11  H   UNL     1       7.834   4.835  14.627  0.00  0.00    +0.000 HD
ATOM     12  H   UNL     1       7.505   6.484  14.846  0.00  0.00    +0.000 HD
ENDBRANCH   6  10
ENDBRANCH   1   3
BRANCH   1  13
ATOM     13  C   UNL     1       2.427   4.525  19.508  0.00  0.00    +0.000 C 
ATOM     14  C   UNL     1       1.129   3.698  19.532  0.00  0.00    +0.000 C 
ATOM     15  C   UNL     1       1.149   2.930  20.843  0.00  0.00    +0.000 C 
ATOM     16  C   UNL     1       2.192   3.626  21.696  0.00  0.00    +0.000 C 
ATOM     17  N   UNL     1       2.591   4.824  20.956  0.00  0.00    +0.000 NA
ATOM     18  H   UNL     1       3.541   5.075  21.211  0.00  0.00    +0.000 HD
BRANCH  13  19
ATOM     19  C   UNL     1       2.207   5.739  18.559  0.00  0.00    +0.000 C 
BRANCH  19  20
ATOM     20  O   UNL     1       2.291   6.991  19.249  0.00  0.00    +0.000 OA
BRANCH  20  22
ATOM     21  C   UNL     1       3.365   7.526  17.191  0.00  0.00    +0.000 C 
ATOM     22  C   UNL     1       2.638   8.094  18.405  0.00  0.00    +0.000 C 
ATOM     23  C   UNL     1       1.398   8.862  17.949  0.00  0.00    +0.000 C 
ENDBRANCH  20  22
ENDBRANCH  19  20
ENDBRANCH  13  19
ENDBRANCH   1  13
TORSDOF 6
ENDMDL
MODEL 9
REMARK VINA RESULT:      -6.8      3.198      4.656
REMARK  Name = 
REMARK  8 active torsions:
REMARK  status: ('A' for Active; 'I' for Inactive)
REMARK    1  A    between atoms: C_1  and  C_2
REMARK    2  A    between atoms: C_2  and  C_3
REMARK    3  A    between atoms: C_2  and  O_4
REMARK    4  A    between atoms: O_4  and  C_5
REMARK    5  A    between atoms: C_5  and  C_6
REMARK    6  A    between atoms: C_6  and  C_7
REMARK    7  A    between atoms: C_7  and  C_9
REMARK    8  A    between atoms: C_12  and  N_13
REMARK                            x       y       z     vdW  Elec       q    Type
REMARK                         _______ _______ _______ _____ _____    ______ ____
ROOT
ATOM      1  C   UNL     1       3.043   5.314  19.800  0.00  0.00    +0.000 C 
ATOM      2  O   UNL     1       2.578   4.874  20.854  0.00  0.00    +0.000 OA
ENDROOT
BRANCH   1   3
ATOM      3  C   UNL     1       2.529   6.656  19.319  0.00  0.00    +0.000 A 
ATOM      4  C   UNL     1       2.768   7.164  18.038  0.00  0.00    +0.000 A 
ATOM      5  C   UNL     1       2.368   8.457  17.688  0.00  0.00    +0.000 A 
ATOM      6  C   UNL     1       1.643   9.251  18.577  0.00  0.00    +0.000 A 
ATOM      7  C   UNL     1       1.384   8.733  19.859  0.00  0.00    +0.000 A 
ATOM      8 CL   UNL     1       0.509   9.675  21.018  0.00  0.00    +0.000 Cl
ATOM      9  C   UNL     1       1.811   7.450  20.225  0.00  0.00    +0.000 A 
BRANCH   6  10
ATOM     10  N   UNL     1       1.413  10.595  18.249  0.00  0.00    +0.000 N 
ATOM     11  H   UNL     1       0.629  10.756  17.624  0.00  0.00    +0.000 HD
ATOM     12  H   UNL     1       1.407  11.207  19.062  0.00  0.00    +0.000 HD
ENDBRANCH   6  10
ENDBRANCH   1   3
BRANCH   1  13
ATOM     13  C   UNL     1       4.126   4.531  18.994  0.00  0.00    +0.000 C 
ATOM     14  C   UNL     1       4.250   3.065  19.447  0.00  0.00    +0.000 C 
ATOM     15  C   UNL     1       3.156   2.308  18.713  0.00  0.00    +0.000 C 
ATOM     16  C   UNL     1       2.728   3.225  17.583  0.00  0.00    +0.000 C 
ATOM     17  N   UNL     1       3.666   4.348  17.590  0.00  0.00    +0.000 NA
ATOM     18  H   UNL     1       3.211   5.169  17.205  0.00  0.00    +0.000 HD
BRANCH  13  19
ATOM     19  C   UNL     1       5.508   5.216  19.198  0.00  0.00    +0.000 C 
BRANCH  19  20
ATOM     20  O   UNL     1       6.598   4.371  18.811  0.00  0.00    +0.000 OA
BRANCH  20  22
ATOM     21  C   UNL     1       7.099   4.521  16.487  0.00  0.00    +0.000 C 
ATOM     22  C   UNL     1       7.503   4.980  17.884  0.00  0.00    +0.000 C 
ATOM     23  C   UNL     1       7.442   6.505  17.962  0.00  0.00    +0.000 C 
ENDBRANCH  20  22
ENDBRANCH  19  20
ENDBRANCH  13  19
ENDBRANCH   1  13
TORSDOF 6
ENDMDL
