MODEL 1
REMARK VINA RESULT:      -8.1      0.000      0.000
REMARK  Name = 
REMARK  8 active torsions:
REMARK  status: ('A' for Active; 'I' for Inactive)
REMARK    1  A    between atoms: C_1  and  O_2
REMARK    2  A    between atoms: O_2  and  C_3
REMARK    3  A    between atoms: C_6  and  C_7
REMARK    4  A    between atoms: C_7  and  N_8
REMARK    5  A    between atoms: N_8  and  C_16
REMARK    6  A    between atoms: C_9  and  C_11
REMARK    7  A    between atoms: C_19  and  C_20
REMARK    8  A    between atoms: C_21  and  C_22
REMARK                            x       y       z     vdW  Elec       q    Type
REMARK                         _______ _______ _______ _____ _____    ______ ____
ROOT
ATOM      1  N   UNL     1       3.075   5.757  19.275  0.00  0.00    +0.000 N 
ATOM      2  C   UNL     1       2.332   4.556  19.217  0.00  0.00    +0.000 C 
ATOM      3  O   UNL     1       1.099   4.564  19.259  0.00  0.00    +0.000 OA
ENDROOT
BRANCH   1   4
ATOM      4  C   UNL     1       2.356   6.996  19.349  0.00  0.00    +0.000 A 
ATOM      5  C   UNL     1       2.229   7.812  18.224  0.00  0.00    +0.000 A 
ATOM      6  C   UNL     1       1.574   9.042  18.312  0.00  0.00    +0.000 A 
ATOM      7  C   UNL     1       1.052   9.496  19.533  0.00  0.00    +0.000 A 
ATOM      8  C   UNL     1       0.382  10.842  19.583  0.00  0.00    +0.000 C 
ATOM      9  C   UNL     1       1.170   8.676  20.672  0.00  0.00    +0.000 A 
ATOM     10  C   UNL     1       0.668   9.080  22.032  0.00  0.00    +0.000 C 
ATOM     11  C   UNL     1       1.802   7.421  20.560  0.00  0.00    +0.000 A 
ENDBRANCH   1   4
BRANCH   2  12
ATOM     12  C   UNL     1       3.021   3.275  19.102  0.00  0.00    +0.000 A 
ATOM     13  C   UNL     1       3.066   2.383  18.040  0.00  0.00    +0.000 A 
ATOM     14  C   UNL     1       3.846   1.276  18.461  0.00  0.00    +0.000 A 
ATOM     15  C   UNL     1       4.302   1.591  19.712  0.00  0.00    +0.000 A 
ATOM     16  O   UNL     1       3.836   2.803  20.092  0.00  0.00    +0.000 OA
ENDBRANCH   2  12
BRANCH   1  17
ATOM     17  C   UNL     1       4.540   5.884  19.237  0.00  0.00    +0.000 C 
BRANCH  17  21
ATOM     18  C   UNL     1       6.852   5.160  15.653  0.00  0.00    +0.000 A 
ATOM     19  C   UNL     1       5.578   5.726  15.552  0.00  0.00    +0.000 A 
ATOM     20  C   UNL     1       4.775   5.871  16.694  0.00  0.00    +0.000 A 
ATOM     21  C   UNL     1       5.230   5.457  17.950  0.00  0.00    +0.000 A 
ATOM     22  C   UNL     1       6.446   4.762  18.012  0.00  0.00    +0.000 A 
ATOM     23  C   UNL     1       7.256   4.622  16.876  0.00  0.00    +0.000 A 
BRANCH  18  25
ATOM     24  C   UNL     1       7.001   4.532  13.394  0.00  0.00    +0.000 C 
ATOM     25  O   UNL     1       7.612   5.166  14.519  0.00  0.00    +0.000 OA
ENDBRANCH  18  25
ENDBRANCH  17  21
ENDBRANCH   1  17
TORSDOF 5
ENDMDL
MODEL 2
REMARK VINA RESULT:      -7.9      0.384      1.032
REMARK  Name = 
REMARK  8 active torsions:
REMARK  status: ('A' for Active; 'I' for Inactive)
REMARK    1  A    between atoms: C_1  and  O_2
REMARK    2  A    between atoms: O_2  and  C_3
REMARK    3  A    between atoms: C_6  and  C_7
REMARK    4  A    between atoms: C_7  and  N_8
REMARK    5  A    between atoms: N_8  and  C_16
REMARK    6  A    between atoms: C_9  and  C_11
REMARK    7  A    between atoms: C_19  and  C_20
REMARK    8  A    between atoms: C_21  and  C_22
REMARK                            x       y       z     vdW  Elec       q    Type
REMARK                         _______ _______ _______ _____ _____    ______ ____
ROOT
ATOM      1  N   UNL     1       3.120   5.765  19.163  0.00  0.00    +0.000 N 
ATOM      2  C   UNL     1       2.381   4.574  18.988  0.00  0.00    +0.000 C 
ATOM      3  O   UNL     1       1.150   4.592  18.900  0.00  0.00    +0.000 OA
ENDROOT
BRANCH   1   4
ATOM      4  C   UNL     1       2.406   7.008  19.200  0.00  0.00    +0.000 A 
ATOM      5  C   UNL     1       2.275   7.787  18.048  0.00  0.00    +0.000 A 
ATOM      6  C   UNL     1       1.624   9.021  18.099  0.00  0.00    +0.000 A 
ATOM      7  C   UNL     1       1.110   9.517  19.307  0.00  0.00    +0.000 A 
ATOM      8  C   UNL     1       0.445  10.866  19.316  0.00  0.00    +0.000 C 
ATOM      9  C   UNL     1       1.233   8.735  20.473  0.00  0.00    +0.000 A 
ATOM     10  C   UNL     1       0.740   9.186  21.821  0.00  0.00    +0.000 C 
ATOM     11  C   UNL     1       1.861   7.475  20.399  0.00  0.00    +0.000 A 
ENDBRANCH   1   4
BRANCH   2  12
ATOM     12  C   UNL     1       3.069   3.290  18.906  0.00  0.00    +0.000 A 
ATOM     13  C   UNL     1       3.207   2.423  17.831  0.00  0.00    +0.000 A 
ATOM     14  C   UNL     1       3.938   1.301  18.296  0.00  0.00    +0.000 A 
ATOM     15  C   UNL     1       4.278   1.581  19.591  0.00  0.00    +0.000 A 
ATOM     16  O   UNL     1       3.786   2.788  19.956  0.00  0.00    +0.000 OA
ENDBRANCH   2  12
BRANCH   1  17
ATOM     17  C   UNL     1       4.583   5.879  19.284  0.00  0.00    +0.000 C 
BRANCH  17  21
ATOM     18  C   UNL     1       6.502   4.925  15.526  0.00  0.00    +0.000 A 
ATOM     19  C   UNL     1       7.083   4.507  16.726  0.00  0.00    +0.000 A 
ATOM     20  C   UNL     1       6.529   4.896  17.955  0.00  0.00    +0.000 A 
ATOM     21  C   UNL     1       5.390   5.705  18.007  0.00  0.00    +0.000 A 
ATOM     22  C   UNL     1       4.906   6.235  16.802  0.00  0.00    +0.000 A 
ATOM     23  C   UNL     1       5.450   5.842  15.571  0.00  0.00    +0.000 A 
BRANCH  18  25
ATOM     24  C   UNL     1       6.073   3.801  13.508  0.00  0.00    +0.000 C 
ATOM     25  O   UNL     1       7.030   4.405  14.380  0.00  0.00    +0.000 OA
ENDBRANCH  18  25
ENDBRANCH  17  21
ENDBRANCH   1  17
TORSDOF 5
ENDMDL
MODEL 3
REMARK VINA RESULT:      -7.8      0.465      1.361
REMARK  Name = 
REMARK  8 active torsions:
REMARK  status: ('A' for Active; 'I' for Inactive)
REMARK    1  A    between atoms: C_1  and  O_2
REMARK    2  A    between atoms: O_2  and  C_3
REMARK    3  A    between atoms: C_6  and  C_7
REMARK    4  A    between atoms: C_7  and  N_8
REMARK    5  A    between atoms: N_8  and  C_16
REMARK    6  A    between atoms: C_9  and  C_11
REMARK    7  A    between atoms: C_19  and  C_20
REMARK    8  A    between atoms: C_21  and  C_22
REMARK                            x       y       z     vdW  Elec       q    Type
REMARK                         _______ _______ _______ _____ _____    ______ ____
ROOT
ATOM      1  N   UNL     1       3.060   5.611  19.491  0.00  0.00    +0.000 N 
ATOM      2  C   UNL     1       2.297   4.434  19.320  0.00  0.00    +0.000 C 
ATOM      3  O   UNL     1       1.065   4.451  19.404  0.00  0.00    +0.000 OA
ENDROOT
BRANCH   1   4
ATOM      4  C   UNL     1       2.363   6.841  19.731  0.00  0.00    +0.000 A 
ATOM      5  C   UNL     1       1.702   7.059  20.941  0.00  0.00    +0.000 A 
ATOM      6  C   UNL     1       0.981   8.236  21.153  0.00  0.00    +0.000 A 
ATOM      7  C   UNL     1       0.883   9.212  20.149  0.00  0.00    +0.000 A 
ATOM      8  C   UNL     1       0.069  10.449  20.413  0.00  0.00    +0.000 C 
ATOM      9  C   UNL     1       1.552   9.003  18.927  0.00  0.00    +0.000 A 
ATOM     10  C   UNL     1       1.490   9.975  17.779  0.00  0.00    +0.000 C 
ATOM     11  C   UNL     1       2.306   7.827  18.742  0.00  0.00    +0.000 A 
ENDBRANCH   1   4
BRANCH   2  12
ATOM     12  C   UNL     1       2.961   3.166  19.036  0.00  0.00    +0.000 A 
ATOM     13  C   UNL     1       2.978   2.414  17.870  0.00  0.00    +0.000 A 
ATOM     14  C   UNL     1       3.743   1.251  18.138  0.00  0.00    +0.000 A 
ATOM     15  C   UNL     1       4.219   1.398  19.413  0.00  0.00    +0.000 A 
ATOM     16  O   UNL     1       3.779   2.560  19.948  0.00  0.00    +0.000 OA
ENDBRANCH   2  12
BRANCH   1  17
ATOM     17  C   UNL     1       4.525   5.724  19.420  0.00  0.00    +0.000 C 
BRANCH  17  21
ATOM     18  C   UNL     1       6.736   5.230  15.734  0.00  0.00    +0.000 A 
ATOM     19  C   UNL     1       5.484   5.850  15.712  0.00  0.00    +0.000 A 
ATOM     20  C   UNL     1       4.710   5.925  16.880  0.00  0.00    +0.000 A 
ATOM     21  C   UNL     1       5.172   5.385  18.085  0.00  0.00    +0.000 A 
ATOM     22  C   UNL     1       6.360   4.642  18.059  0.00  0.00    +0.000 A 
ATOM     23  C   UNL     1       7.142   4.571  16.896  0.00  0.00    +0.000 A 
BRANCH  18  25
ATOM     24  C   UNL     1       6.982   4.504  13.513  0.00  0.00    +0.000 C 
ATOM     25  O   UNL     1       7.473   5.306  14.588  0.00  0.00    +0.000 OA
ENDBRANCH  18  25
ENDBRANCH  17  21
ENDBRANCH   1  17
TORSDOF 5
ENDMDL
MODEL 4
REMARK VINA RESULT:      -7.8      1.813      6.278
REMARK  Name = 
REMARK  8 active torsions:
REMARK  status: ('A' for Active; 'I' for Inactive)
REMARK    1  A    between atoms: C_1  and  O_2
REMARK    2  A    between atoms: O_2  and  C_3
REMARK    3  A    between atoms: C_6  and  C_7
REMARK    4  A    between atoms: C_7  and  N_8
REMARK    5  A    between atoms: N_8  and  C_16
REMARK    6  A    between atoms: C_9  and  C_11
REMARK    7  A    between atoms: C_19  and  C_20
REMARK    8  A    between atoms: C_21  and  C_22
REMARK                            x       y       z     vdW  Elec       q    Type
REMARK                         _______ _______ _______ _____ _____    ______ ____
ROOT
ATOM      1  N   UNL     1       4.417   4.439  18.178  0.00  0.00    +0.000 N 
ATOM      2  C   UNL     1       3.672   3.252  18.350  0.00  0.00    +0.000 C 
ATOM      3  O   UNL     1       3.727   2.336  17.524  0.00  0.00    +0.000 OA
ENDROOT
BRANCH   1   4
ATOM      4  C   UNL     1       5.272   4.543  17.031  0.00  0.00    +0.000 A 
ATOM      5  C   UNL     1       6.536   5.128  17.137  0.00  0.00    +0.000 A 
ATOM      6  C   UNL     1       7.345   5.275  16.009  0.00  0.00    +0.000 A 
ATOM      7  C   UNL     1       6.900   4.864  14.743  0.00  0.00    +0.000 A 
ATOM      8  C   UNL     1       7.796   5.072  13.553  0.00  0.00    +0.000 C 
ATOM      9  C   UNL     1       5.629   4.267  14.627  0.00  0.00    +0.000 A 
ATOM     10  C   UNL     1       5.049   3.816  13.315  0.00  0.00    +0.000 C 
ATOM     11  C   UNL     1       4.838   4.093  15.781  0.00  0.00    +0.000 A 
ENDBRANCH   1   4
BRANCH   2  12
ATOM     12  C   UNL     1       2.818   3.087  19.522  0.00  0.00    +0.000 A 
ATOM     13  C   UNL     1       1.442   3.221  19.644  0.00  0.00    +0.000 A 
ATOM     14  C   UNL     1       1.123   2.988  21.006  0.00  0.00    +0.000 A 
ATOM     15  C   UNL     1       2.298   2.643  21.616  0.00  0.00    +0.000 A 
ATOM     16  O   UNL     1       3.317   2.670  20.724  0.00  0.00    +0.000 OA
ENDBRANCH   2  12
BRANCH   1  17
ATOM     17  C   UNL     1       4.438   5.601  19.082  0.00  0.00    +0.000 C 
BRANCH  17  21
ATOM     18  C   UNL     1       1.613   8.869  18.842  0.00  0.00    +0.000 A 
ATOM     19  C   UNL     1       1.569   7.994  19.931  0.00  0.00    +0.000 A 
ATOM     20  C   UNL     1       2.409   6.871  19.972  0.00  0.00    +0.000 A 
ATOM     21  C   UNL     1       3.304   6.603  18.931  0.00  0.00    +0.000 A 
ATOM     22  C   UNL     1       3.234   7.405  17.783  0.00  0.00    +0.000 A 
ATOM     23  C   UNL     1       2.403   8.535  17.741  0.00  0.00    +0.000 A 
BRANCH  18  25
ATOM     24  C   UNL     1      -0.151   9.953  19.953  0.00  0.00    +0.000 C 
ATOM     25  O   UNL     1       0.853   9.998  18.937  0.00  0.00    +0.000 OA
ENDBRANCH  18  25
ENDBRANCH  17  21
ENDBRANCH   1  17
TORSDOF 5
ENDMDL
MODEL 5
REMARK VINA RESULT:      -7.4      0.656      1.715
REMARK  Name = 
REMARK  8 active torsions:
REMARK  status: ('A' for Active; 'I' for Inactive)
REMARK    1  A    between atoms: C_1  and  O_2
REMARK    2  A    between atoms: O_2  and  C_3
REMARK    3  A    between atoms: C_6  and  C_7
REMARK    4  A    between atoms: C_7  and  N_8
REMARK    5  A    between atoms: N_8  and  C_16
REMARK    6  A    between atoms: C_9  and  C_11
REMARK    7  A    between atoms: C_19  and  C_20
REMARK    8  A    between atoms: C_21  and  C_22
REMARK                            x       y       z     vdW  Elec       q    Type
REMARK                         _______ _______ _______ _____ _____    ______ ____
ROOT
ATOM      1  N   UNL     1       3.070   5.611  19.428  0.00  0.00    +0.000 N 
ATOM      2  C   UNL     1       2.300   4.472  19.106  0.00  0.00    +0.000 C 
ATOM      3  O   UNL     1       1.066   4.519  19.082  0.00  0.00    +0.000 OA
ENDROOT
BRANCH   1   4
ATOM      4  C   UNL     1       2.384   6.842  19.692  0.00  0.00    +0.000 A 
ATOM      5  C   UNL     1       1.751   7.054  20.918  0.00  0.00    +0.000 A 
ATOM      6  C   UNL     1       1.038   8.232  21.153  0.00  0.00    +0.000 A 
ATOM      7  C   UNL     1       0.921   9.215  20.158  0.00  0.00    +0.000 A 
ATOM      8  C   UNL     1       0.117  10.453  20.449  0.00  0.00    +0.000 C 
ATOM      9  C   UNL     1       1.561   9.012  18.920  0.00  0.00    +0.000 A 
ATOM     10  C   UNL     1       1.477   9.991  17.781  0.00  0.00    +0.000 C 
ATOM     11  C   UNL     1       2.307   7.834  18.710  0.00  0.00    +0.000 A 
ENDBRANCH   1   4
BRANCH   2  12
ATOM     12  C   UNL     1       2.958   3.208  18.794  0.00  0.00    +0.000 A 
ATOM     13  C   UNL     1       3.193   2.609  17.564  0.00  0.00    +0.000 A 
ATOM     14  C   UNL     1       3.835   1.372  17.821  0.00  0.00    +0.000 A 
ATOM     15  C   UNL     1       4.034   1.324  19.174  0.00  0.00    +0.000 A 
ATOM     16  O   UNL     1       3.537   2.437  19.762  0.00  0.00    +0.000 OA
ENDBRANCH   2  12
BRANCH   1  17
ATOM     17  C   UNL     1       4.539   5.686  19.495  0.00  0.00    +0.000 C 
BRANCH  17  21
ATOM     18  C   UNL     1       6.235   5.253  15.540  0.00  0.00    +0.000 A 
ATOM     19  C   UNL     1       6.807   4.569  16.616  0.00  0.00    +0.000 A 
ATOM     20  C   UNL     1       6.333   4.779  17.920  0.00  0.00    +0.000 A 
ATOM     21  C   UNL     1       5.285   5.671  18.170  0.00  0.00    +0.000 A 
ATOM     22  C   UNL     1       4.822   6.456  17.104  0.00  0.00    +0.000 A 
ATOM     23  C   UNL     1       5.285   6.243  15.797  0.00  0.00    +0.000 A 
BRANCH  18  25
ATOM     24  C   UNL     1       5.983   3.793  13.716  0.00  0.00    +0.000 C 
ATOM     25  O   UNL     1       6.672   4.902  14.295  0.00  0.00    +0.000 OA
ENDBRANCH  18  25
ENDBRANCH  17  21
ENDBRANCH   1  17
TORSDOF 5
ENDMDL
MODEL 6
REMARK VINA RESULT:      -7.3      1.892      6.320
REMARK  Name = 
REMARK  8 active torsions:
REMARK  status: ('A' for Active; 'I' for Inactive)
REMARK    1  A    between atoms: C_1  and  O_2
REMARK    2  A    between atoms: O_2  and  C_3
REMARK    3  A    between atoms: C_6  and  C_7
REMARK    4  A    between atoms: C_7  and  N_8
REMARK    5  A    between atoms: N_8  and  C_16
REMARK    6  A    between atoms: C_9  and  C_11
REMARK    7  A    between atoms: C_19  and  C_20
REMARK    8  A    between atoms: C_21  and  C_22
REMARK                            x       y       z     vdW  Elec       q    Type
REMARK                         _______ _______ _______ _____ _____    ______ ____
ROOT
ATOM      1  N   UNL     1       3.797   4.349  17.949  0.00  0.00    +0.000 N 
ATOM      2  C   UNL     1       4.046   3.461  19.019  0.00  0.00    +0.000 C 
ATOM      3  O   UNL     1       5.131   2.884  19.133  0.00  0.00    +0.000 OA
ENDROOT
BRANCH   1   4
ATOM      4  C   UNL     1       4.855   4.595  17.012  0.00  0.00    +0.000 A 
ATOM      5  C   UNL     1       5.895   5.470  17.328  0.00  0.00    +0.000 A 
ATOM      6  C   UNL     1       6.896   5.748  16.393  0.00  0.00    +0.000 A 
ATOM      7  C   UNL     1       6.865   5.175  15.112  0.00  0.00    +0.000 A 
ATOM      8  C   UNL     1       7.949   5.529  14.131  0.00  0.00    +0.000 C 
ATOM      9  C   UNL     1       5.822   4.286  14.787  0.00  0.00    +0.000 A 
ATOM     10  C   UNL     1       5.684   3.639  13.436  0.00  0.00    +0.000 C 
ATOM     11  C   UNL     1       4.840   3.988  15.753  0.00  0.00    +0.000 A 
ENDBRANCH   1   4
BRANCH   2  12
ATOM     12  C   UNL     1       3.012   3.211  20.018  0.00  0.00    +0.000 A 
ATOM     13  C   UNL     1       1.807   2.534  19.899  0.00  0.00    +0.000 A 
ATOM     14  C   UNL     1       1.161   2.612  21.158  0.00  0.00    +0.000 A 
ATOM     15  C   UNL     1       2.038   3.250  21.993  0.00  0.00    +0.000 A 
ATOM     16  O   UNL     1       3.165   3.586  21.324  0.00  0.00    +0.000 OA
ENDBRANCH   2  12
BRANCH   1  17
ATOM     17  C   UNL     1       2.553   5.093  17.699  0.00  0.00    +0.000 C 
BRANCH  17  21
ATOM     18  C   UNL     1       1.601   8.896  19.529  0.00  0.00    +0.000 A 
ATOM     19  C   UNL     1       1.988   8.851  18.187  0.00  0.00    +0.000 A 
ATOM     20  C   UNL     1       2.399   7.641  17.608  0.00  0.00    +0.000 A 
ATOM     21  C   UNL     1       2.429   6.460  18.356  0.00  0.00    +0.000 A 
ATOM     22  C   UNL     1       2.179   6.547  19.733  0.00  0.00    +0.000 A 
ATOM     23  C   UNL     1       1.759   7.753  20.315  0.00  0.00    +0.000 A 
BRANCH  18  25
ATOM     24  C   UNL     1      -0.172   9.988  20.617  0.00  0.00    +0.000 C 
ATOM     25  O   UNL     1       1.102  10.084  19.980  0.00  0.00    +0.000 OA
ENDBRANCH  18  25
ENDBRANCH  17  21
ENDBRANCH   1  17
TORSDOF 5
ENDMDL
MODEL 7
REMARK VINA RESULT:      -7.2      0.879      1.089
REMARK  Name = 
REMARK  8 active torsions:
REMARK  status: ('A' for Active; 'I' for Inactive)
REMARK    1  A    between atoms: C_1  and  O_2
REMARK    2  A    between atoms: O_2  and  C_3
REMARK    3  A    between atoms: C_6  and  C_7
REMARK    4  A    between atoms: C_7  and  N_8
REMARK    5  A    between atoms: N_8  and  C_16
REMARK    6  A    between atoms: C_9  and  C_11
REMARK    7  A    between atoms: C_19  and  C_20
REMARK    8  A    between atoms: C_21  and  C_22
REMARK                            x       y       z     vdW  Elec       q    Type
REMARK                         _______ _______ _______ _____ _____    ______ ____
ROOT
ATOM      1  N   UNL     1       3.277   5.542  19.239  0.00  0.00    +0.000 N 
ATOM      2  C   UNL     1       2.519   4.360  19.086  0.00  0.00    +0.000 C 
ATOM      3  O   UNL     1       1.302   4.401  18.883  0.00  0.00    +0.000 OA
ENDROOT
BRANCH   1   4
ATOM      4  C   UNL     1       2.602   6.801  19.116  0.00  0.00    +0.000 A 
ATOM      5  C   UNL     1       2.615   7.499  17.906  0.00  0.00    +0.000 A 
ATOM      6  C   UNL     1       2.001   8.749  17.803  0.00  0.00    +0.000 A 
ATOM      7  C   UNL     1       1.382   9.342  18.915  0.00  0.00    +0.000 A 
ATOM      8  C   UNL     1       0.761  10.704  18.761  0.00  0.00    +0.000 C 
ATOM      9  C   UNL     1       1.359   8.643  20.137  0.00  0.00    +0.000 A 
ATOM     10  C   UNL     1       0.745   9.200  21.392  0.00  0.00    +0.000 C 
ATOM     11  C   UNL     1       1.952   7.366  20.216  0.00  0.00    +0.000 A 
ENDBRANCH   1   4
BRANCH   2  12
ATOM     12  C   UNL     1       3.172   3.057  19.166  0.00  0.00    +0.000 A 
ATOM     13  C   UNL     1       3.915   2.497  20.195  0.00  0.00    +0.000 A 
ATOM     14  C   UNL     1       4.351   1.225  19.747  0.00  0.00    +0.000 A 
ATOM     15  C   UNL     1       3.783   1.043  18.516  0.00  0.00    +0.000 A 
ATOM     16  O   UNL     1       3.048   2.126  18.172  0.00  0.00    +0.000 OA
ENDBRANCH   2  12
BRANCH   1  17
ATOM     17  C   UNL     1       4.725   5.629  19.487  0.00  0.00    +0.000 C 
BRANCH  17  21
ATOM     18  C   UNL     1       6.954   5.406  15.786  0.00  0.00    +0.000 A 
ATOM     19  C   UNL     1       6.075   4.374  16.128  0.00  0.00    +0.000 A 
ATOM     20  C   UNL     1       5.424   4.382  17.371  0.00  0.00    +0.000 A 
ATOM     21  C   UNL     1       5.638   5.415  18.289  0.00  0.00    +0.000 A 
ATOM     22  C   UNL     1       6.629   6.361  17.993  0.00  0.00    +0.000 A 
ATOM     23  C   UNL     1       7.276   6.364  16.749  0.00  0.00    +0.000 A 
BRANCH  18  25
ATOM     24  C   UNL     1       6.820   4.443  13.647  0.00  0.00    +0.000 C 
ATOM     25  O   UNL     1       7.451   5.385  14.515  0.00  0.00    +0.000 OA
ENDBRANCH  18  25
ENDBRANCH  17  21
ENDBRANCH   1  17
TORSDOF 5
ENDMDL
MODEL 8
REMARK VINA RESULT:      -7.1      3.855      8.757
REMARK  Name = 
REMARK  8 active torsions:
REMARK  status: ('A' for Active; 'I' for Inactive)
REMARK    1  A    between atoms: C_1  and  O_2
REMARK    2  A    between atoms: O_2  and  C_3
REMARK    3  A    between atoms: C_6  and  C_7
REMARK    4  A    between atoms: C_7  and  N_8
REMARK    5  A    between atoms: N_8  and  C_16
REMARK    6  A    between atoms: C_9  and  C_11
REMARK    7  A    between atoms: C_19  and  C_20
REMARK    8  A    between atoms: C_21  and  C_22
REMARK                            x       y       z     vdW  Elec       q    Type
REMARK                         _______ _______ _______ _____ _____    ______ ____
ROOT
ATOM      1  N   UNL     1       0.860   9.864  19.990  0.00  0.00    +0.000 N 
ATOM      2  C   UNL     1       0.653   9.936  21.385  0.00  0.00    +0.000 C 
ATOM      3  O   UNL     1       1.071   9.054  22.141  0.00  0.00    +0.000 OA
ENDROOT
BRANCH   1   4
ATOM      4  C   UNL     1       1.604   8.753  19.471  0.00  0.00    +0.000 A 
ATOM      5  C   UNL     1       2.211   8.828  18.216  0.00  0.00    +0.000 A 
ATOM      6  C   UNL     1       2.890   7.726  17.691  0.00  0.00    +0.000 A 
ATOM      7  C   UNL     1       2.956   6.515  18.398  0.00  0.00    +0.000 A 
ATOM      8  C   UNL     1       3.673   5.348  17.777  0.00  0.00    +0.000 C 
ATOM      9  C   UNL     1       2.352   6.433  19.668  0.00  0.00    +0.000 A 
ATOM     10  C   UNL     1       2.345   5.176  20.495  0.00  0.00    +0.000 C 
ATOM     11  C   UNL     1       1.701   7.564  20.200  0.00  0.00    +0.000 A 
ENDBRANCH   1   4
BRANCH   2  12
ATOM     12  C   UNL     1      -0.065  11.068  21.961  0.00  0.00    +0.000 A 
ATOM     13  C   UNL     1      -1.182  11.086  22.785  0.00  0.00    +0.000 A 
ATOM     14  C   UNL     1      -1.497  12.447  23.027  0.00  0.00    +0.000 A 
ATOM     15  C   UNL     1      -0.514  13.177  22.415  0.00  0.00    +0.000 A 
ATOM     16  O   UNL     1       0.367  12.355  21.798  0.00  0.00    +0.000 OA
ENDBRANCH   2  12
BRANCH   1  17
ATOM     17  C   UNL     1       0.413  10.842  18.985  0.00  0.00    +0.000 C 
BRANCH  17  21
ATOM     18  C   UNL     1      -3.540  10.921  17.230  0.00  0.00    +0.000 A 
ATOM     19  C   UNL     1      -3.279  11.669  18.381  0.00  0.00    +0.000 A 
ATOM     20  C   UNL     1      -2.034  11.574  19.021  0.00  0.00    +0.000 A 
ATOM     21  C   UNL     1      -1.032  10.733  18.523  0.00  0.00    +0.000 A 
ATOM     22  C   UNL     1      -1.358   9.884  17.457  0.00  0.00    +0.000 A 
ATOM     23  C   UNL     1      -2.598   9.982  16.808  0.00  0.00    +0.000 A 
BRANCH  18  25
ATOM     24  C   UNL     1      -5.619  12.011  17.330  0.00  0.00    +0.000 C 
ATOM     25  O   UNL     1      -4.729  11.163  16.603  0.00  0.00    +0.000 OA
ENDBRANCH  18  25
ENDBRANCH  17  21
ENDBRANCH   1  17
TORSDOF 5
ENDMDL
MODEL 9
REMARK VINA RESULT:      -7.1      1.913      6.099
REMARK  Name = 
REMARK  8 active torsions:
REMARK  status: ('A' for Active; 'I' for Inactive)
REMARK    1  A    between atoms: C_1  and  O_2
REMARK    2  A    between atoms: O_2  and  C_3
REMARK    3  A    between atoms: C_6  and  C_7
REMARK    4  A    between atoms: C_7  and  N_8
REMARK    5  A    between atoms: N_8  and  C_16
REMARK    6  A    between atoms: C_9  and  C_11
REMARK    7  A    between atoms: C_19  and  C_20
REMARK    8  A    between atoms: C_21  and  C_22
REMARK                            x       y       z     vdW  Elec       q    Type
REMARK                         _______ _______ _______ _____ _____    ______ ____
ROOT
ATOM      1  N   UNL     1       3.572   4.379  18.193  0.00  0.00    +0.000 N 
ATOM      2  C   UNL     1       3.855   3.442  19.212  0.00  0.00    +0.000 C 
ATOM      3  O   UNL     1       4.953   2.881  19.279  0.00  0.00    +0.000 OA
ENDROOT
BRANCH   1   4
ATOM      4  C   UNL     1       4.609   4.692  17.253  0.00  0.00    +0.000 A 
ATOM      5  C   UNL     1       4.750   3.951  16.078  0.00  0.00    +0.000 A 
ATOM      6  C   UNL     1       5.792   4.225  15.190  0.00  0.00    +0.000 A 
ATOM      7  C   UNL     1       6.732   5.230  15.468  0.00  0.00    +0.000 A 
ATOM      8  C   UNL     1       7.854   5.466  14.494  0.00  0.00    +0.000 C 
ATOM      9  C   UNL     1       6.593   5.986  16.648  0.00  0.00    +0.000 A 
ATOM     10  C   UNL     1       7.560   7.067  17.050  0.00  0.00    +0.000 C 
ATOM     11  C   UNL     1       5.515   5.722  17.517  0.00  0.00    +0.000 A 
ENDBRANCH   1   4
BRANCH   2  12
ATOM     12  C   UNL     1       2.843   3.121  20.213  0.00  0.00    +0.000 A 
ATOM     13  C   UNL     1       1.466   3.006  20.079  0.00  0.00    +0.000 A 
ATOM     14  C   UNL     1       0.948   2.713  21.365  0.00  0.00    +0.000 A 
ATOM     15  C   UNL     1       2.033   2.578  22.188  0.00  0.00    +0.000 A 
ATOM     16  O   UNL     1       3.177   2.792  21.497  0.00  0.00    +0.000 OA
ENDBRANCH   2  12
BRANCH   1  17
ATOM     17  C   UNL     1       2.309   5.110  18.001  0.00  0.00    +0.000 C 
BRANCH  17  21
ATOM     18  C   UNL     1       1.505   9.038  19.627  0.00  0.00    +0.000 A 
ATOM     19  C   UNL     1       1.859   8.904  18.281  0.00  0.00    +0.000 A 
ATOM     20  C   UNL     1       2.223   7.652  17.765  0.00  0.00    +0.000 A 
ATOM     21  C   UNL     1       2.239   6.515  18.580  0.00  0.00    +0.000 A 
ATOM     22  C   UNL     1       2.024   6.689  19.954  0.00  0.00    +0.000 A 
ATOM     23  C   UNL     1       1.650   7.938  20.474  0.00  0.00    +0.000 A 
BRANCH  18  25
ATOM     24  C   UNL     1       0.524  10.305  21.345  0.00  0.00    +0.000 C 
ATOM     25  O   UNL     1       1.049  10.263  20.018  0.00  0.00    +0.000 OA
ENDBRANCH  18  25
ENDBRANCH  17  21
ENDBRANCH   1  17
TORSDOF 5
ENDMDL
