MODEL 1
REMARK VINA RESULT:      -6.5      0.000      0.000
REMARK  Name = 
REMARK  9 active torsions:
REMARK  status: ('A' for Active; 'I' for Inactive)
REMARK    1  A    between atoms: C_1  and  C_2
REMARK    2  A    between atoms: C_2  and  C_3
REMARK    3  A    between atoms: C_2  and  C_4
REMARK    4  A    between atoms: C_2  and  N_5
REMARK    5  A    between atoms: C_6  and  C_8
REMARK    6  A    between atoms: N_9  and  C_10
REMARK    7  A    between atoms: C_19  and  C_20
REMARK    8  A    between atoms: N_22  and  C_23
REMARK    9  A    between atoms: C_30  and  C_31
REMARK                            x       y       z     vdW  Elec       q    Type
REMARK                         _______ _______ _______ _____ _____    ______ ____
ROOT
ATOM      1  C   UNL     1       8.775  15.418  19.847  0.00  0.00    +0.000 C 
ATOM      2  N   UNL     1       8.031  16.119  18.801  0.00  0.00    +0.000 N 
ATOM      3  C   UNL     1       8.284  17.438  19.121  0.00  0.00    +0.000 C 
ATOM      4  O   UNL     1       8.358  18.379  18.351  0.00  0.00    +0.000 OA
ATOM      5  C   UNL     1       8.680  17.487  20.549  0.00  0.00    +0.000 C 
ATOM      6  C   UNL     1       8.143  17.149  21.989  0.00  0.00    +0.000 C 
ATOM      7  C   UNL     1       9.589  17.223  22.609  0.00  0.00    +0.000 C 
ATOM      8  C   UNL     1       9.722  18.255  23.708  0.00  0.00    +0.000 C 
ATOM      9  C   UNL     1      10.437  16.007  22.701  0.00  0.00    +0.000 C 
ATOM     10  C   UNL     1      10.676  15.630  21.436  0.00  0.00    +0.000 C 
ATOM     11  C   UNL     1       9.960  16.540  20.432  0.00  0.00    +0.000 C 
ATOM     12  O   UNL     1      10.324  17.630  21.409  0.00  0.00    +0.000 OA
ENDROOT
BRANCH   2  13
ATOM     13  C   UNL     1       6.645  15.919  18.468  0.00  0.00    +0.000 A 
ATOM     14  C   UNL     1       5.685  16.844  18.942  0.00  0.00    +0.000 A 
ATOM     15  C   UNL     1       4.338  16.523  19.005  0.00  0.00    +0.000 A 
ATOM     16  C   UNL     1       3.959  15.301  18.500  0.00  0.00    +0.000 A 
ATOM     17  N   UNL     1       4.821  14.434  17.918  0.00  0.00    +0.000 NA
ATOM     18  C   UNL     1       6.139  14.767  17.897  0.00  0.00    +0.000 A 
ENDBRANCH   2  13
BRANCH   1  20
ATOM     19  N   UNL     1      10.234  13.882  18.636  0.00  0.00    +0.000 N 
ATOM     20  C   UNL     1       9.229  13.964  19.609  0.00  0.00    +0.000 C 
ATOM     21  O   UNL     1       8.798  13.009  20.245  0.00  0.00    +0.000 OA
ATOM     22  H   UNL     1      10.498  14.745  18.157  0.00  0.00    +0.000 HD
BRANCH  19  24
ATOM     23  C   UNL     1      11.993  13.026  17.112  0.00  0.00    +0.000 C 
ATOM     24  C   UNL     1      11.030  12.704  18.259  0.00  0.00    +0.000 C 
ATOM     25  C   UNL     1      10.107  11.536  17.886  0.00  0.00    +0.000 C 
ATOM     26  C   UNL     1      11.870  12.274  19.483  0.00  0.00    +0.000 C 
ENDBRANCH  19  24
ENDBRANCH   1  20
BRANCH   6  27
ATOM     27  C   UNL     1       7.488  15.823  22.521  0.00  0.00    +0.000 C 
ATOM     28  O   UNL     1       6.586  15.272  21.883  0.00  0.00    +0.000 OA
ATOM     29  N   UNL     1       7.825  15.318  23.758  0.00  0.00    +0.000 N 
ATOM     30  H   UNL     1       8.292  15.900  24.448  0.00  0.00    +0.000 HD
BRANCH  29  31
ATOM     31  C   UNL     1       7.361  14.038  24.236  0.00  0.00    +0.000 A 
ATOM     32  C   UNL     1       6.206  13.865  25.023  0.00  0.00    +0.000 A 
ATOM     33  C   UNL     1       5.763  12.595  25.418  0.00  0.00    +0.000 A 
ATOM     34  C   UNL     1       6.471  11.462  25.035  0.00  0.00    +0.000 A 
ATOM     35  C   UNL     1       7.631  11.607  24.276  0.00  0.00    +0.000 A 
ATOM     36  C   UNL     1       8.061  12.880  23.881  0.00  0.00    +0.000 A 
ATOM     37  F   UNL     1       9.176  12.979  23.142  0.00  0.00    +0.000 F 
ENDBRANCH  29  31
ENDBRANCH   6  27
TORSDOF 5
ENDMDL
MODEL 2
REMARK VINA RESULT:      -6.5      1.696      2.051
REMARK  Name = 
REMARK  9 active torsions:
REMARK  status: ('A' for Active; 'I' for Inactive)
REMARK    1  A    between atoms: C_1  and  C_2
REMARK    2  A    between atoms: C_2  and  C_3
REMARK    3  A    between atoms: C_2  and  C_4
REMARK    4  A    between atoms: C_2  and  N_5
REMARK    5  A    between atoms: C_6  and  C_8
REMARK    6  A    between atoms: N_9  and  C_10
REMARK    7  A    between atoms: C_19  and  C_20
REMARK    8  A    between atoms: N_22  and  C_23
REMARK    9  A    between atoms: C_30  and  C_31
REMARK                            x       y       z     vdW  Elec       q    Type
REMARK                         _______ _______ _______ _____ _____    ______ ____
ROOT
ATOM      1  C   UNL     1       9.676  15.681  19.039  0.00  0.00    +0.000 C 
ATOM      2  N   UNL     1       8.466  16.267  18.464  0.00  0.00    +0.000 N 
ATOM      3  C   UNL     1       8.660  17.608  18.725  0.00  0.00    +0.000 C 
ATOM      4  O   UNL     1       8.267  18.549  18.058  0.00  0.00    +0.000 OA
ATOM      5  C   UNL     1       9.631  17.715  19.840  0.00  0.00    +0.000 C 
ATOM      6  C   UNL     1       9.827  17.305  21.346  0.00  0.00    +0.000 C 
ATOM      7  C   UNL     1      11.376  17.587  21.281  0.00  0.00    +0.000 C 
ATOM      8  C   UNL     1      11.842  18.629  22.276  0.00  0.00    +0.000 C 
ATOM      9  C   UNL     1      12.328  16.506  20.921  0.00  0.00    +0.000 C 
ATOM     10  C   UNL     1      12.036  16.165  19.657  0.00  0.00    +0.000 C 
ATOM     11  C   UNL     1      10.841  16.961  19.121  0.00  0.00    +0.000 C 
ATOM     12  O   UNL     1      11.451  18.094  19.909  0.00  0.00    +0.000 OA
ENDROOT
BRANCH   2  13
ATOM     13  C   UNL     1       7.112  15.869  18.754  0.00  0.00    +0.000 A 
ATOM     14  C   UNL     1       6.445  15.001  17.859  0.00  0.00    +0.000 A 
ATOM     15  C   UNL     1       5.063  14.891  17.850  0.00  0.00    +0.000 A 
ATOM     16  C   UNL     1       4.372  15.589  18.811  0.00  0.00    +0.000 A 
ATOM     17  N   UNL     1       4.971  16.331  19.772  0.00  0.00    +0.000 NA
ATOM     18  C   UNL     1       6.325  16.441  19.736  0.00  0.00    +0.000 A 
ENDBRANCH   2  13
BRANCH   1  20
ATOM     19  N   UNL     1      10.005  13.309  19.510  0.00  0.00    +0.000 N 
ATOM     20  C   UNL     1      10.164  14.306  18.539  0.00  0.00    +0.000 C 
ATOM     21  O   UNL     1      10.583  14.110  17.403  0.00  0.00    +0.000 OA
ATOM     22  H   UNL     1       9.664  13.597  20.430  0.00  0.00    +0.000 HD
BRANCH  19  24
ATOM     23  C   UNL     1       9.431  11.328  18.136  0.00  0.00    +0.000 C 
ATOM     24  C   UNL     1      10.194  11.859  19.353  0.00  0.00    +0.000 C 
ATOM     25  C   UNL     1       9.766  11.125  20.630  0.00  0.00    +0.000 C 
ATOM     26  C   UNL     1      11.699  11.587  19.130  0.00  0.00    +0.000 C 
ENDBRANCH  19  24
ENDBRANCH   1  20
BRANCH   6  27
ATOM     27  C   UNL     1       9.650  15.900  22.026  0.00  0.00    +0.000 C 
ATOM     28  O   UNL     1      10.582  15.091  22.040  0.00  0.00    +0.000 OA
ATOM     29  N   UNL     1       8.423  15.501  22.511  0.00  0.00    +0.000 N 
ATOM     30  H   UNL     1       7.571  15.975  22.224  0.00  0.00    +0.000 HD
BRANCH  29  31
ATOM     31  C   UNL     1       8.234  14.285  23.265  0.00  0.00    +0.000 A 
ATOM     32  C   UNL     1       8.583  14.141  24.622  0.00  0.00    +0.000 A 
ATOM     33  C   UNL     1       8.330  12.957  25.329  0.00  0.00    +0.000 A 
ATOM     34  C   UNL     1       7.722  11.883  24.691  0.00  0.00    +0.000 A 
ATOM     35  C   UNL     1       7.388  11.992  23.342  0.00  0.00    +0.000 A 
ATOM     36  C   UNL     1       7.638  13.181  22.646  0.00  0.00    +0.000 A 
ATOM     37  F   UNL     1       7.293  13.252  21.352  0.00  0.00    +0.000 F 
ENDBRANCH  29  31
ENDBRANCH   6  27
TORSDOF 5
ENDMDL
MODEL 3
REMARK VINA RESULT:      -6.5      1.701      2.053
REMARK  Name = 
REMARK  9 active torsions:
REMARK  status: ('A' for Active; 'I' for Inactive)
REMARK    1  A    between atoms: C_1  and  C_2
REMARK    2  A    between atoms: C_2  and  C_3
REMARK    3  A    between atoms: C_2  and  C_4
REMARK    4  A    between atoms: C_2  and  N_5
REMARK    5  A    between atoms: C_6  and  C_8
REMARK    6  A    between atoms: N_9  and  C_10
REMARK    7  A    between atoms: C_19  and  C_20
REMARK    8  A    between atoms: N_22  and  C_23
REMARK    9  A    between atoms: C_30  and  C_31
REMARK                            x       y       z     vdW  Elec       q    Type
REMARK                         _______ _______ _______ _____ _____    ______ ____
ROOT
ATOM      1  C   UNL     1       9.699  15.743  19.039  0.00  0.00    +0.000 C 
ATOM      2  N   UNL     1       8.506  16.339  18.438  0.00  0.00    +0.000 N 
ATOM      3  C   UNL     1       8.691  17.676  18.731  0.00  0.00    +0.000 C 
ATOM      4  O   UNL     1       8.318  18.630  18.071  0.00  0.00    +0.000 OA
ATOM      5  C   UNL     1       9.627  17.761  19.878  0.00  0.00    +0.000 C 
ATOM      6  C   UNL     1       9.777  17.321  21.381  0.00  0.00    +0.000 C 
ATOM      7  C   UNL     1      11.327  17.605  21.370  0.00  0.00    +0.000 C 
ATOM      8  C   UNL     1      11.760  18.627  22.399  0.00  0.00    +0.000 C 
ATOM      9  C   UNL     1      12.291  16.531  21.018  0.00  0.00    +0.000 C 
ATOM     10  C   UNL     1      12.038  16.215  19.739  0.00  0.00    +0.000 C 
ATOM     11  C   UNL     1      10.860  17.022  19.182  0.00  0.00    +0.000 C 
ATOM     12  O   UNL     1      11.444  18.139  20.011  0.00  0.00    +0.000 OA
ENDROOT
BRANCH   2  13
ATOM     13  C   UNL     1       7.145  15.936  18.678  0.00  0.00    +0.000 A 
ATOM     14  C   UNL     1       6.560  14.961  17.837  0.00  0.00    +0.000 A 
ATOM     15  C   UNL     1       5.185  14.811  17.748  0.00  0.00    +0.000 A 
ATOM     16  C   UNL     1       4.414  15.585  18.582  0.00  0.00    +0.000 A 
ATOM     17  N   UNL     1       4.929  16.439  19.498  0.00  0.00    +0.000 NA
ATOM     18  C   UNL     1       6.280  16.584  19.540  0.00  0.00    +0.000 A 
ENDBRANCH   2  13
BRANCH   1  20
ATOM     19  N   UNL     1      10.028  13.364  19.478  0.00  0.00    +0.000 N 
ATOM     20  C   UNL     1      10.204  14.379  18.526  0.00  0.00    +0.000 C 
ATOM     21  O   UNL     1      10.648  14.203  17.397  0.00  0.00    +0.000 OA
ATOM     22  H   UNL     1       9.667  13.636  20.395  0.00  0.00    +0.000 HD
BRANCH  19  24
ATOM     23  C   UNL     1      11.689  11.594  18.977  0.00  0.00    +0.000 C 
ATOM     24  C   UNL     1      10.227  11.919  19.301  0.00  0.00    +0.000 C 
ATOM     25  C   UNL     1       9.293  11.383  18.207  0.00  0.00    +0.000 C 
ATOM     26  C   UNL     1       9.863  11.212  20.626  0.00  0.00    +0.000 C 
ENDBRANCH  19  24
ENDBRANCH   1  20
BRANCH   6  27
ATOM     27  C   UNL     1       9.580  15.902  22.027  0.00  0.00    +0.000 C 
ATOM     28  O   UNL     1      10.539  15.135  22.154  0.00  0.00    +0.000 OA
ATOM     29  N   UNL     1       8.321  15.445  22.352  0.00  0.00    +0.000 N 
ATOM     30  H   UNL     1       7.492  15.883  21.964  0.00  0.00    +0.000 HD
BRANCH  29  31
ATOM     31  C   UNL     1       8.096  14.213  23.071  0.00  0.00    +0.000 A 
ATOM     32  C   UNL     1       7.518  13.064  22.497  0.00  0.00    +0.000 A 
ATOM     33  C   UNL     1       7.368  11.872  23.220  0.00  0.00    +0.000 A 
ATOM     34  C   UNL     1       7.794  11.802  24.540  0.00  0.00    +0.000 A 
ATOM     35  C   UNL     1       8.348  12.932  25.139  0.00  0.00    +0.000 A 
ATOM     36  C   UNL     1       8.499  14.117  24.407  0.00  0.00    +0.000 A 
ATOM     37  F   UNL     1       9.047  15.180  25.014  0.00  0.00    +0.000 F 
ENDBRANCH  29  31
ENDBRANCH   6  27
TORSDOF 5
ENDMDL
MODEL 4
REMARK VINA RESULT:      -6.5      7.692     11.170
REMARK  Name = 
REMARK  9 active torsions:
REMARK  status: ('A' for Active; 'I' for Inactive)
REMARK    1  A    between atoms: C_1  and  C_2
REMARK    2  A    between atoms: C_2  and  C_3
REMARK    3  A    between atoms: C_2  and  C_4
REMARK    4  A    between atoms: C_2  and  N_5
REMARK    5  A    between atoms: C_6  and  C_8
REMARK    6  A    between atoms: N_9  and  C_10
REMARK    7  A    between atoms: C_19  and  C_20
REMARK    8  A    between atoms: N_22  and  C_23
REMARK    9  A    between atoms: C_30  and  C_31
REMARK                            x       y       z     vdW  Elec       q    Type
REMARK                         _______ _______ _______ _____ _____    ______ ____
ROOT
ATOM      1  C   UNL     1      -1.089  12.782  22.319  0.00  0.00    +0.000 C 
ATOM      2  N   UNL     1      -0.026  13.724  21.970  0.00  0.00    +0.000 N 
ATOM      3  C   UNL     1      -0.584  14.924  22.361  0.00  0.00    +0.000 C 
ATOM      4  O   UNL     1       0.006  15.908  22.772  0.00  0.00    +0.000 OA
ATOM      5  C   UNL     1      -2.055  14.741  22.416  0.00  0.00    +0.000 C 
ATOM      6  C   UNL     1      -3.283  14.366  21.508  0.00  0.00    +0.000 C 
ATOM      7  C   UNL     1      -4.197  14.085  22.761  0.00  0.00    +0.000 C 
ATOM      8  C   UNL     1      -5.440  14.947  22.808  0.00  0.00    +0.000 C 
ATOM      9  C   UNL     1      -4.283  12.722  23.345  0.00  0.00    +0.000 C 
ATOM     10  C   UNL     1      -3.054  12.441  23.804  0.00  0.00    +0.000 C 
ATOM     11  C   UNL     1      -2.068  13.576  23.507  0.00  0.00    +0.000 C 
ATOM     12  O   UNL     1      -3.251  14.462  23.813  0.00  0.00    +0.000 OA
ENDROOT
BRANCH   2  13
ATOM     13  C   UNL     1       0.615  13.840  20.685  0.00  0.00    +0.000 A 
ATOM     14  C   UNL     1       1.849  13.182  20.472  0.00  0.00    +0.000 A 
ATOM     15  C   UNL     1       2.698  13.553  19.441  0.00  0.00    +0.000 A 
ATOM     16  C   UNL     1       2.251  14.522  18.576  0.00  0.00    +0.000 A 
ATOM     17  N   UNL     1       1.025  15.090  18.660  0.00  0.00    +0.000 NA
ATOM     18  C   UNL     1       0.226  14.726  19.698  0.00  0.00    +0.000 A 
ENDBRANCH   2  13
BRANCH   1  20
ATOM     19  N   UNL     1      -0.211  10.692  21.414  0.00  0.00    +0.000 N 
ATOM     20  C   UNL     1      -0.738  11.300  22.561  0.00  0.00    +0.000 C 
ATOM     21  O   UNL     1      -0.855  10.747  23.649  0.00  0.00    +0.000 OA
ATOM     22  H   UNL     1      -0.182  11.248  20.557  0.00  0.00    +0.000 HD
BRANCH  19  24
ATOM     23  C   UNL     1      -0.663   8.255  21.471  0.00  0.00    +0.000 C 
ATOM     24  C   UNL     1       0.390   9.355  21.298  0.00  0.00    +0.000 C 
ATOM     25  C   UNL     1       1.524   9.191  22.319  0.00  0.00    +0.000 C 
ATOM     26  C   UNL     1       0.998   9.216  19.884  0.00  0.00    +0.000 C 
ENDBRANCH  19  24
ENDBRANCH   1  20
BRANCH   6  27
ATOM     27  C   UNL     1      -3.465  13.148  20.532  0.00  0.00    +0.000 C 
ATOM     28  O   UNL     1      -4.351  12.312  20.734  0.00  0.00    +0.000 OA
ATOM     29  N   UNL     1      -2.569  12.926  19.508  0.00  0.00    +0.000 N 
ATOM     30  H   UNL     1      -1.657  13.373  19.508  0.00  0.00    +0.000 HD
BRANCH  29  31
ATOM     31  C   UNL     1      -2.764  11.909  18.503  0.00  0.00    +0.000 A 
ATOM     32  C   UNL     1      -4.023  11.547  17.985  0.00  0.00    +0.000 A 
ATOM     33  C   UNL     1      -4.158  10.591  16.969  0.00  0.00    +0.000 A 
ATOM     34  C   UNL     1      -3.031   9.970  16.445  0.00  0.00    +0.000 A 
ATOM     35  C   UNL     1      -1.775  10.293  16.956  0.00  0.00    +0.000 A 
ATOM     36  C   UNL     1      -1.650  11.254  17.966  0.00  0.00    +0.000 A 
ATOM     37  F   UNL     1      -0.424  11.547  18.425  0.00  0.00    +0.000 F 
ENDBRANCH  29  31
ENDBRANCH   6  27
TORSDOF 5
ENDMDL
MODEL 5
REMARK VINA RESULT:      -6.4      7.864     11.307
REMARK  Name = 
REMARK  9 active torsions:
REMARK  status: ('A' for Active; 'I' for Inactive)
REMARK    1  A    between atoms: C_1  and  C_2
REMARK    2  A    between atoms: C_2  and  C_3
REMARK    3  A    between atoms: C_2  and  C_4
REMARK    4  A    between atoms: C_2  and  N_5
REMARK    5  A    between atoms: C_6  and  C_8
REMARK    6  A    between atoms: N_9  and  C_10
REMARK    7  A    between atoms: C_19  and  C_20
REMARK    8  A    between atoms: N_22  and  C_23
REMARK    9  A    between atoms: C_30  and  C_31
REMARK                            x       y       z     vdW  Elec       q    Type
REMARK                         _______ _______ _______ _____ _____    ______ ____
ROOT
ATOM      1  C   UNL     1      -1.041  12.776  22.215  0.00  0.00    +0.000 C 
ATOM      2  N   UNL     1      -0.031  13.782  21.892  0.00  0.00    +0.000 N 
ATOM      3  C   UNL     1      -0.679  14.947  22.249  0.00  0.00    +0.000 C 
ATOM      4  O   UNL     1      -0.170  15.971  22.668  0.00  0.00    +0.000 OA
ATOM      5  C   UNL     1      -2.136  14.668  22.256  0.00  0.00    +0.000 C 
ATOM      6  C   UNL     1      -3.305  14.204  21.311  0.00  0.00    +0.000 C 
ATOM      7  C   UNL     1      -4.241  13.876  22.536  0.00  0.00    +0.000 C 
ATOM      8  C   UNL     1      -5.539  14.654  22.529  0.00  0.00    +0.000 C 
ATOM      9  C   UNL     1      -4.258  12.516  23.132  0.00  0.00    +0.000 C 
ATOM     10  C   UNL     1      -3.031  12.320  23.637  0.00  0.00    +0.000 C 
ATOM     11  C   UNL     1      -2.111  13.516  23.360  0.00  0.00    +0.000 C 
ATOM     12  O   UNL     1      -3.359  14.325  23.615  0.00  0.00    +0.000 OA
ENDROOT
BRANCH   2  13
ATOM     13  C   UNL     1       0.645  13.928  20.629  0.00  0.00    +0.000 A 
ATOM     14  C   UNL     1       1.893  13.288  20.441  0.00  0.00    +0.000 A 
ATOM     15  C   UNL     1       2.768  13.686  19.442  0.00  0.00    +0.000 A 
ATOM     16  C   UNL     1       2.334  14.665  18.580  0.00  0.00    +0.000 A 
ATOM     17  N   UNL     1       1.099  15.218  18.637  0.00  0.00    +0.000 NA
ATOM     18  C   UNL     1       0.276  14.826  19.646  0.00  0.00    +0.000 A 
ENDBRANCH   2  13
BRANCH   1  20
ATOM     19  N   UNL     1      -0.220  10.662  21.312  0.00  0.00    +0.000 N 
ATOM     20  C   UNL     1      -0.603  11.322  22.487  0.00  0.00    +0.000 C 
ATOM     21  O   UNL     1      -0.544  10.833  23.610  0.00  0.00    +0.000 OA
ATOM     22  H   UNL     1      -0.333  11.166  20.430  0.00  0.00    +0.000 HD
BRANCH  19  24
ATOM     23  C   UNL     1       1.034   9.150  19.800  0.00  0.00    +0.000 C 
ATOM     24  C   UNL     1       0.410   9.339  21.186  0.00  0.00    +0.000 C 
ATOM     25  C   UNL     1      -0.613   8.234  21.481  0.00  0.00    +0.000 C 
ATOM     26  C   UNL     1       1.538   9.236  22.237  0.00  0.00    +0.000 C 
ENDBRANCH  19  24
ENDBRANCH   1  20
BRANCH   6  27
ATOM     27  C   UNL     1      -3.372  12.967  20.344  0.00  0.00    +0.000 C 
ATOM     28  O   UNL     1      -4.109  12.011  20.604  0.00  0.00    +0.000 OA
ATOM     29  N   UNL     1      -2.528  12.875  19.259  0.00  0.00    +0.000 N 
ATOM     30  H   UNL     1      -1.694  13.451  19.198  0.00  0.00    +0.000 HD
BRANCH  29  31
ATOM     31  C   UNL     1      -2.639  11.834  18.264  0.00  0.00    +0.000 A 
ATOM     32  C   UNL     1      -1.629  10.889  18.002  0.00  0.00    +0.000 A 
ATOM     33  C   UNL     1      -1.803   9.861  17.064  0.00  0.00    +0.000 A 
ATOM     34  C   UNL     1      -2.998   9.757  16.362  0.00  0.00    +0.000 A 
ATOM     35  C   UNL     1      -4.005  10.694  16.587  0.00  0.00    +0.000 A 
ATOM     36  C   UNL     1      -3.823  11.713  17.530  0.00  0.00    +0.000 A 
ATOM     37  F   UNL     1      -4.819  12.589  17.727  0.00  0.00    +0.000 F 
ENDBRANCH  29  31
ENDBRANCH   6  27
TORSDOF 5
ENDMDL
MODEL 6
REMARK VINA RESULT:      -6.4      0.819      1.377
REMARK  Name = 
REMARK  9 active torsions:
REMARK  status: ('A' for Active; 'I' for Inactive)
REMARK    1  A    between atoms: C_1  and  C_2
REMARK    2  A    between atoms: C_2  and  C_3
REMARK    3  A    between atoms: C_2  and  C_4
REMARK    4  A    between atoms: C_2  and  N_5
REMARK    5  A    between atoms: C_6  and  C_8
REMARK    6  A    between atoms: N_9  and  C_10
REMARK    7  A    between atoms: C_19  and  C_20
REMARK    8  A    between atoms: N_22  and  C_23
REMARK    9  A    between atoms: C_30  and  C_31
REMARK                            x       y       z     vdW  Elec       q    Type
REMARK                         _______ _______ _______ _____ _____    ______ ____
ROOT
ATOM      1  C   UNL     1       8.934  15.517  19.919  0.00  0.00    +0.000 C 
ATOM      2  N   UNL     1       8.220  16.221  18.854  0.00  0.00    +0.000 N 
ATOM      3  C   UNL     1       8.423  17.539  19.211  0.00  0.00    +0.000 C 
ATOM      4  O   UNL     1       8.507  18.497  18.463  0.00  0.00    +0.000 OA
ATOM      5  C   UNL     1       8.754  17.568  20.656  0.00  0.00    +0.000 C 
ATOM      6  C   UNL     1       8.161  17.188  22.062  0.00  0.00    +0.000 C 
ATOM      7  C   UNL     1       9.576  17.286  22.749  0.00  0.00    +0.000 C 
ATOM      8  C   UNL     1       9.633  18.298  23.873  0.00  0.00    +0.000 C 
ATOM      9  C   UNL     1      10.450  16.090  22.856  0.00  0.00    +0.000 C 
ATOM     10  C   UNL     1      10.755  15.744  21.596  0.00  0.00    +0.000 C 
ATOM     11  C   UNL     1      10.061  16.656  20.578  0.00  0.00    +0.000 C 
ATOM     12  O   UNL     1      10.353  17.735  21.592  0.00  0.00    +0.000 OA
ENDROOT
BRANCH   2  13
ATOM     13  C   UNL     1       6.855  15.993  18.455  0.00  0.00    +0.000 A 
ATOM     14  C   UNL     1       5.858  16.906  18.869  0.00  0.00    +0.000 A 
ATOM     15  C   UNL     1       4.515  16.563  18.868  0.00  0.00    +0.000 A 
ATOM     16  C   UNL     1       4.182  15.329  18.361  0.00  0.00    +0.000 A 
ATOM     17  N   UNL     1       5.086  14.470  17.833  0.00  0.00    +0.000 NA
ATOM     18  C   UNL     1       6.397  14.825  17.874  0.00  0.00    +0.000 A 
ENDBRANCH   2  13
BRANCH   1  20
ATOM     19  N   UNL     1      10.302  14.008  18.574  0.00  0.00    +0.000 N 
ATOM     20  C   UNL     1       9.435  14.080  19.674  0.00  0.00    +0.000 C 
ATOM     21  O   UNL     1       9.152  13.132  20.398  0.00  0.00    +0.000 OA
ATOM     22  H   UNL     1      10.447  14.862  18.032  0.00  0.00    +0.000 HD
BRANCH  19  24
ATOM     23  C   UNL     1      10.221  11.648  17.822  0.00  0.00    +0.000 C 
ATOM     24  C   UNL     1      11.106  12.858  18.135  0.00  0.00    +0.000 C 
ATOM     25  C   UNL     1      12.156  12.507  19.198  0.00  0.00    +0.000 C 
ATOM     26  C   UNL     1      11.852  13.254  16.841  0.00  0.00    +0.000 C 
ENDBRANCH  19  24
ENDBRANCH   1  20
BRANCH   6  27
ATOM     27  C   UNL     1       7.518  15.835  22.539  0.00  0.00    +0.000 C 
ATOM     28  O   UNL     1       6.639  15.290  21.865  0.00  0.00    +0.000 OA
ATOM     29  N   UNL     1       7.838  15.298  23.767  0.00  0.00    +0.000 N 
ATOM     30  H   UNL     1       8.281  15.864  24.484  0.00  0.00    +0.000 HD
BRANCH  29  31
ATOM     31  C   UNL     1       7.386  13.995  24.195  0.00  0.00    +0.000 A 
ATOM     32  C   UNL     1       8.063  12.795  23.903  0.00  0.00    +0.000 A 
ATOM     33  C   UNL     1       7.616  11.557  24.387  0.00  0.00    +0.000 A 
ATOM     34  C   UNL     1       6.475  11.491  25.176  0.00  0.00    +0.000 A 
ATOM     35  C   UNL     1       5.773  12.661  25.460  0.00  0.00    +0.000 A 
ATOM     36  C   UNL     1       6.230  13.893  24.977  0.00  0.00    +0.000 A 
ATOM     37  F   UNL     1       5.535  14.999  25.280  0.00  0.00    +0.000 F 
ENDBRANCH  29  31
ENDBRANCH   6  27
TORSDOF 5
ENDMDL
MODEL 7
REMARK VINA RESULT:      -6.4      0.734      1.228
REMARK  Name = 
REMARK  9 active torsions:
REMARK  status: ('A' for Active; 'I' for Inactive)
REMARK    1  A    between atoms: C_1  and  C_2
REMARK    2  A    between atoms: C_2  and  C_3
REMARK    3  A    between atoms: C_2  and  C_4
REMARK    4  A    between atoms: C_2  and  N_5
REMARK    5  A    between atoms: C_6  and  C_8
REMARK    6  A    between atoms: N_9  and  C_10
REMARK    7  A    between atoms: C_19  and  C_20
REMARK    8  A    between atoms: N_22  and  C_23
REMARK    9  A    between atoms: C_30  and  C_31
REMARK                            x       y       z     vdW  Elec       q    Type
REMARK                         _______ _______ _______ _____ _____    ______ ____
ROOT
ATOM      1  C   UNL     1       8.470  15.445  20.234  0.00  0.00    +0.000 C 
ATOM      2  N   UNL     1       7.701  16.203  19.248  0.00  0.00    +0.000 N 
ATOM      3  C   UNL     1       8.029  17.502  19.582  0.00  0.00    +0.000 C 
ATOM      4  O   UNL     1       8.102  18.457  18.829  0.00  0.00    +0.000 OA
ATOM      5  C   UNL     1       8.507  17.499  20.986  0.00  0.00    +0.000 C 
ATOM      6  C   UNL     1       8.037  17.149  22.446  0.00  0.00    +0.000 C 
ATOM      7  C   UNL     1       9.518  17.146  22.984  0.00  0.00    +0.000 C 
ATOM      8  C   UNL     1       9.758  18.144  24.096  0.00  0.00    +0.000 C 
ATOM      9  C   UNL     1      10.314  15.893  23.001  0.00  0.00    +0.000 C 
ATOM     10  C   UNL     1      10.465  15.536  21.717  0.00  0.00    +0.000 C 
ATOM     11  C   UNL     1       9.735  16.500  20.775  0.00  0.00    +0.000 C 
ATOM     12  O   UNL     1      10.201  17.550  21.753  0.00  0.00    +0.000 OA
ENDROOT
BRANCH   2  13
ATOM     13  C   UNL     1       6.290  16.071  18.991  0.00  0.00    +0.000 A 
ATOM     14  C   UNL     1       5.838  15.007  18.176  0.00  0.00    +0.000 A 
ATOM     15  C   UNL     1       4.590  15.036  17.573  0.00  0.00    +0.000 A 
ATOM     16  C   UNL     1       3.771  16.098  17.875  0.00  0.00    +0.000 A 
ATOM     17  N   UNL     1       4.106  17.075  18.750  0.00  0.00    +0.000 NA
ATOM     18  C   UNL     1       5.347  17.033  19.303  0.00  0.00    +0.000 A 
ENDBRANCH   2  13
BRANCH   1  20
ATOM     19  N   UNL     1       9.688  13.868  18.825  0.00  0.00    +0.000 N 
ATOM     20  C   UNL     1       8.845  13.979  19.939  0.00  0.00    +0.000 C 
ATOM     21  O   UNL     1       8.491  13.037  20.639  0.00  0.00    +0.000 OA
ATOM     22  H   UNL     1       9.898  14.723  18.306  0.00  0.00    +0.000 HD
BRANCH  19  24
ATOM     23  C   UNL     1       9.399  11.546  18.008  0.00  0.00    +0.000 C 
ATOM     24  C   UNL     1      10.387  12.669  18.340  0.00  0.00    +0.000 C 
ATOM     25  C   UNL     1      11.420  12.200  19.373  0.00  0.00    +0.000 C 
ATOM     26  C   UNL     1      11.144  13.039  17.044  0.00  0.00    +0.000 C 
ENDBRANCH  19  24
ENDBRANCH   1  20
BRANCH   6  27
ATOM     27  C   UNL     1       7.355  15.840  22.986  0.00  0.00    +0.000 C 
ATOM     28  O   UNL     1       6.396  15.343  22.388  0.00  0.00    +0.000 OA
ATOM     29  N   UNL     1       7.737  15.293  24.191  0.00  0.00    +0.000 N 
ATOM     30  H   UNL     1       8.267  15.837  24.866  0.00  0.00    +0.000 HD
BRANCH  29  31
ATOM     31  C   UNL     1       7.245  14.022  24.667  0.00  0.00    +0.000 A 
ATOM     32  C   UNL     1       6.100  13.877  25.475  0.00  0.00    +0.000 A 
ATOM     33  C   UNL     1       5.627  12.617  25.868  0.00  0.00    +0.000 A 
ATOM     34  C   UNL     1       6.293  11.467  25.461  0.00  0.00    +0.000 A 
ATOM     35  C   UNL     1       7.442  11.585  24.681  0.00  0.00    +0.000 A 
ATOM     36  C   UNL     1       7.903  12.847  24.288  0.00  0.00    +0.000 A 
ATOM     37  F   UNL     1       9.005  12.920  23.528  0.00  0.00    +0.000 F 
ENDBRANCH  29  31
ENDBRANCH   6  27
TORSDOF 5
ENDMDL
MODEL 8
REMARK VINA RESULT:      -6.3      7.797     11.265
REMARK  Name = 
REMARK  9 active torsions:
REMARK  status: ('A' for Active; 'I' for Inactive)
REMARK    1  A    between atoms: C_1  and  C_2
REMARK    2  A    between atoms: C_2  and  C_3
REMARK    3  A    between atoms: C_2  and  C_4
REMARK    4  A    between atoms: C_2  and  N_5
REMARK    5  A    between atoms: C_6  and  C_8
REMARK    6  A    between atoms: N_9  and  C_10
REMARK    7  A    between atoms: C_19  and  C_20
REMARK    8  A    between atoms: N_22  and  C_23
REMARK    9  A    between atoms: C_30  and  C_31
REMARK                            x       y       z     vdW  Elec       q    Type
REMARK                         _______ _______ _______ _____ _____    ______ ____
ROOT
ATOM      1  C   UNL     1      -0.895  12.973  22.271  0.00  0.00    +0.000 C 
ATOM      2  N   UNL     1       0.116  14.015  22.449  0.00  0.00    +0.000 N 
ATOM      3  C   UNL     1      -0.665  15.099  22.797  0.00  0.00    +0.000 C 
ATOM      4  O   UNL     1      -0.353  16.025  23.524  0.00  0.00    +0.000 OA
ATOM      5  C   UNL     1      -2.043  14.834  22.317  0.00  0.00    +0.000 C 
ATOM      6  C   UNL     1      -2.857  14.560  20.999  0.00  0.00    +0.000 C 
ATOM      7  C   UNL     1      -4.096  14.018  21.808  0.00  0.00    +0.000 C 
ATOM      8  C   UNL     1      -5.370  14.793  21.551  0.00  0.00    +0.000 C 
ATOM      9  C   UNL     1      -4.222  12.572  22.120  0.00  0.00    +0.000 C 
ATOM     10  C   UNL     1      -3.191  12.278  22.927  0.00  0.00    +0.000 C 
ATOM     11  C   UNL     1      -2.291  13.498  23.155  0.00  0.00    +0.000 C 
ATOM     12  O   UNL     1      -3.596  14.255  23.163  0.00  0.00    +0.000 OA
ENDROOT
BRANCH   2  13
ATOM     13  C   UNL     1       1.127  14.386  21.494  0.00  0.00    +0.000 A 
ATOM     14  C   UNL     1       0.900  15.498  20.650  0.00  0.00    +0.000 A 
ATOM     15  C   UNL     1       1.615  15.676  19.477  0.00  0.00    +0.000 A 
ATOM     16  C   UNL     1       2.621  14.777  19.212  0.00  0.00    +0.000 A 
ATOM     17  N   UNL     1       2.965  13.772  20.051  0.00  0.00    +0.000 NA
ATOM     18  C   UNL     1       2.226  13.608  21.180  0.00  0.00    +0.000 A 
ENDBRANCH   2  13
BRANCH   1  20
ATOM     19  N   UNL     1      -0.145  10.934  21.160  0.00  0.00    +0.000 N 
ATOM     20  C   UNL     1      -0.487  11.492  22.400  0.00  0.00    +0.000 C 
ATOM     21  O   UNL     1      -0.415  10.901  23.471  0.00  0.00    +0.000 OA
ATOM     22  H   UNL     1      -0.265  11.519  20.331  0.00  0.00    +0.000 HD
BRANCH  19  24
ATOM     23  C   UNL     1       0.936   9.500  19.452  0.00  0.00    +0.000 C 
ATOM     24  C   UNL     1       0.449   9.614  20.900  0.00  0.00    +0.000 C 
ATOM     25  C   UNL     1      -0.559   8.504  21.227  0.00  0.00    +0.000 C 
ATOM     26  C   UNL     1       1.670   9.439  21.831  0.00  0.00    +0.000 C 
ENDBRANCH  19  24
ENDBRANCH   1  20
BRANCH   6  27
ATOM     27  C   UNL     1      -2.575  13.522  19.853  0.00  0.00    +0.000 C 
ATOM     28  O   UNL     1      -1.436  13.394  19.392  0.00  0.00    +0.000 OA
ATOM     29  N   UNL     1      -3.607  12.825  19.263  0.00  0.00    +0.000 N 
ATOM     30  H   UNL     1      -4.569  13.134  19.366  0.00  0.00    +0.000 HD
BRANCH  29  31
ATOM     31  C   UNL     1      -3.393  11.765  18.308  0.00  0.00    +0.000 A 
ATOM     32  C   UNL     1      -2.386  10.787  18.433  0.00  0.00    +0.000 A 
ATOM     33  C   UNL     1      -2.251   9.742  17.508  0.00  0.00    +0.000 A 
ATOM     34  C   UNL     1      -3.122   9.652  16.429  0.00  0.00    +0.000 A 
ATOM     35  C   UNL     1      -4.113  10.620  16.270  0.00  0.00    +0.000 A 
ATOM     36  C   UNL     1      -4.244  11.656  17.203  0.00  0.00    +0.000 A 
ATOM     37  F   UNL     1      -5.216  12.563  17.023  0.00  0.00    +0.000 F 
ENDBRANCH  29  31
ENDBRANCH   6  27
TORSDOF 5
ENDMDL
MODEL 9
REMARK VINA RESULT:      -6.3      1.665      2.010
REMARK  Name = 
REMARK  9 active torsions:
REMARK  status: ('A' for Active; 'I' for Inactive)
REMARK    1  A    between atoms: C_1  and  C_2
REMARK    2  A    between atoms: C_2  and  C_3
REMARK    3  A    between atoms: C_2  and  C_4
REMARK    4  A    between atoms: C_2  and  N_5
REMARK    5  A    between atoms: C_6  and  C_8
REMARK    6  A    between atoms: N_9  and  C_10
REMARK    7  A    between atoms: C_19  and  C_20
REMARK    8  A    between atoms: N_22  and  C_23
REMARK    9  A    between atoms: C_30  and  C_31
REMARK                            x       y       z     vdW  Elec       q    Type
REMARK                         _______ _______ _______ _____ _____    ______ ____
ROOT
ATOM      1  C   UNL     1       9.671  15.662  18.856  0.00  0.00    +0.000 C 
ATOM      2  N   UNL     1       8.507  16.328  18.272  0.00  0.00    +0.000 N 
ATOM      3  C   UNL     1       8.765  17.649  18.579  0.00  0.00    +0.000 C 
ATOM      4  O   UNL     1       8.438  18.630  17.934  0.00  0.00    +0.000 OA
ATOM      5  C   UNL     1       9.713  17.671  19.719  0.00  0.00    +0.000 C 
ATOM      6  C   UNL     1       9.850  17.206  21.215  0.00  0.00    +0.000 C 
ATOM      7  C   UNL     1      11.413  17.407  21.195  0.00  0.00    +0.000 C 
ATOM      8  C   UNL     1      11.908  18.391  22.232  0.00  0.00    +0.000 C 
ATOM      9  C   UNL     1      12.316  16.288  20.823  0.00  0.00    +0.000 C 
ATOM     10  C   UNL     1      12.037  16.001  19.543  0.00  0.00    +0.000 C 
ATOM     11  C   UNL     1      10.899  16.876  19.005  0.00  0.00    +0.000 C 
ATOM     12  O   UNL     1      11.548  17.950  19.842  0.00  0.00    +0.000 OA
ENDROOT
BRANCH   2  13
ATOM     13  C   UNL     1       7.129  15.994  18.518  0.00  0.00    +0.000 A 
ATOM     14  C   UNL     1       6.494  16.508  19.673  0.00  0.00    +0.000 A 
ATOM     15  C   UNL     1       5.336  15.937  20.179  0.00  0.00    +0.000 A 
ATOM     16  C   UNL     1       4.777  14.908  19.458  0.00  0.00    +0.000 A 
ATOM     17  N   UNL     1       5.273  14.466  18.279  0.00  0.00    +0.000 NA
ATOM     18  C   UNL     1       6.425  15.028  17.824  0.00  0.00    +0.000 A 
ENDBRANCH   2  13
BRANCH   1  20
ATOM     19  N   UNL     1      10.007  13.287  19.310  0.00  0.00    +0.000 N 
ATOM     20  C   UNL     1      10.099  14.279  18.323  0.00  0.00    +0.000 C 
ATOM     21  O   UNL     1      10.420  14.073  17.158  0.00  0.00    +0.000 OA
ATOM     22  H   UNL     1       9.747  13.583  20.253  0.00  0.00    +0.000 HD
BRANCH  19  24
ATOM     23  C   UNL     1       9.318  11.313  17.979  0.00  0.00    +0.000 C 
ATOM     24  C   UNL     1      10.165  11.835  19.144  0.00  0.00    +0.000 C 
ATOM     25  C   UNL     1       9.807  11.109  20.448  0.00  0.00    +0.000 C 
ATOM     26  C   UNL     1      11.648  11.540  18.827  0.00  0.00    +0.000 C 
ENDBRANCH  19  24
ENDBRANCH   1  20
BRANCH   6  27
ATOM     27  C   UNL     1       9.583  15.791  21.846  0.00  0.00    +0.000 C 
ATOM     28  O   UNL     1      10.473  14.935  21.859  0.00  0.00    +0.000 OA
ATOM     29  N   UNL     1       8.325  15.443  22.287  0.00  0.00    +0.000 N 
ATOM     30  H   UNL     1       7.506  15.968  21.994  0.00  0.00    +0.000 HD
BRANCH  29  31
ATOM     31  C   UNL     1       8.054  14.216  22.998  0.00  0.00    +0.000 A 
ATOM     32  C   UNL     1       7.490  13.071  22.401  0.00  0.00    +0.000 A 
ATOM     33  C   UNL     1       7.296  11.882  23.118  0.00  0.00    +0.000 A 
ATOM     34  C   UNL     1       7.662  11.811  24.457  0.00  0.00    +0.000 A 
ATOM     35  C   UNL     1       8.201  12.937  25.077  0.00  0.00    +0.000 A 
ATOM     36  C   UNL     1       8.397  14.118  24.351  0.00  0.00    +0.000 A 
ATOM     37  F   UNL     1       8.928  15.177  24.979  0.00  0.00    +0.000 F 
ENDBRANCH  29  31
ENDBRANCH   6  27
TORSDOF 5
ENDMDL
