MODEL 1
REMARK VINA RESULT:      -5.5      0.000      0.000
REMARK  Name = 
REMARK  14 active torsions:
REMARK  status: ('A' for Active; 'I' for Inactive)
REMARK    1  A    between atoms: C_1  and  C_2
REMARK    2  A    between atoms: C_2  and  O_4
REMARK    3  A    between atoms: O_4  and  C_5
REMARK    4  A    between atoms: C_8  and  N_9
REMARK    5  A    between atoms: C_10  and  N_11
REMARK    6  A    between atoms: C_12  and  C_13
REMARK    7  A    between atoms: C_15  and  C_16
REMARK    8  A    between atoms: C_17  and  C_18
REMARK    9  A    between atoms: C_22  and  O_23
REMARK   10  A    between atoms: O_23  and  C_24
REMARK   11  A    between atoms: C_24  and  C_25
REMARK   12  A    between atoms: C_27  and  O_28
REMARK   13  A    between atoms: O_28  and  C_29
REMARK   14  A    between atoms: C_29  and  C_30
REMARK                            x       y       z     vdW  Elec       q    Type
REMARK                         _______ _______ _______ _____ _____    ______ ____
ROOT
ATOM      1  C   UNL     1      -5.149  12.031  20.608  0.00  0.00    +0.000 C 
ATOM      2  C   UNL     1      -4.653  12.208  19.178  0.00  0.00    +0.000 C 
ATOM      3  O   UNL     1      -3.236  12.121  19.115  0.00  0.00    +0.000 OA
ATOM      4  C   UNL     1      -2.593  13.156  19.889  0.00  0.00    +0.000 C 
ATOM      5  C   UNL     1      -2.892  12.979  21.406  0.00  0.00    +0.000 C 
ATOM      6  C   UNL     1      -4.424  12.929  21.630  0.00  0.00    +0.000 C 
ENDROOT
BRANCH   4   7
ATOM      7  N   UNL     1      -1.145  13.191  19.526  0.00  0.00    +0.000 N 
ATOM      8  C   UNL     1      -0.469  11.984  19.205  0.00  0.00    +0.000 A 
ATOM      9  C   UNL     1       0.814  12.028  18.766  0.00  0.00    +0.000 A 
ATOM     10  C   UNL     1       1.539  13.284  18.656  0.00  0.00    +0.000 A 
ATOM     11  C   UNL     1       2.984  13.289  18.188  0.00  0.00    +0.000 C 
ATOM     12  C   UNL     1       0.937  14.424  19.043  0.00  0.00    +0.000 A 
ATOM     13  C   UNL     1      -0.459  14.436  19.593  0.00  0.00    +0.000 A 
ATOM     14  S   UNL     1      -1.130  15.863  20.233  0.00  0.00    +0.000 S 
BRANCH   8  15
ATOM     15  N   UNL     1      -1.101  10.759  19.390  0.00  0.00    +0.000 N 
ATOM     16  H   UNL     1      -0.740  10.272  20.214  0.00  0.00    +0.000 HD
ATOM     17  H   UNL     1      -2.119  10.765  19.386  0.00  0.00    +0.000 HD
ENDBRANCH   8  15
BRANCH   9  18
ATOM     18  C   UNL     1       1.482  10.808  18.419  0.00  0.00    +0.000 C 
ATOM     19  N   UNL     1       1.987   9.798  18.154  0.00  0.00    +0.000 NA
ENDBRANCH   9  18
BRANCH  12  20
ATOM     20  C   UNL     1       1.737  15.715  18.986  0.00  0.00    +0.000 C 
ATOM     21  N   UNL     1       2.400  16.787  18.940  0.00  0.00    +0.000 NA
ENDBRANCH  12  20
ENDBRANCH   4   7
BRANCH   1  22
ATOM     22  O   UNL     1      -6.594  12.135  20.695  0.00  0.00    +0.000 OA
BRANCH  22  24
ATOM     23  C   UNL     1      -7.323  10.025  19.973  0.00  0.00    +0.000 C 
ATOM     24  C   UNL     1      -7.300  11.035  21.074  0.00  0.00    +0.000 C 
ATOM     25  O   UNL     1      -7.868  10.901  22.147  0.00  0.00    +0.000 OA
ENDBRANCH  22  24
ENDBRANCH   1  22
BRANCH   5  26
ATOM     26  O   UNL     1      -2.309  11.752  21.913  0.00  0.00    +0.000 OA
BRANCH  26  27
ATOM     27  C   UNL     1      -1.278  11.911  22.792  0.00  0.00    +0.000 C 
ATOM     28  C   UNL     1      -1.108  13.352  23.156  0.00  0.00    +0.000 C 
ATOM     29  O   UNL     1      -0.596  11.012  23.265  0.00  0.00    +0.000 OA
ENDBRANCH  26  27
ENDBRANCH   5  26
BRANCH   6  30
ATOM     30  O   UNL     1      -4.723  12.358  22.935  0.00  0.00    +0.000 OA
BRANCH  30  31
ATOM     31  C   UNL     1      -4.664  13.183  24.010  0.00  0.00    +0.000 C 
ATOM     32  C   UNL     1      -5.478  14.416  23.743  0.00  0.00    +0.000 C 
ATOM     33  O   UNL     1      -4.090  12.934  25.056  0.00  0.00    +0.000 OA
ENDBRANCH  30  31
ENDBRANCH   6  30
TORSDOF 10
ENDMDL
MODEL 2
REMARK VINA RESULT:      -5.1      0.841      1.048
REMARK  Name = 
REMARK  14 active torsions:
REMARK  status: ('A' for Active; 'I' for Inactive)
REMARK    1  A    between atoms: C_1  and  C_2
REMARK    2  A    between atoms: C_2  and  O_4
REMARK    3  A    between atoms: O_4  and  C_5
REMARK    4  A    between atoms: C_8  and  N_9
REMARK    5  A    between atoms: C_10  and  N_11
REMARK    6  A    between atoms: C_12  and  C_13
REMARK    7  A    between atoms: C_15  and  C_16
REMARK    8  A    between atoms: C_17  and  C_18
REMARK    9  A    between atoms: C_22  and  O_23
REMARK   10  A    between atoms: O_23  and  C_24
REMARK   11  A    between atoms: C_24  and  C_25
REMARK   12  A    between atoms: C_27  and  O_28
REMARK   13  A    between atoms: O_28  and  C_29
REMARK   14  A    between atoms: C_29  and  C_30
REMARK                            x       y       z     vdW  Elec       q    Type
REMARK                         _______ _______ _______ _____ _____    ______ ____
ROOT
ATOM      1  C   UNL     1      -4.986  12.053  20.471  0.00  0.00    +0.000 C 
ATOM      2  C   UNL     1      -4.458  12.290  19.061  0.00  0.00    +0.000 C 
ATOM      3  O   UNL     1      -3.046  12.143  19.013  0.00  0.00    +0.000 OA
ATOM      4  C   UNL     1      -2.371  13.102  19.855  0.00  0.00    +0.000 C 
ATOM      5  C   UNL     1      -2.703  12.851  21.355  0.00  0.00    +0.000 C 
ATOM      6  C   UNL     1      -4.239  12.857  21.555  0.00  0.00    +0.000 C 
ENDROOT
BRANCH   4   7
ATOM      7  N   UNL     1      -0.917  13.093  19.515  0.00  0.00    +0.000 N 
ATOM      8  C   UNL     1      -0.286  11.874  19.152  0.00  0.00    +0.000 A 
ATOM      9  C   UNL     1       1.006  11.884  18.733  0.00  0.00    +0.000 A 
ATOM     10  C   UNL     1       1.782  13.112  18.689  0.00  0.00    +0.000 A 
ATOM     11  C   UNL     1       3.233  13.078  18.243  0.00  0.00    +0.000 C 
ATOM     12  C   UNL     1       1.221  14.259  19.117  0.00  0.00    +0.000 A 
ATOM     13  C   UNL     1      -0.183  14.305  19.647  0.00  0.00    +0.000 A 
ATOM     14  S   UNL     1      -0.806  15.729  20.339  0.00  0.00    +0.000 S 
BRANCH   8  15
ATOM     15  N   UNL     1      -0.970  10.669  19.273  0.00  0.00    +0.000 N 
ATOM     16  H   UNL     1      -1.531  10.472  18.441  0.00  0.00    +0.000 HD
ATOM     17  H   UNL     1      -0.420   9.858  19.545  0.00  0.00    +0.000 HD
ENDBRANCH   8  15
BRANCH   9  18
ATOM     18  C   UNL     1       1.628  10.654  18.343  0.00  0.00    +0.000 C 
ATOM     19  N   UNL     1       2.122   9.641  18.066  0.00  0.00    +0.000 NA
ENDBRANCH   9  18
BRANCH  12  20
ATOM     20  C   UNL     1       2.073  15.517  19.129  0.00  0.00    +0.000 C 
ATOM     21  N   UNL     1       2.780  16.562  19.139  0.00  0.00    +0.000 NA
ENDBRANCH  12  20
ENDBRANCH   4   7
BRANCH   1  22
ATOM     22  O   UNL     1      -6.426  12.217  20.544  0.00  0.00    +0.000 OA
BRANCH  22  24
ATOM     23  C   UNL     1      -7.916  10.524  21.194  0.00  0.00    +0.000 C 
ATOM     24  C   UNL     1      -7.216  11.216  20.068  0.00  0.00    +0.000 C 
ATOM     25  O   UNL     1      -7.316  10.899  18.893  0.00  0.00    +0.000 OA
ENDBRANCH  22  24
ENDBRANCH   1  22
BRANCH   5  26
ATOM     26  O   UNL     1      -2.182  11.572  21.797  0.00  0.00    +0.000 OA
BRANCH  26  27
ATOM     27  C   UNL     1      -1.201  11.633  22.742  0.00  0.00    +0.000 C 
ATOM     28  C   UNL     1      -0.766  10.260  23.145  0.00  0.00    +0.000 C 
ATOM     29  O   UNL     1      -0.699  12.657  23.189  0.00  0.00    +0.000 OA
ENDBRANCH  26  27
ENDBRANCH   5  26
BRANCH   6  30
ATOM     30  O   UNL     1      -4.584  12.226  22.820  0.00  0.00    +0.000 OA
BRANCH  30  31
ATOM     31  C   UNL     1      -5.411  12.904  23.654  0.00  0.00    +0.000 C 
ATOM     32  C   UNL     1      -5.346  14.371  23.344  0.00  0.00    +0.000 C 
ATOM     33  O   UNL     1      -6.142  12.394  24.485  0.00  0.00    +0.000 OA
ENDBRANCH  30  31
ENDBRANCH   6  30
TORSDOF 10
ENDMDL
MODEL 3
REMARK VINA RESULT:      -4.9      3.270      7.494
REMARK  Name = 
REMARK  14 active torsions:
REMARK  status: ('A' for Active; 'I' for Inactive)
REMARK    1  A    between atoms: C_1  and  C_2
REMARK    2  A    between atoms: C_2  and  O_4
REMARK    3  A    between atoms: O_4  and  C_5
REMARK    4  A    between atoms: C_8  and  N_9
REMARK    5  A    between atoms: C_10  and  N_11
REMARK    6  A    between atoms: C_12  and  C_13
REMARK    7  A    between atoms: C_15  and  C_16
REMARK    8  A    between atoms: C_17  and  C_18
REMARK    9  A    between atoms: C_22  and  O_23
REMARK   10  A    between atoms: O_23  and  C_24
REMARK   11  A    between atoms: C_24  and  C_25
REMARK   12  A    between atoms: C_27  and  O_28
REMARK   13  A    between atoms: O_28  and  C_29
REMARK   14  A    between atoms: C_29  and  C_30
REMARK                            x       y       z     vdW  Elec       q    Type
REMARK                         _______ _______ _______ _____ _____    ______ ____
ROOT
ATOM      1  C   UNL     1       1.207  13.428  18.932  0.00  0.00    +0.000 C 
ATOM      2  C   UNL     1       0.321  14.639  19.196  0.00  0.00    +0.000 C 
ATOM      3  O   UNL     1      -0.588  14.384  20.259  0.00  0.00    +0.000 OA
ATOM      4  C   UNL     1      -1.485  13.294  19.957  0.00  0.00    +0.000 C 
ATOM      5  C   UNL     1      -0.704  11.954  19.828  0.00  0.00    +0.000 C 
ATOM      6  C   UNL     1       0.423  12.109  18.778  0.00  0.00    +0.000 C 
ENDROOT
BRANCH   4   7
ATOM      7  N   UNL     1      -2.588  13.294  20.963  0.00  0.00    +0.000 N 
ATOM      8  C   UNL     1      -2.335  13.742  22.287  0.00  0.00    +0.000 A 
ATOM      9  C   UNL     1      -3.362  13.849  23.168  0.00  0.00    +0.000 A 
ATOM     10  C   UNL     1      -4.718  13.472  22.807  0.00  0.00    +0.000 A 
ATOM     11  C   UNL     1      -5.835  13.578  23.831  0.00  0.00    +0.000 C 
ATOM     12  C   UNL     1      -4.953  12.962  21.583  0.00  0.00    +0.000 A 
ATOM     13  C   UNL     1      -3.852  12.762  20.583  0.00  0.00    +0.000 A 
ATOM     14  S   UNL     1      -4.147  11.958  19.113  0.00  0.00    +0.000 S 
BRANCH   8  15
ATOM     15  N   UNL     1      -1.034  14.019  22.694  0.00  0.00    +0.000 N 
ATOM     16  H   UNL     1      -0.353  13.754  21.978  0.00  0.00    +0.000 HD
ATOM     17  H   UNL     1      -0.855  14.960  23.038  0.00  0.00    +0.000 HD
ENDBRANCH   8  15
BRANCH   9  18
ATOM     18  C   UNL     1      -3.103  14.327  24.495  0.00  0.00    +0.000 C 
ATOM     19  N   UNL     1      -2.870  14.745  25.551  0.00  0.00    +0.000 NA
ENDBRANCH   9  18
BRANCH  12  20
ATOM     20  C   UNL     1      -6.365  12.508  21.252  0.00  0.00    +0.000 C 
ATOM     21  N   UNL     1      -7.537  12.132  20.976  0.00  0.00    +0.000 NA
ENDBRANCH  12  20
ENDBRANCH   4   7
BRANCH   1  22
ATOM     22  O   UNL     1       2.130  13.663  17.836  0.00  0.00    +0.000 OA
BRANCH  22  24
ATOM     23  C   UNL     1       3.802  14.388  19.314  0.00  0.00    +0.000 C 
ATOM     24  C   UNL     1       3.111  14.591  18.005  0.00  0.00    +0.000 C 
ATOM     25  O   UNL     1       3.371  15.489  17.218  0.00  0.00    +0.000 OA
ENDBRANCH  22  24
ENDBRANCH   1  22
BRANCH   5  26
ATOM     26  O   UNL     1      -0.109  11.574  21.095  0.00  0.00    +0.000 OA
BRANCH  26  27
ATOM     27  C   UNL     1      -0.505  10.367  21.592  0.00  0.00    +0.000 C 
ATOM     28  C   UNL     1      -0.903  10.488  23.028  0.00  0.00    +0.000 C 
ATOM     29  O   UNL     1      -0.572   9.320  20.960  0.00  0.00    +0.000 OA
ENDBRANCH  26  27
ENDBRANCH   5  26
BRANCH   6  30
ATOM     30  O   UNL     1       1.407  11.048  18.934  0.00  0.00    +0.000 OA
BRANCH  30  31
ATOM     31  C   UNL     1       1.229   9.915  18.209  0.00  0.00    +0.000 C 
ATOM     32  C   UNL     1       2.510   9.133  18.176  0.00  0.00    +0.000 C 
ATOM     33  O   UNL     1       0.175   9.556  17.715  0.00  0.00    +0.000 OA
ENDBRANCH  30  31
ENDBRANCH   6  30
TORSDOF 10
ENDMDL
MODEL 4
REMARK VINA RESULT:      -4.7      9.257     10.326
REMARK  Name = 
REMARK  14 active torsions:
REMARK  status: ('A' for Active; 'I' for Inactive)
REMARK    1  A    between atoms: C_1  and  C_2
REMARK    2  A    between atoms: C_2  and  O_4
REMARK    3  A    between atoms: O_4  and  C_5
REMARK    4  A    between atoms: C_8  and  N_9
REMARK    5  A    between atoms: C_10  and  N_11
REMARK    6  A    between atoms: C_12  and  C_13
REMARK    7  A    between atoms: C_15  and  C_16
REMARK    8  A    between atoms: C_17  and  C_18
REMARK    9  A    between atoms: C_22  and  O_23
REMARK   10  A    between atoms: O_23  and  C_24
REMARK   11  A    between atoms: C_24  and  C_25
REMARK   12  A    between atoms: C_27  and  O_28
REMARK   13  A    between atoms: O_28  and  C_29
REMARK   14  A    between atoms: C_29  and  C_30
REMARK                            x       y       z     vdW  Elec       q    Type
REMARK                         _______ _______ _______ _____ _____    ______ ____
ROOT
ATOM      1  C   UNL     1       5.614  11.771  25.735  0.00  0.00    +0.000 C 
ATOM      2  C   UNL     1       5.589  11.114  24.360  0.00  0.00    +0.000 C 
ATOM      3  O   UNL     1       6.610  11.640  23.524  0.00  0.00    +0.000 OA
ATOM      4  C   UNL     1       6.446  13.055  23.290  0.00  0.00    +0.000 C 
ATOM      5  C   UNL     1       6.622  13.858  24.612  0.00  0.00    +0.000 C 
ATOM      6  C   UNL     1       5.646  13.312  25.684  0.00  0.00    +0.000 C 
ENDROOT
BRANCH   4   7
ATOM      7  N   UNL     1       7.352  13.461  22.175  0.00  0.00    +0.000 N 
ATOM      8  C   UNL     1       8.568  12.758  21.963  0.00  0.00    +0.000 A 
ATOM      9  C   UNL     1       9.335  13.052  20.882  0.00  0.00    +0.000 A 
ATOM     10  C   UNL     1       8.967  14.107  19.951  0.00  0.00    +0.000 A 
ATOM     11  C   UNL     1       9.867  14.426  18.770  0.00  0.00    +0.000 C 
ATOM     12  C   UNL     1       7.863  14.839  20.193  0.00  0.00    +0.000 A 
ATOM     13  C   UNL     1       7.005  14.604  21.402  0.00  0.00    +0.000 A 
ATOM     14  S   UNL     1       5.718  15.653  21.772  0.00  0.00    +0.000 S 
BRANCH   8  15
ATOM     15  N   UNL     1       8.997  11.810  22.885  0.00  0.00    +0.000 N 
ATOM     16  H   UNL     1       8.312  11.059  22.996  0.00  0.00    +0.000 HD
ATOM     17  H   UNL     1       9.933  11.435  22.753  0.00  0.00    +0.000 HD
ENDBRANCH   8  15
BRANCH   9  18
ATOM     18  C   UNL     1      10.548  12.321  20.660  0.00  0.00    +0.000 C 
ATOM     19  N   UNL     1      11.547  11.753  20.512  0.00  0.00    +0.000 NA
ENDBRANCH   9  18
BRANCH  12  20
ATOM     20  C   UNL     1       7.537  15.982  19.246  0.00  0.00    +0.000 C 
ATOM     21  N   UNL     1       7.265  16.931  18.461  0.00  0.00    +0.000 NA
ENDBRANCH  12  20
ENDBRANCH   4   7
BRANCH   1  22
ATOM     22  O   UNL     1       4.565  11.259  26.598  0.00  0.00    +0.000 OA
BRANCH  22  24
ATOM     23  C   UNL     1       6.244  10.339  27.956  0.00  0.00    +0.000 C 
ATOM     24  C   UNL     1       4.855  10.212  27.417  0.00  0.00    +0.000 C 
ATOM     25  O   UNL     1       4.105   9.278  27.655  0.00  0.00    +0.000 OA
ENDBRANCH  22  24
ENDBRANCH   1  22
BRANCH   5  26
ATOM     26  O   UNL     1       7.976  13.743  25.117  0.00  0.00    +0.000 OA
BRANCH  26  27
ATOM     27  C   UNL     1       8.682  14.909  25.177  0.00  0.00    +0.000 C 
ATOM     28  C   UNL     1       9.417  15.018  26.474  0.00  0.00    +0.000 C 
ATOM     29  O   UNL     1       8.751  15.749  24.289  0.00  0.00    +0.000 OA
ENDBRANCH  26  27
ENDBRANCH   5  26
BRANCH   6  30
ATOM     30  O   UNL     1       6.065  13.739  27.011  0.00  0.00    +0.000 OA
BRANCH  30  31
ATOM     31  C   UNL     1       5.286  14.645  27.654  0.00  0.00    +0.000 C 
ATOM     32  C   UNL     1       6.156  15.655  28.345  0.00  0.00    +0.000 C 
ATOM     33  O   UNL     1       4.069  14.672  27.622  0.00  0.00    +0.000 OA
ENDBRANCH  30  31
ENDBRANCH   6  30
TORSDOF 10
ENDMDL
MODEL 5
REMARK VINA RESULT:      -4.6      3.336      7.407
REMARK  Name = 
REMARK  14 active torsions:
REMARK  status: ('A' for Active; 'I' for Inactive)
REMARK    1  A    between atoms: C_1  and  C_2
REMARK    2  A    between atoms: C_2  and  O_4
REMARK    3  A    between atoms: O_4  and  C_5
REMARK    4  A    between atoms: C_8  and  N_9
REMARK    5  A    between atoms: C_10  and  N_11
REMARK    6  A    between atoms: C_12  and  C_13
REMARK    7  A    between atoms: C_15  and  C_16
REMARK    8  A    between atoms: C_17  and  C_18
REMARK    9  A    between atoms: C_22  and  O_23
REMARK   10  A    between atoms: O_23  and  C_24
REMARK   11  A    between atoms: C_24  and  C_25
REMARK   12  A    between atoms: C_27  and  O_28
REMARK   13  A    between atoms: O_28  and  C_29
REMARK   14  A    between atoms: C_29  and  C_30
REMARK                            x       y       z     vdW  Elec       q    Type
REMARK                         _______ _______ _______ _____ _____    ______ ____
ROOT
ATOM      1  C   UNL     1       0.975  13.648  19.356  0.00  0.00    +0.000 C 
ATOM      2  C   UNL     1       0.091  14.877  19.177  0.00  0.00    +0.000 C 
ATOM      3  O   UNL     1      -0.867  14.972  20.222  0.00  0.00    +0.000 OA
ATOM      4  C   UNL     1      -1.763  13.840  20.242  0.00  0.00    +0.000 C 
ATOM      5  C   UNL     1      -0.993  12.532  20.587  0.00  0.00    +0.000 C 
ATOM      6  C   UNL     1       0.183  12.346  19.596  0.00  0.00    +0.000 C 
ENDROOT
BRANCH   4   7
ATOM      7  N   UNL     1      -2.911  14.158  21.143  0.00  0.00    +0.000 N 
ATOM      8  C   UNL     1      -2.696  14.936  22.311  0.00  0.00    +0.000 A 
ATOM      9  C   UNL     1      -3.755  15.322  23.067  0.00  0.00    +0.000 A 
ATOM     10  C   UNL     1      -5.113  14.918  22.738  0.00  0.00    +0.000 A 
ATOM     11  C   UNL     1      -6.269  15.344  23.626  0.00  0.00    +0.000 C 
ATOM     12  C   UNL     1      -5.318  14.107  21.683  0.00  0.00    +0.000 A 
ATOM     13  C   UNL     1      -4.184  13.598  20.842  0.00  0.00    +0.000 A 
ATOM     14  S   UNL     1      -4.454  12.439  19.626  0.00  0.00    +0.000 S 
BRANCH   8  15
ATOM     15  N   UNL     1      -1.402  15.259  22.708  0.00  0.00    +0.000 N 
ATOM     16  H   UNL     1      -0.706  14.865  22.070  0.00  0.00    +0.000 HD
ATOM     17  H   UNL     1      -1.213  16.241  22.894  0.00  0.00    +0.000 HD
ENDBRANCH   8  15
BRANCH   9  18
ATOM     18  C   UNL     1      -3.533  16.129  24.231  0.00  0.00    +0.000 C 
ATOM     19  N   UNL     1      -3.397  16.781  25.179  0.00  0.00    +0.000 NA
ENDBRANCH   9  18
BRANCH  12  20
ATOM     20  C   UNL     1      -6.736  13.640  21.399  0.00  0.00    +0.000 C 
ATOM     21  N   UNL     1      -7.914  13.254  21.164  0.00  0.00    +0.000 NA
ENDBRANCH  12  20
ENDBRANCH   4   7
BRANCH   1  22
ATOM     22  O   UNL     1       1.949  13.523  18.288  0.00  0.00    +0.000 OA
BRANCH  22  24
ATOM     23  C   UNL     1       3.718  14.369  19.578  0.00  0.00    +0.000 C 
ATOM     24  C   UNL     1       3.000  14.387  18.267  0.00  0.00    +0.000 C 
ATOM     25  O   UNL     1       3.299  15.107  17.326  0.00  0.00    +0.000 OA
ENDBRANCH  22  24
ENDBRANCH   1  22
BRANCH   5  26
ATOM     26  O   UNL     1      -0.461  12.580  21.935  0.00  0.00    +0.000 OA
BRANCH  26  27
ATOM     27  C   UNL     1      -0.807  11.534  22.740  0.00  0.00    +0.000 C 
ATOM     28  C   UNL     1      -2.227  11.657  23.190  0.00  0.00    +0.000 C 
ATOM     29  O   UNL     1      -0.084  10.592  23.038  0.00  0.00    +0.000 OA
ENDBRANCH  26  27
ENDBRANCH   5  26
BRANCH   6  30
ATOM     30  O   UNL     1       1.146  11.394  20.130  0.00  0.00    +0.000 OA
BRANCH  30  31
ATOM     31  C   UNL     1       1.066  10.111  19.698  0.00  0.00    +0.000 C 
ATOM     32  C   UNL     1       1.460  10.043  18.250  0.00  0.00    +0.000 C 
ATOM     33  O   UNL     1       0.781   9.152  20.393  0.00  0.00    +0.000 OA
ENDBRANCH  30  31
ENDBRANCH   6  30
TORSDOF 10
ENDMDL
MODEL 6
REMARK VINA RESULT:      -4.5      1.363      1.563
REMARK  Name = 
REMARK  14 active torsions:
REMARK  status: ('A' for Active; 'I' for Inactive)
REMARK    1  A    between atoms: C_1  and  C_2
REMARK    2  A    between atoms: C_2  and  O_4
REMARK    3  A    between atoms: O_4  and  C_5
REMARK    4  A    between atoms: C_8  and  N_9
REMARK    5  A    between atoms: C_10  and  N_11
REMARK    6  A    between atoms: C_12  and  C_13
REMARK    7  A    between atoms: C_15  and  C_16
REMARK    8  A    between atoms: C_17  and  C_18
REMARK    9  A    between atoms: C_22  and  O_23
REMARK   10  A    between atoms: O_23  and  C_24
REMARK   11  A    between atoms: C_24  and  C_25
REMARK   12  A    between atoms: C_27  and  O_28
REMARK   13  A    between atoms: O_28  and  C_29
REMARK   14  A    between atoms: C_29  and  C_30
REMARK                            x       y       z     vdW  Elec       q    Type
REMARK                         _______ _______ _______ _____ _____    ______ ____
ROOT
ATOM      1  C   UNL     1      -5.176  13.055  21.409  0.00  0.00    +0.000 C 
ATOM      2  C   UNL     1      -4.766  12.667  19.993  0.00  0.00    +0.000 C 
ATOM      3  O   UNL     1      -3.353  12.563  19.882  0.00  0.00    +0.000 OA
ATOM      4  C   UNL     1      -2.692  13.817  20.156  0.00  0.00    +0.000 C 
ATOM      5  C   UNL     1      -2.900  14.238  21.640  0.00  0.00    +0.000 C 
ATOM      6  C   UNL     1      -4.415  14.279  21.960  0.00  0.00    +0.000 C 
ENDROOT
BRANCH   4   7
ATOM      7  N   UNL     1      -1.269  13.709  19.720  0.00  0.00    +0.000 N 
ATOM      8  C   UNL     1      -0.664  12.430  19.594  0.00  0.00    +0.000 A 
ATOM      9  C   UNL     1       0.591  12.325  19.089  0.00  0.00    +0.000 A 
ATOM     10  C   UNL     1       1.360  13.500  18.711  0.00  0.00    +0.000 A 
ATOM     11  C   UNL     1       2.773  13.344  18.177  0.00  0.00    +0.000 C 
ATOM     12  C   UNL     1       0.831  14.722  18.909  0.00  0.00    +0.000 A 
ATOM     13  C   UNL     1      -0.528  14.907  19.519  0.00  0.00    +0.000 A 
ATOM     14  S   UNL     1      -1.099  16.460  19.917  0.00  0.00    +0.000 S 
BRANCH   8  15
ATOM     15  N   UNL     1      -1.335  11.294  20.036  0.00  0.00    +0.000 N 
ATOM     16  H   UNL     1      -1.781  10.798  19.260  0.00  0.00    +0.000 HD
ATOM     17  H   UNL     1      -0.809  10.653  20.625  0.00  0.00    +0.000 HD
ENDBRANCH   8  15
BRANCH   9  18
ATOM     18  C   UNL     1       1.185  11.029  18.941  0.00  0.00    +0.000 C 
ATOM     19  N   UNL     1       1.637   9.972  18.789  0.00  0.00    +0.000 NA
ENDBRANCH   9  18
BRANCH  12  20
ATOM     20  C   UNL     1       1.679  15.937  18.574  0.00  0.00    +0.000 C 
ATOM     21  N   UNL     1       2.384  16.945  18.296  0.00  0.00    +0.000 NA
ENDBRANCH  12  20
ENDBRANCH   4   7
BRANCH   1  22
ATOM     22  O   UNL     1      -6.616  13.186  21.538  0.00  0.00    +0.000 OA
BRANCH  22  24
ATOM     23  C   UNL     1      -7.916  12.351  23.304  0.00  0.00    +0.000 C 
ATOM     24  C   UNL     1      -7.329  12.103  21.952  0.00  0.00    +0.000 C 
ATOM     25  O   UNL     1      -7.447  11.059  21.328  0.00  0.00    +0.000 OA
ENDBRANCH  22  24
ENDBRANCH   1  22
BRANCH   5  26
ATOM     26  O   UNL     1      -2.260  13.302  22.543  0.00  0.00    +0.000 OA
BRANCH  26  27
ATOM     27  C   UNL     1      -1.088  13.727  23.096  0.00  0.00    +0.000 C 
ATOM     28  C   UNL     1      -1.346  14.617  24.269  0.00  0.00    +0.000 C 
ATOM     29  O   UNL     1       0.035  13.408  22.726  0.00  0.00    +0.000 OA
ENDBRANCH  26  27
ENDBRANCH   5  26
BRANCH   6  30
ATOM     30  O   UNL     1      -4.626  14.255  23.400  0.00  0.00    +0.000 OA
BRANCH  30  31
ATOM     31  C   UNL     1      -5.317  15.285  23.950  0.00  0.00    +0.000 C 
ATOM     32  C   UNL     1      -4.362  16.364  24.370  0.00  0.00    +0.000 C 
ATOM     33  O   UNL     1      -6.531  15.351  24.032  0.00  0.00    +0.000 OA
ENDBRANCH  30  31
ENDBRANCH   6  30
TORSDOF 10
ENDMDL
MODEL 7
REMARK VINA RESULT:      -4.5      3.238      7.438
REMARK  Name = 
REMARK  14 active torsions:
REMARK  status: ('A' for Active; 'I' for Inactive)
REMARK    1  A    between atoms: C_1  and  C_2
REMARK    2  A    between atoms: C_2  and  O_4
REMARK    3  A    between atoms: O_4  and  C_5
REMARK    4  A    between atoms: C_8  and  N_9
REMARK    5  A    between atoms: C_10  and  N_11
REMARK    6  A    between atoms: C_12  and  C_13
REMARK    7  A    between atoms: C_15  and  C_16
REMARK    8  A    between atoms: C_17  and  C_18
REMARK    9  A    between atoms: C_22  and  O_23
REMARK   10  A    between atoms: O_23  and  C_24
REMARK   11  A    between atoms: C_24  and  C_25
REMARK   12  A    between atoms: C_27  and  O_28
REMARK   13  A    between atoms: O_28  and  C_29
REMARK   14  A    between atoms: C_29  and  C_30
REMARK                            x       y       z     vdW  Elec       q    Type
REMARK                         _______ _______ _______ _____ _____    ______ ____
ROOT
ATOM      1  C   UNL     1       1.122  13.304  20.051  0.00  0.00    +0.000 C 
ATOM      2  C   UNL     1       0.389  14.631  19.891  0.00  0.00    +0.000 C 
ATOM      3  O   UNL     1      -0.689  14.732  20.811  0.00  0.00    +0.000 OA
ATOM      4  C   UNL     1      -1.681  13.704  20.602  0.00  0.00    +0.000 C 
ATOM      5  C   UNL     1      -1.090  12.296  20.903  0.00  0.00    +0.000 C 
ATOM      6  C   UNL     1       0.187  12.077  20.054  0.00  0.00    +0.000 C 
ENDROOT
BRANCH   4   7
ATOM      7  N   UNL     1      -2.905  14.059  21.379  0.00  0.00    +0.000 N 
ATOM      8  C   UNL     1      -2.785  14.811  22.578  0.00  0.00    +0.000 A 
ATOM      9  C   UNL     1      -3.904  15.231  23.223  0.00  0.00    +0.000 A 
ATOM     10  C   UNL     1      -5.233  14.892  22.741  0.00  0.00    +0.000 A 
ATOM     11  C   UNL     1      -6.460  15.356  23.507  0.00  0.00    +0.000 C 
ATOM     12  C   UNL     1      -5.356  14.105  21.655  0.00  0.00    +0.000 A 
ATOM     13  C   UNL     1      -4.160  13.559  20.932  0.00  0.00    +0.000 A 
ATOM     14  S   UNL     1      -4.345  12.431  19.673  0.00  0.00    +0.000 S 
BRANCH   8  15
ATOM     15  N   UNL     1      -1.530  15.070  23.118  0.00  0.00    +0.000 N 
ATOM     16  H   UNL     1      -0.790  14.934  22.426  0.00  0.00    +0.000 HD
ATOM     17  H   UNL     1      -1.417  15.956  23.605  0.00  0.00    +0.000 HD
ENDBRANCH   8  15
BRANCH   9  18
ATOM     18  C   UNL     1      -3.776  16.011  24.419  0.00  0.00    +0.000 C 
ATOM     19  N   UNL     1      -3.715  16.650  25.384  0.00  0.00    +0.000 NA
ENDBRANCH   9  18
BRANCH  12  20
ATOM     20  C   UNL     1      -6.754  13.706  21.212  0.00  0.00    +0.000 C 
ATOM     21  N   UNL     1      -7.914  13.373  20.844  0.00  0.00    +0.000 NA
ENDBRANCH  12  20
ENDBRANCH   4   7
BRANCH   1  22
ATOM     22  O   UNL     1       2.216  13.173  19.107  0.00  0.00    +0.000 OA
BRANCH  22  24
ATOM     23  C   UNL     1       3.390  14.743  17.816  0.00  0.00    +0.000 C 
ATOM     24  C   UNL     1       3.221  14.090  19.150  0.00  0.00    +0.000 C 
ATOM     25  O   UNL     1       3.915  14.326  20.127  0.00  0.00    +0.000 OA
ENDBRANCH  22  24
ENDBRANCH   1  22
BRANCH   5  26
ATOM     26  O   UNL     1      -0.742  12.165  22.305  0.00  0.00    +0.000 OA
BRANCH  26  27
ATOM     27  C   UNL     1      -1.519  11.305  23.024  0.00  0.00    +0.000 C 
ATOM     28  C   UNL     1      -0.792  10.026  23.287  0.00  0.00    +0.000 C 
ATOM     29  O   UNL     1      -2.646  11.538  23.442  0.00  0.00    +0.000 OA
ENDBRANCH  26  27
ENDBRANCH   5  26
BRANCH   6  30
ATOM     30  O   UNL     1       0.976  10.984  20.603  0.00  0.00    +0.000 OA
BRANCH  30  31
ATOM     31  C   UNL     1       1.001   9.818  19.911  0.00  0.00    +0.000 C 
ATOM     32  C   UNL     1       1.232   8.676  20.858  0.00  0.00    +0.000 C 
ATOM     33  O   UNL     1       0.802   9.708  18.714  0.00  0.00    +0.000 OA
ENDBRANCH  30  31
ENDBRANCH   6  30
TORSDOF 10
ENDMDL
MODEL 8
REMARK VINA RESULT:      -4.5      3.508      6.385
REMARK  Name = 
REMARK  14 active torsions:
REMARK  status: ('A' for Active; 'I' for Inactive)
REMARK    1  A    between atoms: C_1  and  C_2
REMARK    2  A    between atoms: C_2  and  O_4
REMARK    3  A    between atoms: O_4  and  C_5
REMARK    4  A    between atoms: C_8  and  N_9
REMARK    5  A    between atoms: C_10  and  N_11
REMARK    6  A    between atoms: C_12  and  C_13
REMARK    7  A    between atoms: C_15  and  C_16
REMARK    8  A    between atoms: C_17  and  C_18
REMARK    9  A    between atoms: C_22  and  O_23
REMARK   10  A    between atoms: O_23  and  C_24
REMARK   11  A    between atoms: C_24  and  C_25
REMARK   12  A    between atoms: C_27  and  O_28
REMARK   13  A    between atoms: O_28  and  C_29
REMARK   14  A    between atoms: C_29  and  C_30
REMARK                            x       y       z     vdW  Elec       q    Type
REMARK                         _______ _______ _______ _____ _____    ______ ____
ROOT
ATOM      1  C   UNL     1      -0.065  11.020  19.053  0.00  0.00    +0.000 C 
ATOM      2  C   UNL     1      -0.804  11.984  18.131  0.00  0.00    +0.000 C 
ATOM      3  O   UNL     1      -1.228  13.142  18.837  0.00  0.00    +0.000 OA
ATOM      4  C   UNL     1      -2.153  12.822  19.899  0.00  0.00    +0.000 C 
ATOM      5  C   UNL     1      -1.457  11.970  21.000  0.00  0.00    +0.000 C 
ATOM      6  C   UNL     1      -0.824  10.710  20.359  0.00  0.00    +0.000 C 
ENDROOT
BRANCH   4   7
ATOM      7  N   UNL     1      -2.783  14.088  20.377  0.00  0.00    +0.000 N 
ATOM      8  C   UNL     1      -2.021  15.286  20.411  0.00  0.00    +0.000 A 
ATOM      9  C   UNL     1      -2.624  16.458  20.736  0.00  0.00    +0.000 A 
ATOM     10  C   UNL     1      -4.030  16.516  21.100  0.00  0.00    +0.000 A 
ATOM     11  C   UNL     1      -4.662  17.841  21.487  0.00  0.00    +0.000 C 
ATOM     12  C   UNL     1      -4.740  15.372  21.158  0.00  0.00    +0.000 A 
ATOM     13  C   UNL     1      -4.118  14.038  20.868  0.00  0.00    +0.000 A 
ATOM     14  S   UNL     1      -4.990  12.598  21.117  0.00  0.00    +0.000 S 
BRANCH   8  15
ATOM     15  N   UNL     1      -0.653  15.252  20.161  0.00  0.00    +0.000 N 
ATOM     16  H   UNL     1      -0.193  16.108  20.480  0.00  0.00    +0.000 HD
ATOM     17  H   UNL     1      -0.152  14.426  20.481  0.00  0.00    +0.000 HD
ENDBRANCH   8  15
BRANCH   9  18
ATOM     18  C   UNL     1      -1.855  17.668  20.742  0.00  0.00    +0.000 C 
ATOM     19  N   UNL     1      -1.209  18.630  20.713  0.00  0.00    +0.000 NA
ENDBRANCH   9  18
BRANCH  12  20
ATOM     20  C   UNL     1      -6.189  15.447  21.610  0.00  0.00    +0.000 C 
ATOM     21  N   UNL     1      -7.392  15.510  21.985  0.00  0.00    +0.000 NA
ENDBRANCH  12  20
ENDBRANCH   4   7
BRANCH   1  22
ATOM     22  O   UNL     1       0.360   9.822  18.353  0.00  0.00    +0.000 OA
BRANCH  22  24
ATOM     23  C   UNL     1       2.102   8.297  17.970  0.00  0.00    +0.000 C 
ATOM     24  C   UNL     1       1.662   9.726  17.968  0.00  0.00    +0.000 C 
ATOM     25  O   UNL     1       2.384  10.671  17.692  0.00  0.00    +0.000 OA
ENDBRANCH  22  24
ENDBRANCH   1  22
BRANCH   5  26
ATOM     26  O   UNL     1      -0.413  12.728  21.663  0.00  0.00    +0.000 OA
BRANCH  26  27
ATOM     27  C   UNL     1      -0.776  13.331  22.832  0.00  0.00    +0.000 C 
ATOM     28  C   UNL     1      -1.857  12.556  23.516  0.00  0.00    +0.000 C 
ATOM     29  O   UNL     1      -0.277  14.346  23.298  0.00  0.00    +0.000 OA
ENDBRANCH  26  27
ENDBRANCH   5  26
BRANCH   6  30
ATOM     30  O   UNL     1       0.163  10.130  21.258  0.00  0.00    +0.000 OA
BRANCH  30  31
ATOM     31  C   UNL     1      -0.237   9.109  22.055  0.00  0.00    +0.000 C 
ATOM     32  C   UNL     1       0.035   9.455  23.490  0.00  0.00    +0.000 C 
ATOM     33  O   UNL     1      -0.790   8.093  21.670  0.00  0.00    +0.000 OA
ENDBRANCH  30  31
ENDBRANCH   6  30
TORSDOF 10
ENDMDL
MODEL 9
REMARK VINA RESULT:      -4.4      3.426      7.207
REMARK  Name = 
REMARK  14 active torsions:
REMARK  status: ('A' for Active; 'I' for Inactive)
REMARK    1  A    between atoms: C_1  and  C_2
REMARK    2  A    between atoms: C_2  and  O_4
REMARK    3  A    between atoms: O_4  and  C_5
REMARK    4  A    between atoms: C_8  and  N_9
REMARK    5  A    between atoms: C_10  and  N_11
REMARK    6  A    between atoms: C_12  and  C_13
REMARK    7  A    between atoms: C_15  and  C_16
REMARK    8  A    between atoms: C_17  and  C_18
REMARK    9  A    between atoms: C_22  and  O_23
REMARK   10  A    between atoms: O_23  and  C_24
REMARK   11  A    between atoms: C_24  and  C_25
REMARK   12  A    between atoms: C_27  and  O_28
REMARK   13  A    between atoms: O_28  and  C_29
REMARK   14  A    between atoms: C_29  and  C_30
REMARK                            x       y       z     vdW  Elec       q    Type
REMARK                         _______ _______ _______ _____ _____    ______ ____
ROOT
ATOM      1  C   UNL     1       0.250  13.690  19.352  0.00  0.00    +0.000 C 
ATOM      2  C   UNL     1      -0.053  15.175  19.508  0.00  0.00    +0.000 C 
ATOM      3  O   UNL     1      -0.718  15.434  20.737  0.00  0.00    +0.000 OA
ATOM      4  C   UNL     1      -1.992  14.759  20.818  0.00  0.00    +0.000 C 
ATOM      5  C   UNL     1      -1.799  13.214  20.837  0.00  0.00    +0.000 C 
ATOM      6  C   UNL     1      -0.969  12.779  19.604  0.00  0.00    +0.000 C 
ENDROOT
BRANCH   4   7
ATOM      7  N   UNL     1      -2.754  15.319  21.973  0.00  0.00    +0.000 N 
ATOM      8  C   UNL     1      -2.065  15.701  23.154  0.00  0.00    +0.000 A 
ATOM      9  C   UNL     1      -2.740  16.315  24.159  0.00  0.00    +0.000 A 
ATOM     10  C   UNL     1      -4.172  16.554  24.079  0.00  0.00    +0.000 A 
ATOM     11  C   UNL     1      -4.898  17.217  25.236  0.00  0.00    +0.000 C 
ATOM     12  C   UNL     1      -4.851  16.115  23.002  0.00  0.00    +0.000 A 
ATOM     13  C   UNL     1      -4.173  15.377  21.884  0.00  0.00    +0.000 A 
ATOM     14  S   UNL     1      -5.080  14.685  20.622  0.00  0.00    +0.000 S 
BRANCH   8  15
ATOM     15  N   UNL     1      -0.715  15.401  23.303  0.00  0.00    +0.000 N 
ATOM     16  H   UNL     1      -0.352  14.896  22.491  0.00  0.00    +0.000 HD
ATOM     17  H   UNL     1      -0.101  16.171  23.559  0.00  0.00    +0.000 HD
ENDBRANCH   8  15
BRANCH   9  18
ATOM     18  C   UNL     1      -2.033  16.721  25.337  0.00  0.00    +0.000 C 
ATOM     19  N   UNL     1      -1.428  17.064  26.265  0.00  0.00    +0.000 NA
ENDBRANCH   9  18
BRANCH  12  20
ATOM     20  C   UNL     1      -6.357  16.313  22.971  0.00  0.00    +0.000 C 
ATOM     21  N   UNL     1      -7.608  16.476  22.947  0.00  0.00    +0.000 NA
ENDBRANCH  12  20
ENDBRANCH   4   7
BRANCH   1  22
ATOM     22  O   UNL     1       0.913  13.403  18.093  0.00  0.00    +0.000 OA
BRANCH  22  24
ATOM     23  C   UNL     1       3.101  14.242  18.223  0.00  0.00    +0.000 C 
ATOM     24  C   UNL     1       2.224  13.036  18.121  0.00  0.00    +0.000 C 
ATOM     25  O   UNL     1       2.633  11.888  18.039  0.00  0.00    +0.000 OA
ENDBRANCH  22  24
ENDBRANCH   1  22
BRANCH   5  26
ATOM     26  O   UNL     1      -1.103  12.791  22.037  0.00  0.00    +0.000 OA
BRANCH  26  27
ATOM     27  C   UNL     1      -1.798  11.947  22.853  0.00  0.00    +0.000 C 
ATOM     28  C   UNL     1      -1.035  10.683  23.085  0.00  0.00    +0.000 C 
ATOM     29  O   UNL     1      -2.884  12.184  23.368  0.00  0.00    +0.000 OA
ENDBRANCH  26  27
ENDBRANCH   5  26
BRANCH   6  30
ATOM     30  O   UNL     1      -0.426  11.444  19.807  0.00  0.00    +0.000 OA
BRANCH  30  31
ATOM     31  C   UNL     1      -0.625  10.529  18.826  0.00  0.00    +0.000 C 
ATOM     32  C   UNL     1      -2.021  10.662  18.291  0.00  0.00    +0.000 C 
ATOM     33  O   UNL     1       0.220   9.761  18.401  0.00  0.00    +0.000 OA
ENDBRANCH  30  31
ENDBRANCH   6  30
TORSDOF 10
ENDMDL
