MODEL 1
REMARK VINA RESULT:      -8.0      0.000      0.000
REMARK  Name = 
REMARK  5 active torsions:
REMARK  status: ('A' for Active; 'I' for Inactive)
REMARK    1  A    between atoms: C_2  and  C_3
REMARK    2  A    between atoms: C_2  and  C_9
REMARK    3  A    between atoms: N_12  and  C_13
REMARK    4  A    between atoms: C_13  and  C_14
REMARK    5  A    between atoms: C_14  and  N_15
REMARK                            x       y       z     vdW  Elec       q    Type
REMARK                         _______ _______ _______ _____ _____    ______ ____
ROOT
ATOM      1  C   UNL     1       3.379   7.585  17.626  0.00  0.00    +0.000 C 
ENDROOT
BRANCH   1   5
ATOM      2  C   UNL     1       5.517   3.977  18.479  0.00  0.00    +0.000 C 
ATOM      3  C   UNL     1       5.919   5.256  19.230  0.00  0.00    +0.000 C 
ATOM      4  C   UNL     1       4.812   6.295  19.130  0.00  0.00    +0.000 C 
ATOM      5  N   UNL     1       4.491   6.618  17.731  0.00  0.00    +0.000 NA
ATOM      6  C   UNL     1       4.160   5.435  16.927  0.00  0.00    +0.000 C 
ATOM      7  C   UNL     1       5.220   4.358  17.035  0.00  0.00    +0.000 C 
BRANCH   2   9
ATOM      8  O   UNL     1       5.067   2.276  20.112  0.00  0.00    +0.000 OA
ATOM      9  C   UNL     1       4.576   3.143  19.373  0.00  0.00    +0.000 C 
BRANCH   9  10
ATOM     10  C   UNL     1       3.085   3.165  19.352  0.00  0.00    +0.000 A 
ATOM     11  C   UNL     1       2.450   3.851  20.400  0.00  0.00    +0.000 A 
ATOM     12  C   UNL     1       1.069   3.748  20.595  0.00  0.00    +0.000 A 
ATOM     13  C   UNL     1       0.304   2.974  19.727  0.00  0.00    +0.000 A 
ATOM     14  C   UNL     1       0.922   2.298  18.679  0.00  0.00    +0.000 A 
ATOM     15  C   UNL     1       2.311   2.374  18.504  0.00  0.00    +0.000 A 
ENDBRANCH   9  10
ENDBRANCH   2   9
ENDBRANCH   1   5
BRANCH   1  16
ATOM     16  C   UNL     1       2.165   7.247  18.506  0.00  0.00    +0.000 C 
BRANCH  16  17
ATOM     17  N   UNL     1       1.711   8.375  19.318  0.00  0.00    +0.000 N 
ATOM     18  C   UNL     1       1.195   9.471  18.666  0.00  0.00    +0.000 A 
ATOM     19  O   UNL     1       0.651   9.440  17.568  0.00  0.00    +0.000 OA
ATOM     20  N   UNL     1       1.285  10.639  19.410  0.00  0.00    +0.000 N 
ATOM     21  C   UNL     1       0.771  10.528  20.720  0.00  0.00    +0.000 A 
ATOM     22  C   UNL     1       0.130  11.621  21.287  0.00  0.00    +0.000 A 
ATOM     23  C   UNL     1      -0.672  11.415  22.408  0.00  0.00    +0.000 A 
ATOM     24  C   UNL     1      -0.792  10.136  22.967  0.00  0.00    +0.000 A 
ATOM     25  C   UNL     1      -0.053   9.066  22.455  0.00  0.00    +0.000 A 
ATOM     26  C   UNL     1       0.734   9.275  21.329  0.00  0.00    +0.000 A 
ATOM     27  C   UNL     1       1.501   8.190  20.681  0.00  0.00    +0.000 A 
ATOM     28  O   UNL     1       1.871   7.216  21.328  0.00  0.00    +0.000 OA
ATOM     29  H   UNL     1       2.269  10.891  19.470  0.00  0.00    +0.000 HD
ENDBRANCH  16  17
ENDBRANCH   1  16
TORSDOF 5
ENDMDL
MODEL 2
REMARK VINA RESULT:      -8.0      2.100      4.309
REMARK  Name = 
REMARK  5 active torsions:
REMARK  status: ('A' for Active; 'I' for Inactive)
REMARK    1  A    between atoms: C_2  and  C_3
REMARK    2  A    between atoms: C_2  and  C_9
REMARK    3  A    between atoms: N_12  and  C_13
REMARK    4  A    between atoms: C_13  and  C_14
REMARK    5  A    between atoms: C_14  and  N_15
REMARK                            x       y       z     vdW  Elec       q    Type
REMARK                         _______ _______ _______ _____ _____    ______ ____
ROOT
ATOM      1  C   UNL     1       1.469   5.650  20.003  0.00  0.00    +0.000 C 
ENDROOT
BRANCH   1   5
ATOM      2  C   UNL     1       4.045   3.203  17.616  0.00  0.00    +0.000 C 
ATOM      3  C   UNL     1       2.595   3.409  17.146  0.00  0.00    +0.000 C 
ATOM      4  C   UNL     1       1.980   4.610  17.849  0.00  0.00    +0.000 C 
ATOM      5  N   UNL     1       2.014   4.464  19.312  0.00  0.00    +0.000 NA
ATOM      6  C   UNL     1       3.361   4.196  19.835  0.00  0.00    +0.000 C 
ATOM      7  C   UNL     1       4.024   3.031  19.129  0.00  0.00    +0.000 C 
BRANCH   2   9
ATOM      8  O   UNL     1       5.055   4.091  15.628  0.00  0.00    +0.000 OA
ATOM      9  C   UNL     1       4.963   4.187  16.861  0.00  0.00    +0.000 C 
BRANCH   9  10
ATOM     10  C   UNL     1       5.887   5.183  17.474  0.00  0.00    +0.000 A 
ATOM     11  C   UNL     1       5.869   6.478  16.932  0.00  0.00    +0.000 A 
ATOM     12  C   UNL     1       6.842   7.419  17.283  0.00  0.00    +0.000 A 
ATOM     13  C   UNL     1       7.832   7.080  18.200  0.00  0.00    +0.000 A 
ATOM     14  C   UNL     1       7.853   5.803  18.752  0.00  0.00    +0.000 A 
ATOM     15  C   UNL     1       6.898   4.849  18.375  0.00  0.00    +0.000 A 
ENDBRANCH   9  10
ENDBRANCH   2   9
ENDBRANCH   1   5
BRANCH   1  16
ATOM     16  C   UNL     1       2.396   6.876  19.975  0.00  0.00    +0.000 C 
BRANCH  16  17
ATOM     17  N   UNL     1       1.678   8.138  19.803  0.00  0.00    +0.000 N 
ATOM     18  C   UNL     1       1.033   8.666  20.898  0.00  0.00    +0.000 A 
ATOM     19  O   UNL     1       1.359   8.471  22.063  0.00  0.00    +0.000 OA
ATOM     20  N   UNL     1      -0.009   9.517  20.557  0.00  0.00    +0.000 N 
ATOM     21  C   UNL     1       0.348  10.522  19.634  0.00  0.00    +0.000 A 
ATOM     22  C   UNL     1      -0.239  11.776  19.743  0.00  0.00    +0.000 A 
ATOM     23  C   UNL     1       0.354  12.849  19.080  0.00  0.00    +0.000 A 
ATOM     24  C   UNL     1       1.494  12.651  18.291  0.00  0.00    +0.000 A 
ATOM     25  C   UNL     1       2.009  11.365  18.098  0.00  0.00    +0.000 A 
ATOM     26  C   UNL     1       1.422  10.302  18.773  0.00  0.00    +0.000 A 
ATOM     27  C   UNL     1       1.935   8.919  18.680  0.00  0.00    +0.000 A 
ATOM     28  O   UNL     1       2.556   8.550  17.689  0.00  0.00    +0.000 OA
ATOM     29  H   UNL     1      -0.748   8.950  20.147  0.00  0.00    +0.000 HD
ENDBRANCH  16  17
ENDBRANCH   1  16
TORSDOF 5
ENDMDL
MODEL 3
REMARK VINA RESULT:      -7.8      0.883      1.040
REMARK  Name = 
REMARK  5 active torsions:
REMARK  status: ('A' for Active; 'I' for Inactive)
REMARK    1  A    between atoms: C_2  and  C_3
REMARK    2  A    between atoms: C_2  and  C_9
REMARK    3  A    between atoms: N_12  and  C_13
REMARK    4  A    between atoms: C_13  and  C_14
REMARK    5  A    between atoms: C_14  and  N_15
REMARK                            x       y       z     vdW  Elec       q    Type
REMARK                         _______ _______ _______ _____ _____    ______ ____
ROOT
ATOM      1  C   UNL     1       3.401   7.943  17.629  0.00  0.00    +0.000 C 
ENDROOT
BRANCH   1   5
ATOM      2  C   UNL     1       5.237   4.095  18.006  0.00  0.00    +0.000 C 
ATOM      3  C   UNL     1       5.359   5.078  19.182  0.00  0.00    +0.000 C 
ATOM      4  C   UNL     1       4.318   6.181  19.056  0.00  0.00    +0.000 C 
ATOM      5  N   UNL     1       4.443   6.907  17.783  0.00  0.00    +0.000 NA
ATOM      6  C   UNL     1       4.403   6.026  16.609  0.00  0.00    +0.000 C 
ATOM      7  C   UNL     1       5.398   4.889  16.717  0.00  0.00    +0.000 C 
BRANCH   2   9
ATOM      8  O   UNL     1       3.858   2.203  17.477  0.00  0.00    +0.000 OA
ATOM      9  C   UNL     1       4.080   3.113  18.289  0.00  0.00    +0.000 C 
BRANCH   9  10
ATOM     10  C   UNL     1       3.082   3.216  19.391  0.00  0.00    +0.000 A 
ATOM     11  C   UNL     1       3.428   2.616  20.613  0.00  0.00    +0.000 A 
ATOM     12  C   UNL     1       2.483   2.465  21.633  0.00  0.00    +0.000 A 
ATOM     13  C   UNL     1       1.186   2.935  21.449  0.00  0.00    +0.000 A 
ATOM     14  C   UNL     1       0.836   3.541  20.246  0.00  0.00    +0.000 A 
ATOM     15  C   UNL     1       1.773   3.662  19.211  0.00  0.00    +0.000 A 
ENDBRANCH   9  10
ENDBRANCH   2   9
ENDBRANCH   1   5
BRANCH   1  16
ATOM     16  C   UNL     1       2.068   7.601  18.314  0.00  0.00    +0.000 C 
BRANCH  16  17
ATOM     17  N   UNL     1       1.604   8.646  19.225  0.00  0.00    +0.000 N 
ATOM     18  C   UNL     1       1.026   9.768  18.678  0.00  0.00    +0.000 A 
ATOM     19  O   UNL     1       0.444   9.800  17.599  0.00  0.00    +0.000 OA
ATOM     20  N   UNL     1       1.101  10.878  19.506  0.00  0.00    +0.000 N 
ATOM     21  C   UNL     1       0.640  10.649  20.820  0.00  0.00    +0.000 A 
ATOM     22  C   UNL     1      -0.019  11.671  21.491  0.00  0.00    +0.000 A 
ATOM     23  C   UNL     1      -0.772  11.350  22.619  0.00  0.00    +0.000 A 
ATOM     24  C   UNL     1      -0.826  10.029  23.081  0.00  0.00    +0.000 A 
ATOM     25  C   UNL     1      -0.069   9.029  22.463  0.00  0.00    +0.000 A 
ATOM     26  C   UNL     1       0.669   9.353  21.332  0.00  0.00    +0.000 A 
ATOM     27  C   UNL     1       1.450   8.350  20.576  0.00  0.00    +0.000 A 
ATOM     28  O   UNL     1       1.877   7.344  21.134  0.00  0.00    +0.000 OA
ATOM     29  H   UNL     1       2.078  11.163  19.552  0.00  0.00    +0.000 HD
ENDBRANCH  16  17
ENDBRANCH   1  16
TORSDOF 5
ENDMDL
MODEL 4
REMARK VINA RESULT:      -7.7      1.798      4.136
REMARK  Name = 
REMARK  5 active torsions:
REMARK  status: ('A' for Active; 'I' for Inactive)
REMARK    1  A    between atoms: C_2  and  C_3
REMARK    2  A    between atoms: C_2  and  C_9
REMARK    3  A    between atoms: N_12  and  C_13
REMARK    4  A    between atoms: C_13  and  C_14
REMARK    5  A    between atoms: C_14  and  N_15
REMARK                            x       y       z     vdW  Elec       q    Type
REMARK                         _______ _______ _______ _____ _____    ______ ____
ROOT
ATOM      1  C   UNL     1       1.812   7.131  20.937  0.00  0.00    +0.000 C 
ENDROOT
BRANCH   1   5
ATOM      2  C   UNL     1       2.895   3.655  18.687  0.00  0.00    +0.000 C 
ATOM      3  C   UNL     1       2.313   4.859  17.930  0.00  0.00    +0.000 C 
ATOM      4  C   UNL     1       2.393   6.111  18.792  0.00  0.00    +0.000 C 
ATOM      5  N   UNL     1       1.691   5.939  20.072  0.00  0.00    +0.000 NA
ATOM      6  C   UNL     1       2.146   4.765  20.828  0.00  0.00    +0.000 C 
ATOM      7  C   UNL     1       2.120   3.504  19.989  0.00  0.00    +0.000 C 
BRANCH   2   9
ATOM      8  O   UNL     1       5.106   3.293  19.549  0.00  0.00    +0.000 OA
ATOM      9  C   UNL     1       4.434   3.693  18.586  0.00  0.00    +0.000 C 
BRANCH   9  10
ATOM     10  C   UNL     1       5.234   4.300  17.484  0.00  0.00    +0.000 A 
ATOM     11  C   UNL     1       5.147   3.680  16.227  0.00  0.00    +0.000 A 
ATOM     12  C   UNL     1       6.017   4.032  15.189  0.00  0.00    +0.000 A 
ATOM     13  C   UNL     1       6.969   5.026  15.393  0.00  0.00    +0.000 A 
ATOM     14  C   UNL     1       7.056   5.655  16.632  0.00  0.00    +0.000 A 
ATOM     15  C   UNL     1       6.207   5.278  17.682  0.00  0.00    +0.000 A 
ENDBRANCH   9  10
ENDBRANCH   2   9
ENDBRANCH   1   5
BRANCH   1  16
ATOM     16  C   UNL     1       1.531   8.461  20.220  0.00  0.00    +0.000 C 
BRANCH  16  17
ATOM     17  N   UNL     1       0.588   9.315  20.940  0.00  0.00    +0.000 N 
ATOM     18  C   UNL     1       0.810   9.533  22.281  0.00  0.00    +0.000 A 
ATOM     19  O   UNL     1       1.909   9.491  22.823  0.00  0.00    +0.000 OA
ATOM     20  N   UNL     1      -0.341   9.879  22.974  0.00  0.00    +0.000 N 
ATOM     21  C   UNL     1      -1.065  10.941  22.392  0.00  0.00    +0.000 A 
ATOM     22  C   UNL     1      -1.721  11.842  23.220  0.00  0.00    +0.000 A 
ATOM     23  C   UNL     1      -2.129  13.063  22.685  0.00  0.00    +0.000 A 
ATOM     24  C   UNL     1      -1.912  13.350  21.331  0.00  0.00    +0.000 A 
ATOM     25  C   UNL     1      -1.353  12.390  20.483  0.00  0.00    +0.000 A 
ATOM     26  C   UNL     1      -0.936  11.180  21.025  0.00  0.00    +0.000 A 
ATOM     27  C   UNL     1      -0.278  10.131  20.219  0.00  0.00    +0.000 A 
ATOM     28  O   UNL     1      -0.487  10.048  19.013  0.00  0.00    +0.000 OA
ATOM     29  H   UNL     1      -0.941   9.057  23.004  0.00  0.00    +0.000 HD
ENDBRANCH  16  17
ENDBRANCH   1  16
TORSDOF 5
ENDMDL
MODEL 5
REMARK VINA RESULT:      -7.7      1.802      4.143
REMARK  Name = 
REMARK  5 active torsions:
REMARK  status: ('A' for Active; 'I' for Inactive)
REMARK    1  A    between atoms: C_2  and  C_3
REMARK    2  A    between atoms: C_2  and  C_9
REMARK    3  A    between atoms: N_12  and  C_13
REMARK    4  A    between atoms: C_13  and  C_14
REMARK    5  A    between atoms: C_14  and  N_15
REMARK                            x       y       z     vdW  Elec       q    Type
REMARK                         _______ _______ _______ _____ _____    ______ ____
ROOT
ATOM      1  C   UNL     1       1.450   6.629  20.906  0.00  0.00    +0.000 C 
ENDROOT
BRANCH   1   5
ATOM      2  C   UNL     1       3.046   3.394  18.603  0.00  0.00    +0.000 C 
ATOM      3  C   UNL     1       2.303   4.517  17.862  0.00  0.00    +0.000 C 
ATOM      4  C   UNL     1       2.193   5.749  18.748  0.00  0.00    +0.000 C 
ATOM      5  N   UNL     1       1.511   5.451  20.017  0.00  0.00    +0.000 NA
ATOM      6  C   UNL     1       2.125   4.339  20.755  0.00  0.00    +0.000 C 
ATOM      7  C   UNL     1       2.290   3.105  19.892  0.00  0.00    +0.000 C 
BRANCH   2   9
ATOM      8  O   UNL     1       5.263   3.444  19.524  0.00  0.00    +0.000 OA
ATOM      9  C   UNL     1       4.565   3.657  18.521  0.00  0.00    +0.000 C 
BRANCH   9  10
ATOM     10  C   UNL     1       5.294   4.286  17.383  0.00  0.00    +0.000 A 
ATOM     11  C   UNL     1       5.276   3.593  16.162  0.00  0.00    +0.000 A 
ATOM     12  C   UNL     1       6.102   3.979  15.102  0.00  0.00    +0.000 A 
ATOM     13  C   UNL     1       6.941   5.081  15.246  0.00  0.00    +0.000 A 
ATOM     14  C   UNL     1       6.958   5.782  16.448  0.00  0.00    +0.000 A 
ATOM     15  C   UNL     1       6.155   5.374  17.522  0.00  0.00    +0.000 A 
ENDBRANCH   9  10
ENDBRANCH   2   9
ENDBRANCH   1   5
BRANCH   1  16
ATOM     16  C   UNL     1       1.939   7.934  20.256  0.00  0.00    +0.000 C 
BRANCH  16  17
ATOM     17  N   UNL     1       0.993   9.039  20.403  0.00  0.00    +0.000 N 
ATOM     18  C   UNL     1       0.768   9.531  21.668  0.00  0.00    +0.000 A 
ATOM     19  O   UNL     1       1.574   9.484  22.590  0.00  0.00    +0.000 OA
ATOM     20  N   UNL     1      -0.459  10.165  21.795  0.00  0.00    +0.000 N 
ATOM     21  C   UNL     1      -0.707  11.144  20.809  0.00  0.00    +0.000 A 
ATOM     22  C   UNL     1      -1.419  12.285  21.155  0.00  0.00    +0.000 A 
ATOM     23  C   UNL     1      -1.360  13.389  20.307  0.00  0.00    +0.000 A 
ATOM     24  C   UNL     1      -0.629  13.328  19.114  0.00  0.00    +0.000 A 
ATOM     25  C   UNL     1      -0.010  12.137  18.722  0.00  0.00    +0.000 A 
ATOM     26  C   UNL     1      -0.060  11.044  19.578  0.00  0.00    +0.000 A 
ATOM     27  C   UNL     1       0.617   9.765  19.277  0.00  0.00    +0.000 A 
ATOM     28  O   UNL     1       0.833   9.432  18.116  0.00  0.00    +0.000 OA
ATOM     29  H   UNL     1      -1.183   9.452  21.730  0.00  0.00    +0.000 HD
ENDBRANCH  16  17
ENDBRANCH   1  16
TORSDOF 5
ENDMDL
MODEL 6
REMARK VINA RESULT:      -7.5      2.536      4.661
REMARK  Name = 
REMARK  5 active torsions:
REMARK  status: ('A' for Active; 'I' for Inactive)
REMARK    1  A    between atoms: C_2  and  C_3
REMARK    2  A    between atoms: C_2  and  C_9
REMARK    3  A    between atoms: N_12  and  C_13
REMARK    4  A    between atoms: C_13  and  C_14
REMARK    5  A    between atoms: C_14  and  N_15
REMARK                            x       y       z     vdW  Elec       q    Type
REMARK                         _______ _______ _______ _____ _____    ______ ____
ROOT
ATOM      1  C   UNL     1       2.030   6.009  19.590  0.00  0.00    +0.000 C 
ENDROOT
BRANCH   1   5
ATOM      2  C   UNL     1       4.962   3.934  17.263  0.00  0.00    +0.000 C 
ATOM      3  C   UNL     1       3.496   3.485  17.154  0.00  0.00    +0.000 C 
ATOM      4  C   UNL     1       2.572   4.570  17.689  0.00  0.00    +0.000 C 
ATOM      5  N   UNL     1       2.886   4.917  19.083  0.00  0.00    +0.000 NA
ATOM      6  C   UNL     1       4.292   5.294  19.282  0.00  0.00    +0.000 C 
ATOM      7  C   UNL     1       5.244   4.256  18.724  0.00  0.00    +0.000 C 
BRANCH   2   9
ATOM      8  O   UNL     1       4.915   6.053  16.136  0.00  0.00    +0.000 OA
ATOM      9  C   UNL     1       5.290   4.872  16.083  0.00  0.00    +0.000 C 
BRANCH   9  10
ATOM     10  C   UNL     1       5.906   4.478  14.784  0.00  0.00    +0.000 A 
ATOM     11  C   UNL     1       7.109   5.115  14.437  0.00  0.00    +0.000 A 
ATOM     12  C   UNL     1       7.650   4.982  13.154  0.00  0.00    +0.000 A 
ATOM     13  C   UNL     1       7.004   4.189  12.210  0.00  0.00    +0.000 A 
ATOM     14  C   UNL     1       5.818   3.544  12.547  0.00  0.00    +0.000 A 
ATOM     15  C   UNL     1       5.257   3.705  13.822  0.00  0.00    +0.000 A 
ENDBRANCH   9  10
ENDBRANCH   2   9
ENDBRANCH   1   5
BRANCH   1  16
ATOM     16  C   UNL     1       2.599   7.417  19.352  0.00  0.00    +0.000 C 
BRANCH  16  17
ATOM     17  N   UNL     1       1.609   8.477  19.535  0.00  0.00    +0.000 N 
ATOM     18  C   UNL     1       1.061   8.637  20.788  0.00  0.00    +0.000 A 
ATOM     19  O   UNL     1       1.613   8.330  21.837  0.00  0.00    +0.000 OA
ATOM     20  N   UNL     1      -0.181   9.254  20.762  0.00  0.00    +0.000 N 
ATOM     21  C   UNL     1      -0.210  10.459  20.029  0.00  0.00    +0.000 A 
ATOM     22  C   UNL     1      -1.025  11.496  20.466  0.00  0.00    +0.000 A 
ATOM     23  C   UNL     1      -0.796  12.777  19.969  0.00  0.00    +0.000 A 
ATOM     24  C   UNL     1       0.209  13.000  19.021  0.00  0.00    +0.000 A 
ATOM     25  C   UNL     1       0.947  11.931  18.504  0.00  0.00    +0.000 A 
ATOM     26  C   UNL     1       0.724  10.657  19.014  0.00  0.00    +0.000 A 
ATOM     27  C   UNL     1       1.499   9.477  18.575  0.00  0.00    +0.000 A 
ATOM     28  O   UNL     1       2.007   9.445  17.459  0.00  0.00    +0.000 OA
ATOM     29  H   UNL     1      -0.841   8.604  20.340  0.00  0.00    +0.000 HD
ENDBRANCH  16  17
ENDBRANCH   1  16
TORSDOF 5
ENDMDL
MODEL 7
REMARK VINA RESULT:      -7.5      2.001      3.873
REMARK  Name = 
REMARK  5 active torsions:
REMARK  status: ('A' for Active; 'I' for Inactive)
REMARK    1  A    between atoms: C_2  and  C_3
REMARK    2  A    between atoms: C_2  and  C_9
REMARK    3  A    between atoms: N_12  and  C_13
REMARK    4  A    between atoms: C_13  and  C_14
REMARK    5  A    between atoms: C_14  and  N_15
REMARK                            x       y       z     vdW  Elec       q    Type
REMARK                         _______ _______ _______ _____ _____    ______ ____
ROOT
ATOM      1  C   UNL     1       1.457   5.820  19.908  0.00  0.00    +0.000 C 
ENDROOT
BRANCH   1   5
ATOM      2  C   UNL     1       4.007   3.163  17.727  0.00  0.00    +0.000 C 
ATOM      3  C   UNL     1       2.578   3.390  17.208  0.00  0.00    +0.000 C 
ATOM      4  C   UNL     1       1.986   4.647  17.829  0.00  0.00    +0.000 C 
ATOM      5  N   UNL     1       1.979   4.580  19.298  0.00  0.00    +0.000 NA
ATOM      6  C   UNL     1       3.302   4.299  19.869  0.00  0.00    +0.000 C 
ATOM      7  C   UNL     1       3.944   3.076  19.246  0.00  0.00    +0.000 C 
BRANCH   2   9
ATOM      8  O   UNL     1       5.130   3.878  15.729  0.00  0.00    +0.000 OA
ATOM      9  C   UNL     1       4.977   4.074  16.944  0.00  0.00    +0.000 C 
BRANCH   9  10
ATOM     10  C   UNL     1       5.882   5.107  17.522  0.00  0.00    +0.000 A 
ATOM     11  C   UNL     1       5.862   6.374  16.916  0.00  0.00    +0.000 A 
ATOM     12  C   UNL     1       6.821   7.341  17.236  0.00  0.00    +0.000 A 
ATOM     13  C   UNL     1       7.798   7.057  18.186  0.00  0.00    +0.000 A 
ATOM     14  C   UNL     1       7.820   5.809  18.801  0.00  0.00    +0.000 A 
ATOM     15  C   UNL     1       6.880   4.828  18.455  0.00  0.00    +0.000 A 
ENDBRANCH   9  10
ENDBRANCH   2   9
ENDBRANCH   1   5
BRANCH   1  16
ATOM     16  C   UNL     1       2.500   6.941  20.047  0.00  0.00    +0.000 C 
BRANCH  16  17
ATOM     17  N   UNL     1       1.954   8.271  19.786  0.00  0.00    +0.000 N 
ATOM     18  C   UNL     1       1.896   8.700  18.480  0.00  0.00    +0.000 A 
ATOM     19  O   UNL     1       1.808   7.962  17.505  0.00  0.00    +0.000 OA
ATOM     20  N   UNL     1       1.879  10.082  18.361  0.00  0.00    +0.000 N 
ATOM     21  C   UNL     1       0.900  10.716  19.155  0.00  0.00    +0.000 A 
ATOM     22  C   UNL     1       0.269  11.853  18.668  0.00  0.00    +0.000 A 
ATOM     23  C   UNL     1      -0.917  12.267  19.271  0.00  0.00    +0.000 A 
ATOM     24  C   UNL     1      -1.434  11.568  20.368  0.00  0.00    +0.000 A 
ATOM     25  C   UNL     1      -0.732  10.492  20.920  0.00  0.00    +0.000 A 
ATOM     26  C   UNL     1       0.443  10.076  20.306  0.00  0.00    +0.000 A 
ATOM     27  C   UNL     1       1.221   8.912  20.781  0.00  0.00    +0.000 A 
ATOM     28  O   UNL     1       1.164   8.561  21.955  0.00  0.00    +0.000 OA
ATOM     29  H   UNL     1       2.794  10.427  18.641  0.00  0.00    +0.000 HD
ENDBRANCH  16  17
ENDBRANCH   1  16
TORSDOF 5
ENDMDL
MODEL 8
REMARK VINA RESULT:      -7.4      1.760      3.936
REMARK  Name = 
REMARK  5 active torsions:
REMARK  status: ('A' for Active; 'I' for Inactive)
REMARK    1  A    between atoms: C_2  and  C_3
REMARK    2  A    between atoms: C_2  and  C_9
REMARK    3  A    between atoms: N_12  and  C_13
REMARK    4  A    between atoms: C_13  and  C_14
REMARK    5  A    between atoms: C_14  and  N_15
REMARK                            x       y       z     vdW  Elec       q    Type
REMARK                         _______ _______ _______ _____ _____    ______ ____
ROOT
ATOM      1  C   UNL     1       1.843   7.547  20.880  0.00  0.00    +0.000 C 
ENDROOT
BRANCH   1   5
ATOM      2  C   UNL     1       2.841   3.982  18.734  0.00  0.00    +0.000 C 
ATOM      3  C   UNL     1       2.286   5.177  17.942  0.00  0.00    +0.000 C 
ATOM      4  C   UNL     1       2.397   6.451  18.766  0.00  0.00    +0.000 C 
ATOM      5  N   UNL     1       1.692   6.334  20.051  0.00  0.00    +0.000 NA
ATOM      6  C   UNL     1       2.121   5.172  20.841  0.00  0.00    +0.000 C 
ATOM      7  C   UNL     1       2.064   3.888  20.040  0.00  0.00    +0.000 C 
BRANCH   2   9
ATOM      8  O   UNL     1       5.045   3.639  19.621  0.00  0.00    +0.000 OA
ATOM      9  C   UNL     1       4.381   3.981  18.631  0.00  0.00    +0.000 C 
BRANCH   9  10
ATOM     10  C   UNL     1       5.191   4.488  17.488  0.00  0.00    +0.000 A 
ATOM     11  C   UNL     1       5.157   3.731  16.305  0.00  0.00    +0.000 A 
ATOM     12  C   UNL     1       6.044   3.995  15.256  0.00  0.00    +0.000 A 
ATOM     13  C   UNL     1       6.960   5.037  15.371  0.00  0.00    +0.000 A 
ATOM     14  C   UNL     1       6.994   5.801  16.534  0.00  0.00    +0.000 A 
ATOM     15  C   UNL     1       6.129   5.514  17.599  0.00  0.00    +0.000 A 
ENDBRANCH   9  10
ENDBRANCH   2   9
ENDBRANCH   1   5
BRANCH   1  16
ATOM     16  C   UNL     1       0.513   8.181  21.317  0.00  0.00    +0.000 C 
BRANCH  16  17
ATOM     17  N   UNL     1       0.513   9.640  21.229  0.00  0.00    +0.000 N 
ATOM     18  C   UNL     1       0.574  10.210  19.977  0.00  0.00    +0.000 A 
ATOM     19  O   UNL     1       0.168   9.681  18.949  0.00  0.00    +0.000 OA
ATOM     20  N   UNL     1       1.087  11.499  19.991  0.00  0.00    +0.000 N 
ATOM     21  C   UNL     1       0.462  12.358  20.919  0.00  0.00    +0.000 A 
ATOM     22  C   UNL     1       0.300  13.699  20.594  0.00  0.00    +0.000 A 
ATOM     23  C   UNL     1      -0.609  14.457  21.329  0.00  0.00    +0.000 A 
ATOM     24  C   UNL     1      -1.312  13.882  22.395  0.00  0.00    +0.000 A 
ATOM     25  C   UNL     1      -1.058  12.563  22.784  0.00  0.00    +0.000 A 
ATOM     26  C   UNL     1      -0.160  11.808  22.038  0.00  0.00    +0.000 A 
ATOM     27  C   UNL     1       0.125  10.389  22.336  0.00  0.00    +0.000 A 
ATOM     28  O   UNL     1      -0.016   9.950  23.472  0.00  0.00    +0.000 OA
ATOM     29  H   UNL     1       2.075  11.435  20.226  0.00  0.00    +0.000 HD
ENDBRANCH  16  17
ENDBRANCH   1  16
TORSDOF 5
ENDMDL
MODEL 9
REMARK VINA RESULT:      -7.4      1.958      3.967
REMARK  Name = 
REMARK  5 active torsions:
REMARK  status: ('A' for Active; 'I' for Inactive)
REMARK    1  A    between atoms: C_2  and  C_3
REMARK    2  A    between atoms: C_2  and  C_9
REMARK    3  A    between atoms: N_12  and  C_13
REMARK    4  A    between atoms: C_13  and  C_14
REMARK    5  A    between atoms: C_14  and  N_15
REMARK                            x       y       z     vdW  Elec       q    Type
REMARK                         _______ _______ _______ _____ _____    ______ ____
ROOT
ATOM      1  C   UNL     1       1.968   7.651  20.489  0.00  0.00    +0.000 C 
ENDROOT
BRANCH   1   5
ATOM      2  C   UNL     1       2.824   3.859  18.700  0.00  0.00    +0.000 C 
ATOM      3  C   UNL     1       2.425   5.024  17.780  0.00  0.00    +0.000 C 
ATOM      4  C   UNL     1       2.580   6.349  18.512  0.00  0.00    +0.000 C 
ATOM      5  N   UNL     1       1.779   6.390  19.744  0.00  0.00    +0.000 NA
ATOM      6  C   UNL     1       2.055   5.266  20.650  0.00  0.00    +0.000 C 
ATOM      7  C   UNL     1       1.952   3.929  19.946  0.00  0.00    +0.000 C 
BRANCH   2   9
ATOM      8  O   UNL     1       4.922   3.388  19.767  0.00  0.00    +0.000 OA
ATOM      9  C   UNL     1       4.362   3.734  18.716  0.00  0.00    +0.000 C 
BRANCH   9  10
ATOM     10  C   UNL     1       5.292   4.124  17.619  0.00  0.00    +0.000 A 
ATOM     11  C   UNL     1       6.244   5.112  17.920  0.00  0.00    +0.000 A 
ATOM     12  C   UNL     1       7.012   5.702  16.911  0.00  0.00    +0.000 A 
ATOM     13  C   UNL     1       6.853   5.291  15.591  0.00  0.00    +0.000 A 
ATOM     14  C   UNL     1       5.922   4.304  15.283  0.00  0.00    +0.000 A 
ATOM     15  C   UNL     1       5.127   3.737  16.289  0.00  0.00    +0.000 A 
ENDBRANCH   9  10
ENDBRANCH   2   9
ENDBRANCH   1   5
BRANCH   1  16
ATOM     16  C   UNL     1       0.739   8.574  20.488  0.00  0.00    +0.000 C 
BRANCH  16  17
ATOM     17  N   UNL     1       1.035   9.926  20.016  0.00  0.00    +0.000 N 
ATOM     18  C   UNL     1       1.127  10.128  18.658  0.00  0.00    +0.000 A 
ATOM     19  O   UNL     1       0.554   9.455  17.810  0.00  0.00    +0.000 OA
ATOM     20  N   UNL     1       1.895  11.235  18.324  0.00  0.00    +0.000 N 
ATOM     21  C   UNL     1       1.524  12.418  18.997  0.00  0.00    +0.000 A 
ATOM     22  C   UNL     1       1.621  13.632  18.331  0.00  0.00    +0.000 A 
ATOM     23  C   UNL     1       0.938  14.732  18.848  0.00  0.00    +0.000 A 
ATOM     24  C   UNL     1       0.205  14.616  20.035  0.00  0.00    +0.000 A 
ATOM     25  C   UNL     1       0.207  13.418  20.756  0.00  0.00    +0.000 A 
ATOM     26  C   UNL     1       0.878  12.322  20.229  0.00  0.00    +0.000 A 
ATOM     27  C   UNL     1       0.884  10.999  20.889  0.00  0.00    +0.000 A 
ATOM     28  O   UNL     1       0.732  10.907  22.102  0.00  0.00    +0.000 OA
ATOM     29  H   UNL     1       2.862  11.021  18.557  0.00  0.00    +0.000 HD
ENDBRANCH  16  17
ENDBRANCH   1  16
TORSDOF 5
ENDMDL
