MODEL 1
REMARK VINA RESULT:      -8.5      0.000      0.000
REMARK  Name = 
REMARK  4 active torsions:
REMARK  status: ('A' for Active; 'I' for Inactive)
REMARK    1  A    between atoms: C_2  and  C_3
REMARK    2  A    between atoms: C_2  and  C_13
REMARK    3  A    between atoms: C_3  and  S_4
REMARK    4  A    between atoms: S_4  and  C_7
REMARK                            x       y       z     vdW  Elec       q    Type
REMARK                         _______ _______ _______ _____ _____    ______ ____
ROOT
ATOM      1  O   UNL     1       5.314   3.569  19.292  0.00  0.00    +0.000 OA
ATOM      2  C   UNL     1       5.337   4.676  18.743  0.00  0.00    +0.000 C 
ENDROOT
BRANCH   2   3
ATOM      3  C   UNL     1       5.907   4.802  17.361  0.00  0.00    +0.000 A 
ATOM      4  C   UNL     1       5.396   3.998  16.412  0.00  0.00    +0.000 A 
ATOM      5  C   UNL     1       5.853   4.114  15.035  0.00  0.00    +0.000 A 
ATOM      6  C   UNL     1       5.179   3.526  13.963  0.00  0.00    +0.000 A 
ATOM      7  C   UNL     1       5.686   3.673  12.668  0.00  0.00    +0.000 A 
ATOM      8 BR   UNL     1       4.727   2.961  11.201  0.00  0.00    +0.000 Br
ATOM      9  C   UNL     1       6.880   4.360  12.439  0.00  0.00    +0.000 A 
ATOM     10  C   UNL     1       7.554   4.949  13.507  0.00  0.00    +0.000 A 
ATOM     11  C   UNL     1       7.010   4.844  14.785  0.00  0.00    +0.000 A 
ATOM     12  O   UNL     1       7.627   5.579  15.809  0.00  0.00    +0.000 OA
ATOM     13  C   UNL     1       6.919   5.811  16.980  0.00  0.00    +0.000 A 
ATOM     14  O   UNL     1       7.138   6.806  17.665  0.00  0.00    +0.000 OA
ENDBRANCH   2   3
BRANCH   2  15
ATOM     15  C   UNL     1       4.780   5.867  19.465  0.00  0.00    +0.000 C 
BRANCH  15  16
ATOM     16  S   UNL     1       3.168   6.239  18.854  0.00  0.00    +0.000 S 
ATOM     17  O   UNL     1       2.565   7.274  19.678  0.00  0.00    +0.000 OA
ATOM     18  O   UNL     1       3.255   6.401  17.414  0.00  0.00    +0.000 OA
BRANCH  16  19
ATOM     19  C   UNL     1       2.293   4.725  19.183  0.00  0.00    +0.000 A 
ATOM     20  C   UNL     1       1.893   3.907  18.118  0.00  0.00    +0.000 A 
ATOM     21  C   UNL     1       1.136   2.770  18.379  0.00  0.00    +0.000 A 
ATOM     22  C   UNL     1       0.790   2.448  19.693  0.00  0.00    +0.000 A 
ATOM     23  C   UNL     1       1.221   3.249  20.754  0.00  0.00    +0.000 A 
ATOM     24  C   UNL     1       1.978   4.389  20.504  0.00  0.00    +0.000 A 
ENDBRANCH  16  19
ENDBRANCH  15  16
ENDBRANCH   2  15
TORSDOF 4
ENDMDL
MODEL 2
REMARK VINA RESULT:      -8.5      2.130      2.935
REMARK  Name = 
REMARK  4 active torsions:
REMARK  status: ('A' for Active; 'I' for Inactive)
REMARK    1  A    between atoms: C_2  and  C_3
REMARK    2  A    between atoms: C_2  and  C_13
REMARK    3  A    between atoms: C_3  and  S_4
REMARK    4  A    between atoms: S_4  and  C_7
REMARK                            x       y       z     vdW  Elec       q    Type
REMARK                         _______ _______ _______ _____ _____    ______ ____
ROOT
ATOM      1  O   UNL     1       5.439   3.629  19.265  0.00  0.00    +0.000 OA
ATOM      2  C   UNL     1       5.350   4.696  18.648  0.00  0.00    +0.000 C 
ENDROOT
BRANCH   2   3
ATOM      3  C   UNL     1       5.917   4.796  17.262  0.00  0.00    +0.000 A 
ATOM      4  C   UNL     1       5.364   4.017  16.316  0.00  0.00    +0.000 A 
ATOM      5  C   UNL     1       5.817   4.113  14.936  0.00  0.00    +0.000 A 
ATOM      6  C   UNL     1       5.110   3.558  13.868  0.00  0.00    +0.000 A 
ATOM      7  C   UNL     1       5.616   3.682  12.570  0.00  0.00    +0.000 A 
ATOM      8 BR   UNL     1       4.616   3.017  11.109  0.00  0.00    +0.000 Br
ATOM      9  C   UNL     1       6.839   4.312  12.334  0.00  0.00    +0.000 A 
ATOM     10  C   UNL     1       7.545   4.869  13.399  0.00  0.00    +0.000 A 
ATOM     11  C   UNL     1       7.005   4.789  14.680  0.00  0.00    +0.000 A 
ATOM     12  O   UNL     1       7.662   5.494  15.700  0.00  0.00    +0.000 OA
ATOM     13  C   UNL     1       6.973   5.757  16.876  0.00  0.00    +0.000 A 
ATOM     14  O   UNL     1       7.242   6.740  17.560  0.00  0.00    +0.000 OA
ENDBRANCH   2   3
BRANCH   2  15
ATOM     15  C   UNL     1       4.664   5.863  19.293  0.00  0.00    +0.000 C 
BRANCH  15  16
ATOM     16  S   UNL     1       2.927   5.567  19.373  0.00  0.00    +0.000 S 
ATOM     17  O   UNL     1       2.498   4.868  18.173  0.00  0.00    +0.000 OA
ATOM     18  O   UNL     1       2.619   5.033  20.687  0.00  0.00    +0.000 OA
BRANCH  16  19
ATOM     19  C   UNL     1       2.270   7.218  19.287  0.00  0.00    +0.000 A 
ATOM     20  C   UNL     1       1.656   7.783  20.412  0.00  0.00    +0.000 A 
ATOM     21  C   UNL     1       1.069   9.040  20.310  0.00  0.00    +0.000 A 
ATOM     22  C   UNL     1       1.104   9.730  19.098  0.00  0.00    +0.000 A 
ATOM     23  C   UNL     1       1.748   9.178  17.987  0.00  0.00    +0.000 A 
ATOM     24  C   UNL     1       2.338   7.920  18.078  0.00  0.00    +0.000 A 
ENDBRANCH  16  19
ENDBRANCH  15  16
ENDBRANCH   2  15
TORSDOF 4
ENDMDL
MODEL 3
REMARK VINA RESULT:      -8.2      2.108      2.771
REMARK  Name = 
REMARK  4 active torsions:
REMARK  status: ('A' for Active; 'I' for Inactive)
REMARK    1  A    between atoms: C_2  and  C_3
REMARK    2  A    between atoms: C_2  and  C_13
REMARK    3  A    between atoms: C_3  and  S_4
REMARK    4  A    between atoms: S_4  and  C_7
REMARK                            x       y       z     vdW  Elec       q    Type
REMARK                         _______ _______ _______ _____ _____    ______ ____
ROOT
ATOM      1  O   UNL     1       5.296   3.443  19.409  0.00  0.00    +0.000 OA
ATOM      2  C   UNL     1       5.249   4.531  18.824  0.00  0.00    +0.000 C 
ENDROOT
BRANCH   2   3
ATOM      3  C   UNL     1       5.841   4.656  17.452  0.00  0.00    +0.000 A 
ATOM      4  C   UNL     1       5.279   3.927  16.472  0.00  0.00    +0.000 A 
ATOM      5  C   UNL     1       5.758   4.051  15.103  0.00  0.00    +0.000 A 
ATOM      6  C   UNL     1       5.051   3.555  14.007  0.00  0.00    +0.000 A 
ATOM      7  C   UNL     1       5.582   3.703  12.722  0.00  0.00    +0.000 A 
ATOM      8 BR   UNL     1       4.585   3.118  11.224  0.00  0.00    +0.000 Br
ATOM      9  C   UNL     1       6.829   4.300  12.525  0.00  0.00    +0.000 A 
ATOM     10  C   UNL     1       7.535   4.798  13.618  0.00  0.00    +0.000 A 
ATOM     11  C   UNL     1       6.972   4.696  14.887  0.00  0.00    +0.000 A 
ATOM     12  O   UNL     1       7.634   5.346  15.940  0.00  0.00    +0.000 OA
ATOM     13  C   UNL     1       6.934   5.594  17.113  0.00  0.00    +0.000 A 
ATOM     14  O   UNL     1       7.224   6.545  17.833  0.00  0.00    +0.000 OA
ENDBRANCH   2   3
BRANCH   2  15
ATOM     15  C   UNL     1       4.586   5.698  19.494  0.00  0.00    +0.000 C 
BRANCH  15  16
ATOM     16  S   UNL     1       2.843   5.436  19.566  0.00  0.00    +0.000 S 
ATOM     17  O   UNL     1       2.430   4.612  18.443  0.00  0.00    +0.000 OA
ATOM     18  O   UNL     1       2.498   5.058  20.924  0.00  0.00    +0.000 OA
BRANCH  16  19
ATOM     19  C   UNL     1       2.214   7.076  19.278  0.00  0.00    +0.000 A 
ATOM     20  C   UNL     1       2.385   7.675  18.023  0.00  0.00    +0.000 A 
ATOM     21  C   UNL     1       1.966   8.988  17.833  0.00  0.00    +0.000 A 
ATOM     22  C   UNL     1       1.375   9.692  18.884  0.00  0.00    +0.000 A 
ATOM     23  C   UNL     1       1.175   9.077  20.123  0.00  0.00    +0.000 A 
ATOM     24  C   UNL     1       1.591   7.764  20.325  0.00  0.00    +0.000 A 
ENDBRANCH  16  19
ENDBRANCH  15  16
ENDBRANCH   2  15
TORSDOF 4
ENDMDL
MODEL 4
REMARK VINA RESULT:      -8.1      3.921      5.697
REMARK  Name = 
REMARK  4 active torsions:
REMARK  status: ('A' for Active; 'I' for Inactive)
REMARK    1  A    between atoms: C_2  and  C_3
REMARK    2  A    between atoms: C_2  and  C_13
REMARK    3  A    between atoms: C_3  and  S_4
REMARK    4  A    between atoms: S_4  and  C_7
REMARK                            x       y       z     vdW  Elec       q    Type
REMARK                         _______ _______ _______ _____ _____    ______ ____
ROOT
ATOM      1  O   UNL     1       6.117   4.491  19.382  0.00  0.00    +0.000 OA
ATOM      2  C   UNL     1       5.140   4.474  18.624  0.00  0.00    +0.000 C 
ENDROOT
BRANCH   2   3
ATOM      3  C   UNL     1       4.313   5.713  18.459  0.00  0.00    +0.000 A 
ATOM      4  C   UNL     1       3.373   5.953  19.391  0.00  0.00    +0.000 A 
ATOM      5  C   UNL     1       2.581   7.172  19.331  0.00  0.00    +0.000 A 
ATOM      6  C   UNL     1       1.803   7.621  20.400  0.00  0.00    +0.000 A 
ATOM      7  C   UNL     1       1.059   8.797  20.263  0.00  0.00    +0.000 A 
ATOM      8 BR   UNL     1       0.080   9.462  21.738  0.00  0.00    +0.000 Br
ATOM      9  C   UNL     1       1.049   9.503  19.058  0.00  0.00    +0.000 A 
ATOM     10  C   UNL     1       1.827   9.058  17.991  0.00  0.00    +0.000 A 
ATOM     11  C   UNL     1       2.607   7.917  18.156  0.00  0.00    +0.000 A 
ATOM     12  O   UNL     1       3.494   7.588  17.120  0.00  0.00    +0.000 OA
ATOM     13  C   UNL     1       4.537   6.713  17.391  0.00  0.00    +0.000 A 
ATOM     14  O   UNL     1       5.589   6.769  16.761  0.00  0.00    +0.000 OA
ENDBRANCH   2   3
BRANCH   2  15
ATOM     15  C   UNL     1       4.815   3.216  17.873  0.00  0.00    +0.000 C 
BRANCH  15  16
ATOM     16  S   UNL     1       4.320   1.955  19.003  0.00  0.00    +0.000 S 
ATOM     17  O   UNL     1       4.055   0.727  18.272  0.00  0.00    +0.000 OA
ATOM     18  O   UNL     1       5.243   1.961  20.123  0.00  0.00    +0.000 OA
BRANCH  16  19
ATOM     19  C   UNL     1       2.755   2.574  19.580  0.00  0.00    +0.000 A 
ATOM     20  C   UNL     1       1.709   2.779  18.671  0.00  0.00    +0.000 A 
ATOM     21  C   UNL     1       0.519   3.343  19.117  0.00  0.00    +0.000 A 
ATOM     22  C   UNL     1       0.371   3.691  20.461  0.00  0.00    +0.000 A 
ATOM     23  C   UNL     1       1.405   3.452  21.370  0.00  0.00    +0.000 A 
ATOM     24  C   UNL     1       2.601   2.889  20.935  0.00  0.00    +0.000 A 
ENDBRANCH  16  19
ENDBRANCH  15  16
ENDBRANCH   2  15
TORSDOF 4
ENDMDL
MODEL 5
REMARK VINA RESULT:      -8.1      3.746      7.476
REMARK  Name = 
REMARK  4 active torsions:
REMARK  status: ('A' for Active; 'I' for Inactive)
REMARK    1  A    between atoms: C_2  and  C_3
REMARK    2  A    between atoms: C_2  and  C_13
REMARK    3  A    between atoms: C_3  and  S_4
REMARK    4  A    between atoms: S_4  and  C_7
REMARK                            x       y       z     vdW  Elec       q    Type
REMARK                         _______ _______ _______ _____ _____    ______ ____
ROOT
ATOM      1  O   UNL     1       4.757   6.816  15.719  0.00  0.00    +0.000 OA
ATOM      2  C   UNL     1       4.666   6.157  16.761  0.00  0.00    +0.000 C 
ENDROOT
BRANCH   2   3
ATOM      3  C   UNL     1       3.724   6.608  17.838  0.00  0.00    +0.000 A 
ATOM      4  C   UNL     1       3.190   7.836  17.712  0.00  0.00    +0.000 A 
ATOM      5  C   UNL     1       2.215   8.310  18.683  0.00  0.00    +0.000 A 
ATOM      6  C   UNL     1       1.418   9.435  18.465  0.00  0.00    +0.000 A 
ATOM      7  C   UNL     1       0.511   9.837  19.451  0.00  0.00    +0.000 A 
ATOM      8 BR   UNL     1      -0.640  11.302  19.123  0.00  0.00    +0.000 Br
ATOM      9  C   UNL     1       0.424   9.154  20.666  0.00  0.00    +0.000 A 
ATOM     10  C   UNL     1       1.218   8.030  20.885  0.00  0.00    +0.000 A 
ATOM     11  C   UNL     1       2.077   7.606  19.874  0.00  0.00    +0.000 A 
ATOM     12  O   UNL     1       2.742   6.386  20.065  0.00  0.00    +0.000 OA
ATOM     13  C   UNL     1       3.291   5.748  18.961  0.00  0.00    +0.000 A 
ATOM     14  O   UNL     1       3.415   4.527  18.933  0.00  0.00    +0.000 OA
ENDBRANCH   2   3
BRANCH   2  15
ATOM     15  C   UNL     1       5.488   4.913  16.919  0.00  0.00    +0.000 C 
BRANCH  15  16
ATOM     16  S   UNL     1       7.129   5.200  16.339  0.00  0.00    +0.000 S 
ATOM     17  O   UNL     1       7.431   6.619  16.425  0.00  0.00    +0.000 OA
ATOM     18  O   UNL     1       8.005   4.221  16.955  0.00  0.00    +0.000 OA
BRANCH  16  19
ATOM     19  C   UNL     1       6.983   4.795  14.613  0.00  0.00    +0.000 A 
ATOM     20  C   UNL     1       6.052   3.833  14.200  0.00  0.00    +0.000 A 
ATOM     21  C   UNL     1       6.005   3.461  12.861  0.00  0.00    +0.000 A 
ATOM     22  C   UNL     1       6.873   4.052  11.941  0.00  0.00    +0.000 A 
ATOM     23  C   UNL     1       7.775   5.036  12.351  0.00  0.00    +0.000 A 
ATOM     24  C   UNL     1       7.832   5.416  13.689  0.00  0.00    +0.000 A 
ENDBRANCH  16  19
ENDBRANCH  15  16
ENDBRANCH   2  15
TORSDOF 4
ENDMDL
MODEL 6
REMARK VINA RESULT:      -8.1      3.688      7.093
REMARK  Name = 
REMARK  4 active torsions:
REMARK  status: ('A' for Active; 'I' for Inactive)
REMARK    1  A    between atoms: C_2  and  C_3
REMARK    2  A    between atoms: C_2  and  C_13
REMARK    3  A    between atoms: C_3  and  S_4
REMARK    4  A    between atoms: S_4  and  C_7
REMARK                            x       y       z     vdW  Elec       q    Type
REMARK                         _______ _______ _______ _____ _____    ______ ____
ROOT
ATOM      1  O   UNL     1       2.369   3.553  16.750  0.00  0.00    +0.000 OA
ATOM      2  C   UNL     1       3.124   4.078  17.575  0.00  0.00    +0.000 C 
ENDROOT
BRANCH   2   3
ATOM      3  C   UNL     1       2.581   5.104  18.524  0.00  0.00    +0.000 A 
ATOM      4  C   UNL     1       2.625   6.389  18.130  0.00  0.00    +0.000 A 
ATOM      5  C   UNL     1       2.053   7.430  18.971  0.00  0.00    +0.000 A 
ATOM      6  C   UNL     1       1.807   8.724  18.508  0.00  0.00    +0.000 A 
ATOM      7  C   UNL     1       1.265   9.674  19.380  0.00  0.00    +0.000 A 
ATOM      8 BR   UNL     1       0.840  11.401  18.736  0.00  0.00    +0.000 Br
ATOM      9  C   UNL     1       1.009   9.358  20.716  0.00  0.00    +0.000 A 
ATOM     10  C   UNL     1       1.252   8.067  21.179  0.00  0.00    +0.000 A 
ATOM     11  C   UNL     1       1.739   7.113  20.288  0.00  0.00    +0.000 A 
ATOM     12  O   UNL     1       1.822   5.789  20.745  0.00  0.00    +0.000 OA
ATOM     13  C   UNL     1       1.929   4.769  19.810  0.00  0.00    +0.000 A 
ATOM     14  O   UNL     1       1.507   3.642  20.052  0.00  0.00    +0.000 OA
ENDBRANCH   2   3
BRANCH   2  15
ATOM     15  C   UNL     1       4.565   3.664  17.620  0.00  0.00    +0.000 C 
BRANCH  15  16
ATOM     16  S   UNL     1       5.461   4.470  16.332  0.00  0.00    +0.000 S 
ATOM     17  O   UNL     1       6.255   3.491  15.608  0.00  0.00    +0.000 OA
ATOM     18  O   UNL     1       4.546   5.345  15.623  0.00  0.00    +0.000 OA
BRANCH  16  19
ATOM     19  C   UNL     1       6.590   5.490  17.254  0.00  0.00    +0.000 A 
ATOM     20  C   UNL     1       7.189   4.989  18.417  0.00  0.00    +0.000 A 
ATOM     21  C   UNL     1       8.003   5.822  19.177  0.00  0.00    +0.000 A 
ATOM     22  C   UNL     1       8.225   7.140  18.774  0.00  0.00    +0.000 A 
ATOM     23  C   UNL     1       7.654   7.623  17.594  0.00  0.00    +0.000 A 
ATOM     24  C   UNL     1       6.837   6.799  16.826  0.00  0.00    +0.000 A 
ENDBRANCH  16  19
ENDBRANCH  15  16
ENDBRANCH   2  15
TORSDOF 4
ENDMDL
MODEL 7
REMARK VINA RESULT:      -8.0      2.038      2.647
REMARK  Name = 
REMARK  4 active torsions:
REMARK  status: ('A' for Active; 'I' for Inactive)
REMARK    1  A    between atoms: C_2  and  C_3
REMARK    2  A    between atoms: C_2  and  C_13
REMARK    3  A    between atoms: C_3  and  S_4
REMARK    4  A    between atoms: S_4  and  C_7
REMARK                            x       y       z     vdW  Elec       q    Type
REMARK                         _______ _______ _______ _____ _____    ______ ____
ROOT
ATOM      1  O   UNL     1       5.528   3.753  19.381  0.00  0.00    +0.000 OA
ATOM      2  C   UNL     1       5.327   4.761  18.693  0.00  0.00    +0.000 C 
ENDROOT
BRANCH   2   3
ATOM      3  C   UNL     1       5.906   4.839  17.312  0.00  0.00    +0.000 A 
ATOM      4  C   UNL     1       5.356   4.052  16.370  0.00  0.00    +0.000 A 
ATOM      5  C   UNL     1       5.823   4.127  14.994  0.00  0.00    +0.000 A 
ATOM      6  C   UNL     1       5.120   3.564  13.927  0.00  0.00    +0.000 A 
ATOM      7  C   UNL     1       5.638   3.668  12.632  0.00  0.00    +0.000 A 
ATOM      8 BR   UNL     1       4.647   2.992  11.170  0.00  0.00    +0.000 Br
ATOM      9  C   UNL     1       6.869   4.287  12.399  0.00  0.00    +0.000 A 
ATOM     10  C   UNL     1       7.570   4.851  13.463  0.00  0.00    +0.000 A 
ATOM     11  C   UNL     1       7.018   4.791  14.740  0.00  0.00    +0.000 A 
ATOM     12  O   UNL     1       7.671   5.504  15.757  0.00  0.00    +0.000 OA
ATOM     13  C   UNL     1       6.973   5.787  16.923  0.00  0.00    +0.000 A 
ATOM     14  O   UNL     1       7.244   6.777  17.597  0.00  0.00    +0.000 OA
ENDBRANCH   2   3
BRANCH   2  15
ATOM     15  C   UNL     1       4.495   5.876  19.251  0.00  0.00    +0.000 C 
BRANCH  15  16
ATOM     16  S   UNL     1       3.262   6.348  18.080  0.00  0.00    +0.000 S 
ATOM     17  O   UNL     1       3.878   7.120  17.014  0.00  0.00    +0.000 OA
ATOM     18  O   UNL     1       2.457   5.180  17.775  0.00  0.00    +0.000 OA
BRANCH  16  19
ATOM     19  C   UNL     1       2.261   7.468  19.033  0.00  0.00    +0.000 A 
ATOM     20  C   UNL     1       1.864   8.692  18.477  0.00  0.00    +0.000 A 
ATOM     21  C   UNL     1       1.154   9.597  19.258  0.00  0.00    +0.000 A 
ATOM     22  C   UNL     1       0.837   9.280  20.580  0.00  0.00    +0.000 A 
ATOM     23  C   UNL     1       1.205   8.044  21.119  0.00  0.00    +0.000 A 
ATOM     24  C   UNL     1       1.916   7.131  20.346  0.00  0.00    +0.000 A 
ENDBRANCH  16  19
ENDBRANCH  15  16
ENDBRANCH   2  15
TORSDOF 4
ENDMDL
MODEL 8
REMARK VINA RESULT:      -8.0      3.660      7.011
REMARK  Name = 
REMARK  4 active torsions:
REMARK  status: ('A' for Active; 'I' for Inactive)
REMARK    1  A    between atoms: C_2  and  C_3
REMARK    2  A    between atoms: C_2  and  C_13
REMARK    3  A    between atoms: C_3  and  S_4
REMARK    4  A    between atoms: S_4  and  C_7
REMARK                            x       y       z     vdW  Elec       q    Type
REMARK                         _______ _______ _______ _____ _____    ______ ____
ROOT
ATOM      1  O   UNL     1       2.329   3.243  16.913  0.00  0.00    +0.000 OA
ATOM      2  C   UNL     1       3.094   3.826  17.689  0.00  0.00    +0.000 C 
ENDROOT
BRANCH   2   3
ATOM      3  C   UNL     1       2.550   4.877  18.611  0.00  0.00    +0.000 A 
ATOM      4  C   UNL     1       2.671   6.158  18.220  0.00  0.00    +0.000 A 
ATOM      5  C   UNL     1       2.104   7.225  19.032  0.00  0.00    +0.000 A 
ATOM      6  C   UNL     1       1.940   8.528  18.558  0.00  0.00    +0.000 A 
ATOM      7  C   UNL     1       1.397   9.503  19.402  0.00  0.00    +0.000 A 
ATOM      8 BR   UNL     1       1.083  11.246  18.739  0.00  0.00    +0.000 Br
ATOM      9  C   UNL     1       1.061   9.200  20.724  0.00  0.00    +0.000 A 
ATOM     10  C   UNL     1       1.222   7.900  21.197  0.00  0.00    +0.000 A 
ATOM     11  C   UNL     1       1.711   6.925  20.331  0.00  0.00    +0.000 A 
ATOM     12  O   UNL     1       1.712   5.599  20.790  0.00  0.00    +0.000 OA
ATOM     13  C   UNL     1       1.820   4.573  19.861  0.00  0.00    +0.000 A 
ATOM     14  O   UNL     1       1.336   3.467  20.081  0.00  0.00    +0.000 OA
ENDBRANCH   2   3
BRANCH   2  15
ATOM     15  C   UNL     1       4.548   3.457  17.704  0.00  0.00    +0.000 C 
BRANCH  15  16
ATOM     16  S   UNL     1       5.393   4.300  16.406  0.00  0.00    +0.000 S 
ATOM     17  O   UNL     1       6.267   3.369  15.712  0.00  0.00    +0.000 OA
ATOM     18  O   UNL     1       4.422   5.088  15.669  0.00  0.00    +0.000 OA
BRANCH  16  19
ATOM     19  C   UNL     1       6.432   5.423  17.314  0.00  0.00    +0.000 A 
ATOM     20  C   UNL     1       6.697   6.699  16.798  0.00  0.00    +0.000 A 
ATOM     21  C   UNL     1       7.578   7.537  17.472  0.00  0.00    +0.000 A 
ATOM     22  C   UNL     1       8.182   7.109  18.656  0.00  0.00    +0.000 A 
ATOM     23  C   UNL     1       7.888   5.850  19.184  0.00  0.00    +0.000 A 
ATOM     24  C   UNL     1       7.008   5.002  18.517  0.00  0.00    +0.000 A 
ENDBRANCH  16  19
ENDBRANCH  15  16
ENDBRANCH   2  15
TORSDOF 4
ENDMDL
MODEL 9
REMARK VINA RESULT:      -7.8      2.089      2.790
REMARK  Name = 
REMARK  4 active torsions:
REMARK  status: ('A' for Active; 'I' for Inactive)
REMARK    1  A    between atoms: C_2  and  C_3
REMARK    2  A    between atoms: C_2  and  C_13
REMARK    3  A    between atoms: C_3  and  S_4
REMARK    4  A    between atoms: S_4  and  C_7
REMARK                            x       y       z     vdW  Elec       q    Type
REMARK                         _______ _______ _______ _____ _____    ______ ____
ROOT
ATOM      1  O   UNL     1       5.166   3.660  19.344  0.00  0.00    +0.000 OA
ATOM      2  C   UNL     1       5.099   4.723  18.714  0.00  0.00    +0.000 C 
ENDROOT
BRANCH   2   3
ATOM      3  C   UNL     1       5.741   4.820  17.362  0.00  0.00    +0.000 A 
ATOM      4  C   UNL     1       5.251   4.028  16.392  0.00  0.00    +0.000 A 
ATOM      5  C   UNL     1       5.780   4.120  15.039  0.00  0.00    +0.000 A 
ATOM      6  C   UNL     1       5.140   3.550  13.938  0.00  0.00    +0.000 A 
ATOM      7  C   UNL     1       5.716   3.671  12.669  0.00  0.00    +0.000 A 
ATOM      8 BR   UNL     1       4.808   2.984  11.159  0.00  0.00    +0.000 Br
ATOM      9  C   UNL     1       6.943   4.316  12.497  0.00  0.00    +0.000 A 
ATOM     10  C   UNL     1       7.582   4.888  13.595  0.00  0.00    +0.000 A 
ATOM     11  C   UNL     1       6.972   4.810  14.844  0.00  0.00    +0.000 A 
ATOM     12  O   UNL     1       7.562   5.530  15.894  0.00  0.00    +0.000 OA
ATOM     13  C   UNL     1       6.805   5.792  17.028  0.00  0.00    +0.000 A 
ATOM     14  O   UNL     1       7.023   6.783  17.719  0.00  0.00    +0.000 OA
ENDBRANCH   2   3
BRANCH   2  15
ATOM     15  C   UNL     1       4.363   5.885  19.312  0.00  0.00    +0.000 C 
BRANCH  15  16
ATOM     16  S   UNL     1       3.116   6.442  18.196  0.00  0.00    +0.000 S 
ATOM     17  O   UNL     1       3.731   7.212  17.127  0.00  0.00    +0.000 OA
ATOM     18  O   UNL     1       2.247   5.320  17.890  0.00  0.00    +0.000 OA
BRANCH  16  19
ATOM     19  C   UNL     1       2.201   7.582  19.209  0.00  0.00    +0.000 A 
ATOM     20  C   UNL     1       1.903   7.249  20.537  0.00  0.00    +0.000 A 
ATOM     21  C   UNL     1       1.115   8.108  21.295  0.00  0.00    +0.000 A 
ATOM     22  C   UNL     1       0.636   9.293  20.735  0.00  0.00    +0.000 A 
ATOM     23  C   UNL     1       0.964   9.638  19.422  0.00  0.00    +0.000 A 
ATOM     24  C   UNL     1       1.752   8.785  18.653  0.00  0.00    +0.000 A 
ENDBRANCH  16  19
ENDBRANCH  15  16
ENDBRANCH   2  15
TORSDOF 4
ENDMDL
