MODEL 1
REMARK VINA RESULT:      -7.4      0.000      0.000
REMARK  Name = 
REMARK  4 active torsions:
REMARK  status: ('A' for Active; 'I' for Inactive)
REMARK    1  A    between atoms: C_1  and  O_2
REMARK    2  A    between atoms: O_2  and  C_3
REMARK    3  A    between atoms: C_5  and  N_6
REMARK    4  A    between atoms: C_11  and  C_12
REMARK                            x       y       z     vdW  Elec       q    Type
REMARK                         _______ _______ _______ _____ _____    ______ ____
ROOT
ATOM      1  C   UNL     1       5.723   5.100  18.370  0.00  0.00    +0.000 A 
ATOM      2  C   UNL     1       6.540   5.080  17.230  0.00  0.00    +0.000 A 
ATOM      3  C   UNL     1       6.037   4.603  16.016  0.00  0.00    +0.000 A 
ATOM      4  C   UNL     1       4.722   4.152  15.925  0.00  0.00    +0.000 A 
ATOM      5  C   UNL     1       3.892   4.236  17.044  0.00  0.00    +0.000 A 
ATOM      6  C   UNL     1       4.364   4.713  18.280  0.00  0.00    +0.000 A 
ENDROOT
BRANCH   6   7
ATOM      7  C   UNL     1       3.402   5.003  19.368  0.00  0.00    +0.000 C 
ATOM      8  C   UNL     1       2.577   6.051  19.549  0.00  0.00    +0.000 C 
ATOM      9  C   UNL     1       1.918   6.378  20.878  0.00  0.00    +0.000 C 
ATOM     10  C   UNL     1       1.544   7.823  20.745  0.00  0.00    +0.000 A 
ATOM     11  C   UNL     1       1.106   8.696  21.729  0.00  0.00    +0.000 A 
ATOM     12  C   UNL     1       0.802  10.013  21.364  0.00  0.00    +0.000 A 
ATOM     13  C   UNL     1       0.923  10.436  20.028  0.00  0.00    +0.000 A 
ATOM     14  C   UNL     1       1.369   9.556  19.040  0.00  0.00    +0.000 A 
ATOM     15  C   UNL     1       1.684   8.266  19.428  0.00  0.00    +0.000 A 
ATOM     16  C   UNL     1       2.251   7.184  18.613  0.00  0.00    +0.000 C 
ATOM     17  O   UNL     1       2.408   7.227  17.410  0.00  0.00    +0.000 OA
ENDBRANCH   6   7
BRANCH   3  18
ATOM     18  N   UNL     1       6.892   4.608  14.825  0.00  0.00    +0.000 N 
ATOM     19  O   UNL     1       6.627   3.799  13.923  0.00  0.00    +0.000 OA
ATOM     20  O   UNL     1       7.836   5.409  14.793  0.00  0.00    +0.000 OA
ENDBRANCH   3  18
BRANCH   1  22
ATOM     21  C   UNL     1       7.605   5.733  19.652  0.00  0.00    +0.000 C 
ATOM     22  O   UNL     1       6.190   5.541  19.589  0.00  0.00    +0.000 OA
ENDBRANCH   1  22
TORSDOF 3
ENDMDL
MODEL 2
REMARK VINA RESULT:      -7.4      1.581      2.355
REMARK  Name = 
REMARK  4 active torsions:
REMARK  status: ('A' for Active; 'I' for Inactive)
REMARK    1  A    between atoms: C_1  and  O_2
REMARK    2  A    between atoms: O_2  and  C_3
REMARK    3  A    between atoms: C_5  and  N_6
REMARK    4  A    between atoms: C_11  and  C_12
REMARK                            x       y       z     vdW  Elec       q    Type
REMARK                         _______ _______ _______ _____ _____    ______ ____
ROOT
ATOM      1  C   UNL     1       3.692   4.966  17.451  0.00  0.00    +0.000 A 
ATOM      2  C   UNL     1       4.766   4.575  16.636  0.00  0.00    +0.000 A 
ATOM      3  C   UNL     1       5.807   5.469  16.373  0.00  0.00    +0.000 A 
ATOM      4  C   UNL     1       5.795   6.749  16.921  0.00  0.00    +0.000 A 
ATOM      5  C   UNL     1       4.760   7.113  17.785  0.00  0.00    +0.000 A 
ATOM      6  C   UNL     1       3.698   6.238  18.074  0.00  0.00    +0.000 A 
ENDROOT
BRANCH   6   7
ATOM      7  C   UNL     1       2.753   6.569  19.166  0.00  0.00    +0.000 C 
ATOM      8  C   UNL     1       1.979   7.653  19.353  0.00  0.00    +0.000 C 
ATOM      9  C   UNL     1       1.340   8.006  20.685  0.00  0.00    +0.000 C 
ATOM     10  C   UNL     1       1.034   9.467  20.558  0.00  0.00    +0.000 A 
ATOM     11  C   UNL     1       0.639  10.356  21.547  0.00  0.00    +0.000 A 
ATOM     12  C   UNL     1       0.395  11.687  21.187  0.00  0.00    +0.000 A 
ATOM     13  C   UNL     1       0.532  12.109  19.853  0.00  0.00    +0.000 A 
ATOM     14  C   UNL     1       0.933  11.212  18.860  0.00  0.00    +0.000 A 
ATOM     15  C   UNL     1       1.189   9.908  19.242  0.00  0.00    +0.000 A 
ATOM     16  C   UNL     1       1.703   8.803  18.422  0.00  0.00    +0.000 C 
ATOM     17  O   UNL     1       1.857   8.843  17.218  0.00  0.00    +0.000 OA
ENDBRANCH   6   7
BRANCH   3  18
ATOM     18  N   UNL     1       6.936   5.043  15.538  0.00  0.00    +0.000 N 
ATOM     19  O   UNL     1       6.862   5.254  14.319  0.00  0.00    +0.000 OA
ATOM     20  O   UNL     1       7.891   4.486  16.097  0.00  0.00    +0.000 OA
ENDBRANCH   3  18
BRANCH   1  22
ATOM     21  C   UNL     1       2.957   2.730  17.656  0.00  0.00    +0.000 C 
ATOM     22  O   UNL     1       2.637   4.122  17.714  0.00  0.00    +0.000 OA
ENDBRANCH   1  22
TORSDOF 3
ENDMDL
MODEL 3
REMARK VINA RESULT:      -7.3      2.779      4.003
REMARK  Name = 
REMARK  4 active torsions:
REMARK  status: ('A' for Active; 'I' for Inactive)
REMARK    1  A    between atoms: C_1  and  O_2
REMARK    2  A    between atoms: O_2  and  C_3
REMARK    3  A    between atoms: C_5  and  N_6
REMARK    4  A    between atoms: C_11  and  C_12
REMARK                            x       y       z     vdW  Elec       q    Type
REMARK                         _______ _______ _______ _____ _____    ______ ____
ROOT
ATOM      1  C   UNL     1       6.544   5.999  16.506  0.00  0.00    +0.000 A 
ATOM      2  C   UNL     1       7.437   5.887  15.428  0.00  0.00    +0.000 A 
ATOM      3  C   UNL     1       7.038   5.248  14.252  0.00  0.00    +0.000 A 
ATOM      4  C   UNL     1       5.752   4.726  14.133  0.00  0.00    +0.000 A 
ATOM      5  C   UNL     1       4.844   4.898  15.180  0.00  0.00    +0.000 A 
ATOM      6  C   UNL     1       5.212   5.538  16.377  0.00  0.00    +0.000 A 
ENDROOT
BRANCH   6   7
ATOM      7  C   UNL     1       4.167   5.906  17.361  0.00  0.00    +0.000 C 
ATOM      8  C   UNL     1       3.790   5.302  18.503  0.00  0.00    +0.000 C 
ATOM      9  C   UNL     1       2.479   5.596  19.212  0.00  0.00    +0.000 C 
ATOM     10  C   UNL     1       2.267   4.394  20.081  0.00  0.00    +0.000 A 
ATOM     11  C   UNL     1       1.130   4.028  20.786  0.00  0.00    +0.000 A 
ATOM     12  C   UNL     1       1.168   2.855  21.548  0.00  0.00    +0.000 A 
ATOM     13  C   UNL     1       2.336   2.074  21.611  0.00  0.00    +0.000 A 
ATOM     14  C   UNL     1       3.478   2.443  20.897  0.00  0.00    +0.000 A 
ATOM     15  C   UNL     1       3.410   3.594  20.133  0.00  0.00    +0.000 A 
ATOM     16  C   UNL     1       4.427   4.149  19.230  0.00  0.00    +0.000 C 
ATOM     17  O   UNL     1       5.562   3.732  19.120  0.00  0.00    +0.000 OA
ENDBRANCH   6   7
BRANCH   3  18
ATOM     18  N   UNL     1       7.970   5.155  13.124  0.00  0.00    +0.000 N 
ATOM     19  O   UNL     1       7.645   4.439  12.165  0.00  0.00    +0.000 OA
ATOM     20  O   UNL     1       9.033   5.787  13.199  0.00  0.00    +0.000 OA
ENDBRANCH   3  18
BRANCH   1  22
ATOM     21  C   UNL     1       7.620   7.832  17.540  0.00  0.00    +0.000 C 
ATOM     22  O   UNL     1       6.909   6.601  17.690  0.00  0.00    +0.000 OA
ENDBRANCH   1  22
TORSDOF 3
ENDMDL
MODEL 4
REMARK VINA RESULT:      -7.2      2.491      3.707
REMARK  Name = 
REMARK  4 active torsions:
REMARK  status: ('A' for Active; 'I' for Inactive)
REMARK    1  A    between atoms: C_1  and  O_2
REMARK    2  A    between atoms: O_2  and  C_3
REMARK    3  A    between atoms: C_5  and  N_6
REMARK    4  A    between atoms: C_11  and  C_12
REMARK                            x       y       z     vdW  Elec       q    Type
REMARK                         _______ _______ _______ _____ _____    ______ ____
ROOT
ATOM      1  C   UNL     1       4.527   5.578  18.469  0.00  0.00    +0.000 A 
ATOM      2  C   UNL     1       4.836   4.234  18.729  0.00  0.00    +0.000 A 
ATOM      3  C   UNL     1       3.830   3.348  19.125  0.00  0.00    +0.000 A 
ATOM      4  C   UNL     1       2.515   3.787  19.258  0.00  0.00    +0.000 A 
ATOM      5  C   UNL     1       2.199   5.108  18.935  0.00  0.00    +0.000 A 
ATOM      6  C   UNL     1       3.186   6.025  18.531  0.00  0.00    +0.000 A 
ENDROOT
BRANCH   6   7
ATOM      7  C   UNL     1       2.781   7.338  17.976  0.00  0.00    +0.000 C 
ATOM      8  C   UNL     1       2.095   8.350  18.539  0.00  0.00    +0.000 C 
ATOM      9  C   UNL     1       1.454   9.473  17.740  0.00  0.00    +0.000 C 
ATOM     10  C   UNL     1       0.427  10.034  18.675  0.00  0.00    +0.000 A 
ATOM     11  C   UNL     1      -0.592  10.934  18.400  0.00  0.00    +0.000 A 
ATOM     12  C   UNL     1      -1.433  11.328  19.447  0.00  0.00    +0.000 A 
ATOM     13  C   UNL     1      -1.241  10.836  20.750  0.00  0.00    +0.000 A 
ATOM     14  C   UNL     1      -0.217   9.926  21.023  0.00  0.00    +0.000 A 
ATOM     15  C   UNL     1       0.588   9.534  19.969  0.00  0.00    +0.000 A 
ATOM     16  C   UNL     1       1.665   8.536  19.969  0.00  0.00    +0.000 C 
ATOM     17  O   UNL     1       2.106   7.987  20.958  0.00  0.00    +0.000 OA
ENDBRANCH   6   7
BRANCH   3  18
ATOM     18  N   UNL     1       4.159   1.940  19.372  0.00  0.00    +0.000 N 
ATOM     19  O   UNL     1       4.931   1.685  20.308  0.00  0.00    +0.000 OA
ATOM     20  O   UNL     1       3.657   1.090  18.625  0.00  0.00    +0.000 OA
ENDBRANCH   3  18
BRANCH   1  22
ATOM     21  C   UNL     1       6.376   6.032  17.069  0.00  0.00    +0.000 C 
ATOM     22  O   UNL     1       5.495   6.485  18.100  0.00  0.00    +0.000 OA
ENDBRANCH   1  22
TORSDOF 3
ENDMDL
MODEL 5
REMARK VINA RESULT:      -7.1      1.384      2.349
REMARK  Name = 
REMARK  4 active torsions:
REMARK  status: ('A' for Active; 'I' for Inactive)
REMARK    1  A    between atoms: C_1  and  O_2
REMARK    2  A    between atoms: O_2  and  C_3
REMARK    3  A    between atoms: C_5  and  N_6
REMARK    4  A    between atoms: C_11  and  C_12
REMARK                            x       y       z     vdW  Elec       q    Type
REMARK                         _______ _______ _______ _____ _____    ______ ____
ROOT
ATOM      1  C   UNL     1       3.747   4.634  17.664  0.00  0.00    +0.000 A 
ATOM      2  C   UNL     1       4.902   4.281  16.950  0.00  0.00    +0.000 A 
ATOM      3  C   UNL     1       6.104   4.954  17.186  0.00  0.00    +0.000 A 
ATOM      4  C   UNL     1       6.169   5.972  18.135  0.00  0.00    +0.000 A 
ATOM      5  C   UNL     1       5.035   6.275  18.891  0.00  0.00    +0.000 A 
ATOM      6  C   UNL     1       3.810   5.617  18.681  0.00  0.00    +0.000 A 
ENDROOT
BRANCH   6   7
ATOM      7  C   UNL     1       2.706   5.800  19.651  0.00  0.00    +0.000 C 
ATOM      8  C   UNL     1       1.913   6.862  19.882  0.00  0.00    +0.000 C 
ATOM      9  C   UNL     1       1.072   7.022  21.138  0.00  0.00    +0.000 C 
ATOM     10  C   UNL     1       0.791   8.492  21.195  0.00  0.00    +0.000 A 
ATOM     11  C   UNL     1       0.247   9.228  22.237  0.00  0.00    +0.000 A 
ATOM     12  C   UNL     1       0.065  10.604  22.056  0.00  0.00    +0.000 A 
ATOM     13  C   UNL     1       0.411  11.223  20.842  0.00  0.00    +0.000 A 
ATOM     14  C   UNL     1       0.962  10.480  19.796  0.00  0.00    +0.000 A 
ATOM     15  C   UNL     1       1.153   9.126  20.004  0.00  0.00    +0.000 A 
ATOM     16  C   UNL     1       1.789   8.148  19.111  0.00  0.00    +0.000 C 
ATOM     17  O   UNL     1       2.131   8.370  17.968  0.00  0.00    +0.000 OA
ENDBRANCH   6   7
BRANCH   3  18
ATOM     18  N   UNL     1       7.311   4.563  16.451  0.00  0.00    +0.000 N 
ATOM     19  O   UNL     1       8.266   4.118  17.106  0.00  0.00    +0.000 OA
ATOM     20  O   UNL     1       7.313   4.710  15.222  0.00  0.00    +0.000 OA
ENDBRANCH   3  18
BRANCH   1  22
ATOM     21  C   UNL     1       2.545   2.599  17.669  0.00  0.00    +0.000 C 
ATOM     22  O   UNL     1       2.539   4.010  17.442  0.00  0.00    +0.000 OA
ENDBRANCH   1  22
TORSDOF 3
ENDMDL
MODEL 6
REMARK VINA RESULT:      -6.9      3.651      7.294
REMARK  Name = 
REMARK  4 active torsions:
REMARK  status: ('A' for Active; 'I' for Inactive)
REMARK    1  A    between atoms: C_1  and  O_2
REMARK    2  A    between atoms: O_2  and  C_3
REMARK    3  A    between atoms: C_5  and  N_6
REMARK    4  A    between atoms: C_11  and  C_12
REMARK                            x       y       z     vdW  Elec       q    Type
REMARK                         _______ _______ _______ _____ _____    ______ ____
ROOT
ATOM      1  C   UNL     1       1.049   9.932  21.289  0.00  0.00    +0.000 A 
ATOM      2  C   UNL     1       0.751  11.211  20.794  0.00  0.00    +0.000 A 
ATOM      3  C   UNL     1       0.729  11.441  19.416  0.00  0.00    +0.000 A 
ATOM      4  C   UNL     1       0.993  10.405  18.523  0.00  0.00    +0.000 A 
ATOM      5  C   UNL     1       1.223   9.119  19.016  0.00  0.00    +0.000 A 
ATOM      6  C   UNL     1       1.250   8.852  20.397  0.00  0.00    +0.000 A 
ENDROOT
BRANCH   6   7
ATOM      7  C   UNL     1       1.263   7.448  20.870  0.00  0.00    +0.000 C 
ATOM      8  C   UNL     1       1.780   6.341  20.307  0.00  0.00    +0.000 C 
ATOM      9  C   UNL     1       1.407   4.932  20.735  0.00  0.00    +0.000 C 
ATOM     10  C   UNL     1       1.796   4.087  19.560  0.00  0.00    +0.000 A 
ATOM     11  C   UNL     1       1.491   2.757  19.314  0.00  0.00    +0.000 A 
ATOM     12  C   UNL     1       1.979   2.168  18.141  0.00  0.00    +0.000 A 
ATOM     13  C   UNL     1       2.772   2.903  17.242  0.00  0.00    +0.000 A 
ATOM     14  C   UNL     1       3.074   4.243  17.491  0.00  0.00    +0.000 A 
ATOM     15  C   UNL     1       2.563   4.811  18.645  0.00  0.00    +0.000 A 
ATOM     16  C   UNL     1       2.657   6.207  19.091  0.00  0.00    +0.000 C 
ATOM     17  O   UNL     1       3.331   7.064  18.558  0.00  0.00    +0.000 OA
ENDBRANCH   6   7
BRANCH   3  18
ATOM     18  N   UNL     1       0.395  12.775  18.908  0.00  0.00    +0.000 N 
ATOM     19  O   UNL     1      -0.777  13.161  19.031  0.00  0.00    +0.000 OA
ATOM     20  O   UNL     1       1.298  13.434  18.375  0.00  0.00    +0.000 OA
ENDBRANCH   3  18
BRANCH   1  22
ATOM     21  C   UNL     1      -0.165   9.674  23.301  0.00  0.00    +0.000 C 
ATOM     22  O   UNL     1       1.103   9.673  22.641  0.00  0.00    +0.000 OA
ENDBRANCH   1  22
TORSDOF 3
ENDMDL
MODEL 7
REMARK VINA RESULT:      -6.8      2.649      3.888
REMARK  Name = 
REMARK  4 active torsions:
REMARK  status: ('A' for Active; 'I' for Inactive)
REMARK    1  A    between atoms: C_1  and  O_2
REMARK    2  A    between atoms: O_2  and  C_3
REMARK    3  A    between atoms: C_5  and  N_6
REMARK    4  A    between atoms: C_11  and  C_12
REMARK                            x       y       z     vdW  Elec       q    Type
REMARK                         _______ _______ _______ _____ _____    ______ ____
ROOT
ATOM      1  C   UNL     1       3.955   5.581  17.964  0.00  0.00    +0.000 A 
ATOM      2  C   UNL     1       3.992   4.179  18.028  0.00  0.00    +0.000 A 
ATOM      3  C   UNL     1       2.851   3.465  18.400  0.00  0.00    +0.000 A 
ATOM      4  C   UNL     1       1.667   4.133  18.703  0.00  0.00    +0.000 A 
ATOM      5  C   UNL     1       1.614   5.523  18.575  0.00  0.00    +0.000 A 
ATOM      6  C   UNL     1       2.743   6.272  18.200  0.00  0.00    +0.000 A 
ENDROOT
BRANCH   6   7
ATOM      7  C   UNL     1       2.587   7.704  17.850  0.00  0.00    +0.000 C 
ATOM      8  C   UNL     1       2.009   8.711  18.529  0.00  0.00    +0.000 C 
ATOM      9  C   UNL     1       1.615  10.033  17.891  0.00  0.00    +0.000 C 
ATOM     10  C   UNL     1       0.600  10.597  18.837  0.00  0.00    +0.000 A 
ATOM     11  C   UNL     1      -0.246  11.680  18.651  0.00  0.00    +0.000 A 
ATOM     12  C   UNL     1      -1.112  12.035  19.692  0.00  0.00    +0.000 A 
ATOM     13  C   UNL     1      -1.114  11.320  20.903  0.00  0.00    +0.000 A 
ATOM     14  C   UNL     1      -0.264  10.227  21.086  0.00  0.00    +0.000 A 
ATOM     15  C   UNL     1       0.568   9.882  20.036  0.00  0.00    +0.000 A 
ATOM     16  C   UNL     1       1.483   8.737  19.938  0.00  0.00    +0.000 C 
ATOM     17  O   UNL     1       1.746   7.976  20.847  0.00  0.00    +0.000 OA
ENDBRANCH   6   7
BRANCH   3  18
ATOM     18  N   UNL     1       2.893   1.999  18.442  0.00  0.00    +0.000 N 
ATOM     19  O   UNL     1       3.853   1.435  17.897  0.00  0.00    +0.000 OA
ATOM     20  O   UNL     1       1.962   1.409  19.007  0.00  0.00    +0.000 OA
ENDBRANCH   3  18
BRANCH   1  22
ATOM     21  C   UNL     1       5.636   5.993  16.354  0.00  0.00    +0.000 C 
ATOM     22  O   UNL     1       5.066   6.320  17.624  0.00  0.00    +0.000 OA
ENDBRANCH   1  22
TORSDOF 3
ENDMDL
MODEL 8
REMARK VINA RESULT:      -6.8      2.771      4.531
REMARK  Name = 
REMARK  4 active torsions:
REMARK  status: ('A' for Active; 'I' for Inactive)
REMARK    1  A    between atoms: C_1  and  O_2
REMARK    2  A    between atoms: O_2  and  C_3
REMARK    3  A    between atoms: C_5  and  N_6
REMARK    4  A    between atoms: C_11  and  C_12
REMARK                            x       y       z     vdW  Elec       q    Type
REMARK                         _______ _______ _______ _____ _____    ______ ____
ROOT
ATOM      1  C   UNL     1       3.752   5.851  18.914  0.00  0.00    +0.000 A 
ATOM      2  C   UNL     1       4.001   4.579  19.453  0.00  0.00    +0.000 A 
ATOM      3  C   UNL     1       3.125   4.036  20.398  0.00  0.00    +0.000 A 
ATOM      4  C   UNL     1       1.998   4.744  20.806  0.00  0.00    +0.000 A 
ATOM      5  C   UNL     1       1.717   5.980  20.219  0.00  0.00    +0.000 A 
ATOM      6  C   UNL     1       2.575   6.555  19.264  0.00  0.00    +0.000 A 
ENDROOT
BRANCH   6   7
ATOM      7  C   UNL     1       2.127   7.743  18.500  0.00  0.00    +0.000 C 
ATOM      8  C   UNL     1       1.487   8.854  18.908  0.00  0.00    +0.000 C 
ATOM      9  C   UNL     1       0.786   9.812  17.961  0.00  0.00    +0.000 C 
ATOM     10  C   UNL     1      -0.167  10.556  18.846  0.00  0.00    +0.000 A 
ATOM     11  C   UNL     1      -1.204  11.401  18.481  0.00  0.00    +0.000 A 
ATOM     12  C   UNL     1      -1.962  12.001  19.494  0.00  0.00    +0.000 A 
ATOM     13  C   UNL     1      -1.669  11.764  20.848  0.00  0.00    +0.000 A 
ATOM     14  C   UNL     1      -0.626  10.910  21.213  0.00  0.00    +0.000 A 
ATOM     15  C   UNL     1       0.095  10.311  20.195  0.00  0.00    +0.000 A 
ATOM     16  C   UNL     1       1.170   9.316  20.305  0.00  0.00    +0.000 C 
ATOM     17  O   UNL     1       1.686   8.960  21.345  0.00  0.00    +0.000 OA
ENDBRANCH   6   7
BRANCH   3  18
ATOM     18  N   UNL     1       3.381   2.697  20.938  0.00  0.00    +0.000 N 
ATOM     19  O   UNL     1       2.759   2.358  21.956  0.00  0.00    +0.000 OA
ATOM     20  O   UNL     1       4.212   1.986  20.355  0.00  0.00    +0.000 OA
ENDBRANCH   3  18
BRANCH   1  22
ATOM     21  C   UNL     1       5.890   5.810  17.906  0.00  0.00    +0.000 C 
ATOM     22  O   UNL     1       4.604   6.429  18.000  0.00  0.00    +0.000 OA
ENDBRANCH   1  22
TORSDOF 3
ENDMDL
MODEL 9
REMARK VINA RESULT:      -6.7      1.632      2.573
REMARK  Name = 
REMARK  4 active torsions:
REMARK  status: ('A' for Active; 'I' for Inactive)
REMARK    1  A    between atoms: C_1  and  O_2
REMARK    2  A    between atoms: O_2  and  C_3
REMARK    3  A    between atoms: C_5  and  N_6
REMARK    4  A    between atoms: C_11  and  C_12
REMARK                            x       y       z     vdW  Elec       q    Type
REMARK                         _______ _______ _______ _____ _____    ______ ____
ROOT
ATOM      1  C   UNL     1       6.593   4.658  16.427  0.00  0.00    +0.000 A 
ATOM      2  C   UNL     1       7.445   5.168  15.435  0.00  0.00    +0.000 A 
ATOM      3  C   UNL     1       7.213   4.866  14.090  0.00  0.00    +0.000 A 
ATOM      4  C   UNL     1       6.134   4.066  13.722  0.00  0.00    +0.000 A 
ATOM      5  C   UNL     1       5.250   3.615  14.704  0.00  0.00    +0.000 A 
ATOM      6  C   UNL     1       5.452   3.902  16.066  0.00  0.00    +0.000 A 
ENDROOT
BRANCH   6   7
ATOM      7  C   UNL     1       4.376   3.609  17.042  0.00  0.00    +0.000 C 
ATOM      8  C   UNL     1       3.531   4.435  17.685  0.00  0.00    +0.000 C 
ATOM      9  C   UNL     1       2.731   4.027  18.910  0.00  0.00    +0.000 C 
ATOM     10  C   UNL     1       2.364   5.332  19.548  0.00  0.00    +0.000 A 
ATOM     11  C   UNL     1       1.817   5.557  20.802  0.00  0.00    +0.000 A 
ATOM     12  C   UNL     1       1.546   6.876  21.184  0.00  0.00    +0.000 A 
ATOM     13  C   UNL     1       1.806   7.947  20.310  0.00  0.00    +0.000 A 
ATOM     14  C   UNL     1       2.360   7.717  19.049  0.00  0.00    +0.000 A 
ATOM     15  C   UNL     1       2.641   6.408  18.702  0.00  0.00    +0.000 A 
ATOM     16  C   UNL     1       3.299   5.909  17.488  0.00  0.00    +0.000 C 
ATOM     17  O   UNL     1       3.583   6.587  16.521  0.00  0.00    +0.000 OA
ENDBRANCH   6   7
BRANCH   3  18
ATOM     18  N   UNL     1       8.096   5.421  13.059  0.00  0.00    +0.000 N 
ATOM     19  O   UNL     1       9.079   6.077  13.435  0.00  0.00    +0.000 OA
ATOM     20  O   UNL     1       7.802   5.215  11.874  0.00  0.00    +0.000 OA
ENDBRANCH   3  18
BRANCH   1  22
ATOM     21  C   UNL     1       7.369   6.197  18.044  0.00  0.00    +0.000 C 
ATOM     22  O   UNL     1       6.803   4.914  17.764  0.00  0.00    +0.000 OA
ENDBRANCH   1  22
TORSDOF 3
ENDMDL
