MODEL 1
REMARK VINA RESULT:      -8.7      0.000      0.000
REMARK  Name = 
REMARK  6 active torsions:
REMARK  status: ('A' for Active; 'I' for Inactive)
REMARK    1  A    between atoms: C_1  and  C_2
REMARK    2  A    between atoms: C_4  and  C_5
REMARK    3  A    between atoms: N_7  and  C_8
REMARK    4  A    between atoms: C_10  and  C_11
REMARK    5  A    between atoms: C_10  and  C_12
REMARK    6  A    between atoms: N_18  and  C_19
REMARK                            x       y       z     vdW  Elec       q    Type
REMARK                         _______ _______ _______ _____ _____    ______ ____
ROOT
ATOM      1  C   UNL     1       4.833   4.715  17.855  0.00  0.00    +0.000 C 
ATOM      2  C   UNL     1       3.931   3.554  18.335  0.00  0.00    +0.000 C 
ATOM      3  C   UNL     1       2.571   3.840  19.067  0.00  0.00    +0.000 C 
ATOM      4  C   UNL     1       1.453   3.078  18.314  0.00  0.00    +0.000 C 
ATOM      5  C   UNL     1       2.645   3.234  20.490  0.00  0.00    +0.000 C 
ATOM      6  C   UNL     1       2.116   5.319  19.223  0.00  0.00    +0.000 C 
ATOM      7  C   UNL     1       3.017   6.312  18.601  0.00  0.00    +0.000 A 
ATOM      8  C   UNL     1       4.199   6.045  17.954  0.00  0.00    +0.000 A 
ATOM      9  C   UNL     1       4.603   7.289  17.437  0.00  0.00    +0.000 A 
ATOM     10  N   UNL     1       3.711   8.252  17.668  0.00  0.00    +0.000 NA
ATOM     11  N   UNL     1       2.774   7.671  18.467  0.00  0.00    +0.000 N 
ENDROOT
BRANCH  11  12
ATOM     12  C   UNL     1       1.703   8.447  18.995  0.00  0.00    +0.000 A 
ATOM     13  C   UNL     1       1.392   8.342  20.359  0.00  0.00    +0.000 A 
ATOM     14  C   UNL     1       0.409   9.162  20.915  0.00  0.00    +0.000 A 
ATOM     15  C   UNL     1      -0.285  10.054  20.105  0.00  0.00    +0.000 A 
ATOM     16  F   UNL     1      -1.219  10.850  20.641  0.00  0.00    +0.000 F 
ATOM     17  C   UNL     1      -0.032  10.125  18.742  0.00  0.00    +0.000 A 
ATOM     18  C   UNL     1       0.959   9.316  18.183  0.00  0.00    +0.000 A 
ENDBRANCH  11  12
BRANCH   1  21
ATOM     19  C   UNL     1       6.499   4.793  16.020  0.00  0.00    +0.000 C 
ATOM     20  O   UNL     1       7.384   5.244  16.740  0.00  0.00    +0.000 OA
ATOM     21  N   UNL     1       5.230   4.519  16.475  0.00  0.00    +0.000 N 
ATOM     22  H   UNL     1       4.597   4.067  15.823  0.00  0.00    +0.000 HD
BRANCH  19  26
ATOM     23  C   UNL     1       6.581   2.878  11.314  0.00  0.00    +0.000 C 
ATOM     24  C   UNL     1       6.674   3.636  12.574  0.00  0.00    +0.000 A 
ATOM     25  C   UNL     1       6.097   3.512  13.813  0.00  0.00    +0.000 A 
ATOM     26  C   UNL     1       6.700   4.533  14.593  0.00  0.00    +0.000 A 
ATOM     27  N   UNL     1       7.553   5.258  13.848  0.00  0.00    +0.000 NA
ATOM     28  O   UNL     1       7.530   4.692  12.584  0.00  0.00    +0.000 OA
ENDBRANCH  19  26
ENDBRANCH   1  21
TORSDOF 3
ENDMDL
MODEL 2
REMARK VINA RESULT:      -8.6      0.811      1.235
REMARK  Name = 
REMARK  6 active torsions:
REMARK  status: ('A' for Active; 'I' for Inactive)
REMARK    1  A    between atoms: C_1  and  C_2
REMARK    2  A    between atoms: C_4  and  C_5
REMARK    3  A    between atoms: N_7  and  C_8
REMARK    4  A    between atoms: C_10  and  C_11
REMARK    5  A    between atoms: C_10  and  C_12
REMARK    6  A    between atoms: N_18  and  C_19
REMARK                            x       y       z     vdW  Elec       q    Type
REMARK                         _______ _______ _______ _____ _____    ______ ____
ROOT
ATOM      1  C   UNL     1       4.589   4.319  17.832  0.00  0.00    +0.000 C 
ATOM      2  C   UNL     1       3.718   3.196  18.441  0.00  0.00    +0.000 C 
ATOM      3  C   UNL     1       2.497   3.538  19.368  0.00  0.00    +0.000 C 
ATOM      4  C   UNL     1       1.245   2.830  18.791  0.00  0.00    +0.000 C 
ATOM      5  C   UNL     1       2.755   2.920  20.764  0.00  0.00    +0.000 C 
ATOM      6  C   UNL     1       2.136   5.034  19.589  0.00  0.00    +0.000 C 
ATOM      7  C   UNL     1       2.978   5.990  18.839  0.00  0.00    +0.000 A 
ATOM      8  C   UNL     1       4.037   5.674  18.023  0.00  0.00    +0.000 A 
ATOM      9  C   UNL     1       4.414   6.903  17.451  0.00  0.00    +0.000 A 
ATOM     10  N   UNL     1       3.611   7.903  17.812  0.00  0.00    +0.000 NA
ATOM     11  N   UNL     1       2.778   7.360  18.742  0.00  0.00    +0.000 N 
ENDROOT
BRANCH  11  12
ATOM     12  C   UNL     1       1.833   8.179  19.423  0.00  0.00    +0.000 A 
ATOM     13  C   UNL     1       1.248   9.256  18.741  0.00  0.00    +0.000 A 
ATOM     14  C   UNL     1       0.252  10.013  19.359  0.00  0.00    +0.000 A 
ATOM     15  C   UNL     1      -0.130   9.720  20.664  0.00  0.00    +0.000 A 
ATOM     16  F   UNL     1      -1.094  10.438  21.252  0.00  0.00    +0.000 F 
ATOM     17  C   UNL     1       0.485   8.697  21.373  0.00  0.00    +0.000 A 
ATOM     18  C   UNL     1       1.473   7.928  20.755  0.00  0.00    +0.000 A 
ENDBRANCH  11  12
BRANCH   1  21
ATOM     19  C   UNL     1       5.986   4.244  15.784  0.00  0.00    +0.000 C 
ATOM     20  O   UNL     1       7.009   4.564  16.379  0.00  0.00    +0.000 OA
ATOM     21  N   UNL     1       4.767   4.114  16.408  0.00  0.00    +0.000 N 
ATOM     22  H   UNL     1       3.999   3.760  15.845  0.00  0.00    +0.000 HD
BRANCH  19  26
ATOM     23  C   UNL     1       4.774   2.982  11.014  0.00  0.00    +0.000 C 
ATOM     24  C   UNL     1       5.342   3.438  12.294  0.00  0.00    +0.000 A 
ATOM     25  C   UNL     1       4.834   3.631  13.554  0.00  0.00    +0.000 A 
ATOM     26  C   UNL     1       5.956   4.000  14.340  0.00  0.00    +0.000 A 
ATOM     27  N   UNL     1       7.065   4.073  13.582  0.00  0.00    +0.000 NA
ATOM     28  O   UNL     1       6.671   3.722  12.301  0.00  0.00    +0.000 OA
ENDBRANCH  19  26
ENDBRANCH   1  21
TORSDOF 3
ENDMDL
MODEL 3
REMARK VINA RESULT:      -8.2      3.263      5.419
REMARK  Name = 
REMARK  6 active torsions:
REMARK  status: ('A' for Active; 'I' for Inactive)
REMARK    1  A    between atoms: C_1  and  C_2
REMARK    2  A    between atoms: C_4  and  C_5
REMARK    3  A    between atoms: N_7  and  C_8
REMARK    4  A    between atoms: C_10  and  C_11
REMARK    5  A    between atoms: C_10  and  C_12
REMARK    6  A    between atoms: N_18  and  C_19
REMARK                            x       y       z     vdW  Elec       q    Type
REMARK                         _______ _______ _______ _____ _____    ______ ____
ROOT
ATOM      1  C   UNL     1       4.354   3.696  18.098  0.00  0.00    +0.000 C 
ATOM      2  C   UNL     1       5.451   4.363  17.236  0.00  0.00    +0.000 C 
ATOM      3  C   UNL     1       5.397   5.898  16.910  0.00  0.00    +0.000 C 
ATOM      4  C   UNL     1       6.747   6.526  17.335  0.00  0.00    +0.000 C 
ATOM      5  C   UNL     1       5.288   6.069  15.375  0.00  0.00    +0.000 C 
ATOM      6  C   UNL     1       4.258   6.745  17.546  0.00  0.00    +0.000 C 
ATOM      7  C   UNL     1       3.361   5.996  18.451  0.00  0.00    +0.000 A 
ATOM      8  C   UNL     1       3.429   4.654  18.734  0.00  0.00    +0.000 A 
ATOM      9  C   UNL     1       2.457   4.459  19.732  0.00  0.00    +0.000 A 
ATOM     10  N   UNL     1       1.875   5.597  20.108  0.00  0.00    +0.000 NA
ATOM     11  N   UNL     1       2.367   6.536  19.254  0.00  0.00    +0.000 N 
ENDROOT
BRANCH  11  12
ATOM     12  C   UNL     1       1.884   7.875  19.306  0.00  0.00    +0.000 A 
ATOM     13  C   UNL     1       1.402   8.378  20.523  0.00  0.00    +0.000 A 
ATOM     14  C   UNL     1       1.012   9.715  20.618  0.00  0.00    +0.000 A 
ATOM     15  C   UNL     1       1.066  10.532  19.494  0.00  0.00    +0.000 A 
ATOM     16  F   UNL     1       0.704  11.818  19.588  0.00  0.00    +0.000 F 
ATOM     17  C   UNL     1       1.481  10.031  18.268  0.00  0.00    +0.000 A 
ATOM     18  C   UNL     1       1.885   8.698  18.170  0.00  0.00    +0.000 A 
ENDBRANCH  11  12
BRANCH   1  21
ATOM     19  C   UNL     1       4.568   1.594  19.399  0.00  0.00    +0.000 C 
ATOM     20  O   UNL     1       3.686   1.025  18.766  0.00  0.00    +0.000 OA
ATOM     21  N   UNL     1       4.948   2.893  19.149  0.00  0.00    +0.000 N 
ATOM     22  H   UNL     1       5.746   3.245  19.669  0.00  0.00    +0.000 HD
BRANCH  19  26
ATOM     23  C   UNL     1       6.897  -1.614  22.576  0.00  0.00    +0.000 C 
ATOM     24  C   UNL     1       6.292  -0.503  21.821  0.00  0.00    +0.000 A 
ATOM     25  C   UNL     1       5.799  -0.365  20.548  0.00  0.00    +0.000 A 
ATOM     26  C   UNL     1       5.283   0.957  20.506  0.00  0.00    +0.000 A 
ATOM     27  N   UNL     1       5.501   1.590  21.672  0.00  0.00    +0.000 NA
ATOM     28  O   UNL     1       6.136   0.670  22.490  0.00  0.00    +0.000 OA
ENDBRANCH  19  26
ENDBRANCH   1  21
TORSDOF 3
ENDMDL
MODEL 4
REMARK VINA RESULT:      -7.8      1.108      1.129
REMARK  Name = 
REMARK  6 active torsions:
REMARK  status: ('A' for Active; 'I' for Inactive)
REMARK    1  A    between atoms: C_1  and  C_2
REMARK    2  A    between atoms: C_4  and  C_5
REMARK    3  A    between atoms: N_7  and  C_8
REMARK    4  A    between atoms: C_10  and  C_11
REMARK    5  A    between atoms: C_10  and  C_12
REMARK    6  A    between atoms: N_18  and  C_19
REMARK                            x       y       z     vdW  Elec       q    Type
REMARK                         _______ _______ _______ _____ _____    ______ ____
ROOT
ATOM      1  C   UNL     1       4.370   4.552  18.358  0.00  0.00    +0.000 C 
ATOM      2  C   UNL     1       3.505   3.426  18.971  0.00  0.00    +0.000 C 
ATOM      3  C   UNL     1       2.241   3.764  19.840  0.00  0.00    +0.000 C 
ATOM      4  C   UNL     1       1.030   3.006  19.241  0.00  0.00    +0.000 C 
ATOM      5  C   UNL     1       2.462   3.198  21.265  0.00  0.00    +0.000 C 
ATOM      6  C   UNL     1       1.835   5.257  19.999  0.00  0.00    +0.000 C 
ATOM      7  C   UNL     1       2.680   6.211  19.250  0.00  0.00    +0.000 A 
ATOM      8  C   UNL     1       3.777   5.897  18.484  0.00  0.00    +0.000 A 
ATOM      9  C   UNL     1       4.144   7.117  17.887  0.00  0.00    +0.000 A 
ATOM     10  N   UNL     1       3.303   8.106  18.186  0.00  0.00    +0.000 NA
ATOM     11  N   UNL     1       2.450   7.571  19.102  0.00  0.00    +0.000 N 
ENDROOT
BRANCH  11  12
ATOM     12  C   UNL     1       1.460   8.386  19.721  0.00  0.00    +0.000 A 
ATOM     13  C   UNL     1       1.202   8.223  21.090  0.00  0.00    +0.000 A 
ATOM     14  C   UNL     1       0.304   9.075  21.736  0.00  0.00    +0.000 A 
ATOM     15  C   UNL     1      -0.360  10.058  21.009  0.00  0.00    +0.000 A 
ATOM     16  F   UNL     1      -1.212  10.882  21.631  0.00  0.00    +0.000 F 
ATOM     17  C   UNL     1      -0.162  10.189  19.642  0.00  0.00    +0.000 A 
ATOM     18  C   UNL     1       0.744   9.348  18.994  0.00  0.00    +0.000 A 
ENDBRANCH  11  12
BRANCH   1  21
ATOM     19  C   UNL     1       5.858   4.374  16.381  0.00  0.00    +0.000 C 
ATOM     20  O   UNL     1       6.864   4.667  17.018  0.00  0.00    +0.000 OA
ATOM     21  N   UNL     1       4.606   4.306  16.949  0.00  0.00    +0.000 N 
ATOM     22  H   UNL     1       3.852   3.970  16.357  0.00  0.00    +0.000 HD
BRANCH  19  26
ATOM     23  C   UNL     1       7.071   3.869  11.473  0.00  0.00    +0.000 C 
ATOM     24  C   UNL     1       6.501   3.899  12.831  0.00  0.00    +0.000 A 
ATOM     25  C   UNL     1       7.011   4.150  14.080  0.00  0.00    +0.000 A 
ATOM     26  C   UNL     1       5.886   4.098  14.944  0.00  0.00    +0.000 A 
ATOM     27  N   UNL     1       4.773   3.783  14.256  0.00  0.00    +0.000 NA
ATOM     28  O   UNL     1       5.168   3.658  12.934  0.00  0.00    +0.000 OA
ENDBRANCH  19  26
ENDBRANCH   1  21
TORSDOF 3
ENDMDL
MODEL 5
REMARK VINA RESULT:      -7.6      4.977      8.507
REMARK  Name = 
REMARK  6 active torsions:
REMARK  status: ('A' for Active; 'I' for Inactive)
REMARK    1  A    between atoms: C_1  and  C_2
REMARK    2  A    between atoms: C_4  and  C_5
REMARK    3  A    between atoms: N_7  and  C_8
REMARK    4  A    between atoms: C_10  and  C_11
REMARK    5  A    between atoms: C_10  and  C_12
REMARK    6  A    between atoms: N_18  and  C_19
REMARK                            x       y       z     vdW  Elec       q    Type
REMARK                         _______ _______ _______ _____ _____    ______ ____
ROOT
ATOM      1  C   UNL     1       0.727  10.709  19.478  0.00  0.00    +0.000 C 
ATOM      2  C   UNL     1       0.455  10.500  20.986  0.00  0.00    +0.000 C 
ATOM      3  C   UNL     1       0.715   9.108  21.665  0.00  0.00    +0.000 C 
ATOM      4  C   UNL     1       1.646   9.335  22.882  0.00  0.00    +0.000 C 
ATOM      5  C   UNL     1      -0.629   8.578  22.224  0.00  0.00    +0.000 C 
ATOM      6  C   UNL     1       1.331   7.971  20.802  0.00  0.00    +0.000 C 
ATOM      7  C   UNL     1       1.658   8.357  19.413  0.00  0.00    +0.000 A 
ATOM      8  C   UNL     1       1.434   9.584  18.836  0.00  0.00    +0.000 A 
ATOM      9  C   UNL     1       2.032   9.486  17.567  0.00  0.00    +0.000 A 
ATOM     10  N   UNL     1       2.652   8.322  17.382  0.00  0.00    +0.000 NA
ATOM     11  N   UNL     1       2.345   7.586  18.487  0.00  0.00    +0.000 N 
ENDROOT
BRANCH  11  12
ATOM     12  C   UNL     1       2.771   6.231  18.586  0.00  0.00    +0.000 A 
ATOM     13  C   UNL     1       1.992   5.227  17.992  0.00  0.00    +0.000 A 
ATOM     14  C   UNL     1       2.440   3.905  17.997  0.00  0.00    +0.000 A 
ATOM     15  C   UNL     1       3.638   3.583  18.625  0.00  0.00    +0.000 A 
ATOM     16  F   UNL     1       4.073   2.317  18.619  0.00  0.00    +0.000 F 
ATOM     17  C   UNL     1       4.387   4.556  19.271  0.00  0.00    +0.000 A 
ATOM     18  C   UNL     1       3.952   5.882  19.258  0.00  0.00    +0.000 A 
ENDBRANCH  11  12
BRANCH   1  21
ATOM     19  C   UNL     1       0.974  13.081  18.797  0.00  0.00    +0.000 C 
ATOM     20  O   UNL     1      -0.212  13.202  18.511  0.00  0.00    +0.000 OA
ATOM     21  N   UNL     1       1.517  11.905  19.262  0.00  0.00    +0.000 N 
ATOM     22  H   UNL     1       2.489  11.932  19.553  0.00  0.00    +0.000 HD
BRANCH  19  26
ATOM     23  C   UNL     1       5.122  16.001  18.504  0.00  0.00    +0.000 C 
ATOM     24  C   UNL     1       3.793  15.365  18.517  0.00  0.00    +0.000 A 
ATOM     25  C   UNL     1       3.352  14.067  18.572  0.00  0.00    +0.000 A 
ATOM     26  C   UNL     1       1.938  14.173  18.641  0.00  0.00    +0.000 A 
ATOM     27  N   UNL     1       1.554  15.460  18.581  0.00  0.00    +0.000 NA
ATOM     28  O   UNL     1       2.722  16.201  18.501  0.00  0.00    +0.000 OA
ENDBRANCH  19  26
ENDBRANCH   1  21
TORSDOF 3
ENDMDL
MODEL 6
REMARK VINA RESULT:      -7.6      6.344     11.521
REMARK  Name = 
REMARK  6 active torsions:
REMARK  status: ('A' for Active; 'I' for Inactive)
REMARK    1  A    between atoms: C_1  and  C_2
REMARK    2  A    between atoms: C_4  and  C_5
REMARK    3  A    between atoms: N_7  and  C_8
REMARK    4  A    between atoms: C_10  and  C_11
REMARK    5  A    between atoms: C_10  and  C_12
REMARK    6  A    between atoms: N_18  and  C_19
REMARK                            x       y       z     vdW  Elec       q    Type
REMARK                         _______ _______ _______ _____ _____    ______ ____
ROOT
ATOM      1  C   UNL     1      -0.705  12.395  22.123  0.00  0.00    +0.000 C 
ATOM      2  C   UNL     1      -0.522  13.381  20.946  0.00  0.00    +0.000 C 
ATOM      3  C   UNL     1       0.303  12.971  19.674  0.00  0.00    +0.000 C 
ATOM      4  C   UNL     1      -0.588  13.206  18.429  0.00  0.00    +0.000 C 
ATOM      5  C   UNL     1       1.512  13.930  19.545  0.00  0.00    +0.000 C 
ATOM      6  C   UNL     1       0.859  11.521  19.593  0.00  0.00    +0.000 C 
ATOM      7  C   UNL     1       0.494  10.654  20.732  0.00  0.00    +0.000 A 
ATOM      8  C   UNL     1      -0.239  11.025  21.834  0.00  0.00    +0.000 A 
ATOM      9  C   UNL     1      -0.421   9.828  22.550  0.00  0.00    +0.000 A 
ATOM     10  N   UNL     1       0.086   8.771  21.917  0.00  0.00    +0.000 NA
ATOM     11  N   UNL     1       0.732   9.291  20.837  0.00  0.00    +0.000 N 
ENDROOT
BRANCH  11  12
ATOM     12  C   UNL     1       1.480   8.442  19.972  0.00  0.00    +0.000 A 
ATOM     13  C   UNL     1       1.888   7.184  20.440  0.00  0.00    +0.000 A 
ATOM     14  C   UNL     1       2.540   6.299  19.578  0.00  0.00    +0.000 A 
ATOM     15  C   UNL     1       2.816   6.685  18.270  0.00  0.00    +0.000 A 
ATOM     16  F   UNL     1       3.430   5.832  17.441  0.00  0.00    +0.000 F 
ATOM     17  C   UNL     1       2.473   7.950  17.814  0.00  0.00    +0.000 A 
ATOM     18  C   UNL     1       1.810   8.834  18.667  0.00  0.00    +0.000 A 
ENDBRANCH  11  12
BRANCH   1  21
ATOM     19  C   UNL     1      -2.664  13.146  23.447  0.00  0.00    +0.000 C 
ATOM     20  O   UNL     1      -2.027  14.007  24.042  0.00  0.00    +0.000 OA
ATOM     21  N   UNL     1      -2.100  12.312  22.509  0.00  0.00    +0.000 N 
ATOM     22  H   UNL     1      -2.730  11.691  22.009  0.00  0.00    +0.000 HD
BRANCH  19  26
ATOM     23  C   UNL     1      -7.733  13.340  23.744  0.00  0.00    +0.000 C 
ATOM     24  C   UNL     1      -6.287  13.054  23.769  0.00  0.00    +0.000 A 
ATOM     25  C   UNL     1      -5.190  13.609  23.161  0.00  0.00    +0.000 A 
ATOM     26  C   UNL     1      -4.085  12.899  23.699  0.00  0.00    +0.000 A 
ATOM     27  N   UNL     1      -4.503  11.939  24.545  0.00  0.00    +0.000 NA
ATOM     28  O   UNL     1      -5.884  12.042  24.581  0.00  0.00    +0.000 OA
ENDBRANCH  19  26
ENDBRANCH   1  21
TORSDOF 3
ENDMDL
MODEL 7
REMARK VINA RESULT:      -7.5      6.455     11.506
REMARK  Name = 
REMARK  6 active torsions:
REMARK  status: ('A' for Active; 'I' for Inactive)
REMARK    1  A    between atoms: C_1  and  C_2
REMARK    2  A    between atoms: C_4  and  C_5
REMARK    3  A    between atoms: N_7  and  C_8
REMARK    4  A    between atoms: C_10  and  C_11
REMARK    5  A    between atoms: C_10  and  C_12
REMARK    6  A    between atoms: N_18  and  C_19
REMARK                            x       y       z     vdW  Elec       q    Type
REMARK                         _______ _______ _______ _____ _____    ______ ____
ROOT
ATOM      1  C   UNL     1      -2.581  12.285  19.449  0.00  0.00    +0.000 C 
ATOM      2  C   UNL     1      -3.359  11.692  18.251  0.00  0.00    +0.000 C 
ATOM      3  C   UNL     1      -2.745  10.533  17.387  0.00  0.00    +0.000 C 
ATOM      4  C   UNL     1      -3.771   9.373  17.345  0.00  0.00    +0.000 C 
ATOM      5  C   UNL     1      -2.584  11.039  15.932  0.00  0.00    +0.000 C 
ATOM      6  C   UNL     1      -1.374   9.940  17.819  0.00  0.00    +0.000 C 
ATOM      7  C   UNL     1      -0.813  10.517  19.058  0.00  0.00    +0.000 A 
ATOM      8  C   UNL     1      -1.368  11.525  19.809  0.00  0.00    +0.000 A 
ATOM      9  C   UNL     1      -0.534  11.618  20.938  0.00  0.00    +0.000 A 
ATOM     10  N   UNL     1       0.426  10.694  20.942  0.00  0.00    +0.000 NA
ATOM     11  N   UNL     1       0.311  10.070  19.737  0.00  0.00    +0.000 N 
ENDROOT
BRANCH  11  12
ATOM     12  C   UNL     1       1.252   9.072  19.355  0.00  0.00    +0.000 A 
ATOM     13  C   UNL     1       1.519   8.014  20.237  0.00  0.00    +0.000 A 
ATOM     14  C   UNL     1       2.365   6.976  19.844  0.00  0.00    +0.000 A 
ATOM     15  C   UNL     1       2.971   7.015  18.592  0.00  0.00    +0.000 A 
ATOM     16  F   UNL     1       3.773   6.014  18.210  0.00  0.00    +0.000 F 
ATOM     17  C   UNL     1       2.766   8.086  17.734  0.00  0.00    +0.000 A 
ATOM     18  C   UNL     1       1.910   9.120  18.117  0.00  0.00    +0.000 A 
ENDBRANCH  11  12
BRANCH   1  21
ATOM     19  C   UNL     1      -4.569  13.110  20.682  0.00  0.00    +0.000 C 
ATOM     20  O   UNL     1      -4.950  13.810  19.750  0.00  0.00    +0.000 OA
ATOM     21  N   UNL     1      -3.426  12.347  20.626  0.00  0.00    +0.000 N 
ATOM     22  H   UNL     1      -3.244  11.735  21.416  0.00  0.00    +0.000 HD
BRANCH  19  26
ATOM     23  C   UNL     1      -7.733  13.720  24.610  0.00  0.00    +0.000 C 
ATOM     24  C   UNL     1      -6.711  13.358  23.613  0.00  0.00    +0.000 A 
ATOM     25  C   UNL     1      -6.526  13.640  22.283  0.00  0.00    +0.000 A 
ATOM     26  C   UNL     1      -5.281  13.042  21.960  0.00  0.00    +0.000 A 
ATOM     27  N   UNL     1      -4.772  12.396  23.025  0.00  0.00    +0.000 NA
ATOM     28  O   UNL     1      -5.676  12.597  24.056  0.00  0.00    +0.000 OA
ENDBRANCH  19  26
ENDBRANCH   1  21
TORSDOF 3
ENDMDL
MODEL 8
REMARK VINA RESULT:      -7.4      4.337      7.662
REMARK  Name = 
REMARK  6 active torsions:
REMARK  status: ('A' for Active; 'I' for Inactive)
REMARK    1  A    between atoms: C_1  and  C_2
REMARK    2  A    between atoms: C_4  and  C_5
REMARK    3  A    between atoms: N_7  and  C_8
REMARK    4  A    between atoms: C_10  and  C_11
REMARK    5  A    between atoms: C_10  and  C_12
REMARK    6  A    between atoms: N_18  and  C_19
REMARK                            x       y       z     vdW  Elec       q    Type
REMARK                         _______ _______ _______ _____ _____    ______ ____
ROOT
ATOM      1  C   UNL     1       0.650  10.802  19.230  0.00  0.00    +0.000 C 
ATOM      2  C   UNL     1       0.733  11.589  20.559  0.00  0.00    +0.000 C 
ATOM      3  C   UNL     1      -0.488  12.434  21.072  0.00  0.00    +0.000 C 
ATOM      4  C   UNL     1      -0.812  11.978  22.516  0.00  0.00    +0.000 C 
ATOM      5  C   UNL     1      -0.054  13.918  21.158  0.00  0.00    +0.000 C 
ATOM      6  C   UNL     1      -1.809  12.390  20.252  0.00  0.00    +0.000 C 
ATOM      7  C   UNL     1      -1.779  11.493  19.078  0.00  0.00    +0.000 A 
ATOM      8  C   UNL     1      -0.706  10.752  18.648  0.00  0.00    +0.000 A 
ATOM      9  C   UNL     1      -1.217   9.979  17.590  0.00  0.00    +0.000 A 
ATOM     10  N   UNL     1      -2.526  10.156  17.414  0.00  0.00    +0.000 NA
ATOM     11  N   UNL     1      -2.858  11.160  18.272  0.00  0.00    +0.000 N 
ENDROOT
BRANCH  11  12
ATOM     12  C   UNL     1      -4.183  11.683  18.285  0.00  0.00    +0.000 A 
ATOM     13  C   UNL     1      -4.764  12.036  19.512  0.00  0.00    +0.000 A 
ATOM     14  C   UNL     1      -6.024  12.636  19.538  0.00  0.00    +0.000 A 
ATOM     15  C   UNL     1      -6.714  12.848  18.349  0.00  0.00    +0.000 A 
ATOM     16  F   UNL     1      -7.917  13.435  18.373  0.00  0.00    +0.000 F 
ATOM     17  C   UNL     1      -6.177  12.446  17.134  0.00  0.00    +0.000 A 
ATOM     18  C   UNL     1      -4.913  11.857  17.100  0.00  0.00    +0.000 A 
ENDBRANCH  11  12
BRANCH   1  21
ATOM     19  C   UNL     1       1.908   8.789  18.509  0.00  0.00    +0.000 C 
ATOM     20  O   UNL     1       2.292   9.309  17.468  0.00  0.00    +0.000 OA
ATOM     21  N   UNL     1       1.099   9.436  19.415  0.00  0.00    +0.000 N 
ATOM     22  H   UNL     1       0.907   8.951  20.287  0.00  0.00    +0.000 HD
BRANCH  19  26
ATOM     23  C   UNL     1       3.230   3.883  18.591  0.00  0.00    +0.000 C 
ATOM     24  C   UNL     1       2.845   5.287  18.822  0.00  0.00    +0.000 A 
ATOM     25  C   UNL     1       2.802   6.411  18.037  0.00  0.00    +0.000 A 
ATOM     26  C   UNL     1       2.247   7.412  18.876  0.00  0.00    +0.000 A 
ATOM     27  N   UNL     1       2.018   6.926  20.109  0.00  0.00    +0.000 NA
ATOM     28  O   UNL     1       2.397   5.594  20.068  0.00  0.00    +0.000 OA
ENDBRANCH  19  26
ENDBRANCH   1  21
TORSDOF 3
ENDMDL
MODEL 9
REMARK VINA RESULT:      -7.3      4.197      7.406
REMARK  Name = 
REMARK  6 active torsions:
REMARK  status: ('A' for Active; 'I' for Inactive)
REMARK    1  A    between atoms: C_1  and  C_2
REMARK    2  A    between atoms: C_4  and  C_5
REMARK    3  A    between atoms: N_7  and  C_8
REMARK    4  A    between atoms: C_10  and  C_11
REMARK    5  A    between atoms: C_10  and  C_12
REMARK    6  A    between atoms: N_18  and  C_19
REMARK                            x       y       z     vdW  Elec       q    Type
REMARK                         _______ _______ _______ _____ _____    ______ ____
ROOT
ATOM      1  C   UNL     1       0.795  10.468  19.335  0.00  0.00    +0.000 C 
ATOM      2  C   UNL     1       0.831  11.134  20.730  0.00  0.00    +0.000 C 
ATOM      3  C   UNL     1      -0.397  11.956  21.262  0.00  0.00    +0.000 C 
ATOM      4  C   UNL     1      -0.793  11.383  22.646  0.00  0.00    +0.000 C 
ATOM      5  C   UNL     1       0.057  13.417  21.498  0.00  0.00    +0.000 C 
ATOM      6  C   UNL     1      -1.680  12.011  20.387  0.00  0.00    +0.000 C 
ATOM      7  C   UNL     1      -1.614  11.219  19.140  0.00  0.00    +0.000 A 
ATOM      8  C   UNL     1      -0.534  10.497  18.694  0.00  0.00    +0.000 A 
ATOM      9  C   UNL     1      -1.011   9.830  17.550  0.00  0.00    +0.000 A 
ATOM     10  N   UNL     1      -2.307  10.048  17.334  0.00  0.00    +0.000 NA
ATOM     11  N   UNL     1      -2.661  10.980  18.262  0.00  0.00    +0.000 N 
ENDROOT
BRANCH  11  12
ATOM     12  C   UNL     1      -3.976  11.526  18.264  0.00  0.00    +0.000 A 
ATOM     13  C   UNL     1      -4.722  11.510  17.076  0.00  0.00    +0.000 A 
ATOM     14  C   UNL     1      -6.045  11.954  17.078  0.00  0.00    +0.000 A 
ATOM     15  C   UNL     1      -6.606  12.447  18.252  0.00  0.00    +0.000 A 
ATOM     16  F   UNL     1      -7.879  12.861  18.257  0.00  0.00    +0.000 F 
ATOM     17  C   UNL     1      -5.861  12.527  19.419  0.00  0.00    +0.000 A 
ATOM     18  C   UNL     1      -4.541  12.072  19.426  0.00  0.00    +0.000 A 
ENDBRANCH  11  12
BRANCH   1  21
ATOM     19  C   UNL     1       2.069   8.507  18.509  0.00  0.00    +0.000 C 
ATOM     20  O   UNL     1       2.528   9.115  17.548  0.00  0.00    +0.000 OA
ATOM     21  N   UNL     1       1.212   9.082  19.419  0.00  0.00    +0.000 N 
ATOM     22  H   UNL     1       0.958   8.522  20.227  0.00  0.00    +0.000 HD
BRANCH  19  26
ATOM     23  C   UNL     1       3.142   3.550  18.192  0.00  0.00    +0.000 C 
ATOM     24  C   UNL     1       2.849   4.953  18.536  0.00  0.00    +0.000 A 
ATOM     25  C   UNL     1       2.801   6.125  17.826  0.00  0.00    +0.000 A 
ATOM     26  C   UNL     1       2.365   7.096  18.765  0.00  0.00    +0.000 A 
ATOM     27  N   UNL     1       2.209   6.544  19.981  0.00  0.00    +0.000 NA
ATOM     28  O   UNL     1       2.516   5.201  19.830  0.00  0.00    +0.000 OA
ENDBRANCH  19  26
ENDBRANCH   1  21
TORSDOF 3
ENDMDL
