MODEL 1
REMARK VINA RESULT:      -7.0      0.000      0.000
REMARK  Name = 
REMARK  2 active torsions:
REMARK  status: ('A' for Active; 'I' for Inactive)
REMARK    1  A    between atoms: N_13  and  C_14
REMARK    2  A    between atoms: C_14  and  C_15
REMARK                            x       y       z     vdW  Elec       q    Type
REMARK                         _______ _______ _______ _____ _____    ______ ____
ROOT
ATOM      1  F   UNL     1       0.834   2.060  21.682  0.00  0.00    +0.000 F 
ATOM      2  C   UNL     1       1.589   2.976  21.069  0.00  0.00    +0.000 A 
ATOM      3  C   UNL     1       1.064   4.142  20.584  0.00  0.00    +0.000 A 
ATOM      4  N   UNL     1       1.809   5.085  19.973  0.00  0.00    +0.000 NA
ATOM      5  C   UNL     1       3.132   4.856  19.835  0.00  0.00    +0.000 A 
ATOM      6  N   UNL     1       3.905   5.806  19.213  0.00  0.00    +0.000 N 
ATOM      7  C   UNL     1       3.314   7.053  18.754  0.00  0.00    +0.000 C 
ATOM      8  C   UNL     1       3.519   7.192  17.250  0.00  0.00    +0.000 C 
ATOM      9  C   UNL     1       4.984   6.973  16.873  0.00  0.00    +0.000 C 
ATOM     10  C   UNL     1       5.536   5.615  17.382  0.00  0.00    +0.000 C 
ATOM     11  C   UNL     1       7.030   5.479  17.016  0.00  0.00    +0.000 C 
ATOM     12  C   UNL     1       7.133   4.235  16.130  0.00  0.00    +0.000 C 
ATOM     13  N   UNL     1       5.790   4.002  15.580  0.00  0.00    +0.000 NA
ATOM     14  C   UNL     1       4.908   4.385  16.696  0.00  0.00    +0.000 C 
ATOM     15  C   UNL     1       5.308   5.558  18.909  0.00  0.00    +0.000 C 
ATOM     16  N   UNL     1       3.716   3.731  20.283  0.00  0.00    +0.000 NA
ATOM     17  C   UNL     1       2.934   2.815  20.895  0.00  0.00    +0.000 A 
ENDROOT
BRANCH  13  18
ATOM     18  C   UNL     1       5.595   4.744  14.327  0.00  0.00    +0.000 C 
BRANCH  18  19
ATOM     19  C   UNL     1       5.804   3.881  13.111  0.00  0.00    +0.000 A 
ATOM     20  C   UNL     1       4.758   3.220  12.382  0.00  0.00    +0.000 A 
ATOM     21  C   UNL     1       5.236   2.411  11.374  0.00  0.00    +0.000 A 
ATOM     22  S   UNL     1       6.937   2.481  11.252  0.00  0.00    +0.000 S 
ATOM     23  C   UNL     1       7.038   3.570  12.565  0.00  0.00    +0.000 A 
ENDBRANCH  18  19
ENDBRANCH  13  18
TORSDOF 2
ENDMDL
MODEL 2
REMARK VINA RESULT:      -6.6      1.516      1.769
REMARK  Name = 
REMARK  2 active torsions:
REMARK  status: ('A' for Active; 'I' for Inactive)
REMARK    1  A    between atoms: N_13  and  C_14
REMARK    2  A    between atoms: C_14  and  C_15
REMARK                            x       y       z     vdW  Elec       q    Type
REMARK                         _______ _______ _______ _____ _____    ______ ____
ROOT
ATOM      1  F   UNL     1       0.350   1.092  19.222  0.00  0.00    +0.000 F 
ATOM      2  C   UNL     1       1.157   2.154  19.149  0.00  0.00    +0.000 A 
ATOM      3  C   UNL     1       0.755   3.334  18.587  0.00  0.00    +0.000 A 
ATOM      4  N   UNL     1       1.549   4.421  18.514  0.00  0.00    +0.000 NA
ATOM      5  C   UNL     1       2.798   4.329  19.018  0.00  0.00    +0.000 A 
ATOM      6  N   UNL     1       3.620   5.427  18.949  0.00  0.00    +0.000 N 
ATOM      7  C   UNL     1       3.135   6.677  18.385  0.00  0.00    +0.000 C 
ATOM      8  C   UNL     1       4.002   7.071  17.195  0.00  0.00    +0.000 C 
ATOM      9  C   UNL     1       5.486   7.037  17.561  0.00  0.00    +0.000 C 
ATOM     10  C   UNL     1       5.930   5.667  18.137  0.00  0.00    +0.000 C 
ATOM     11  C   UNL     1       7.421   5.716  18.536  0.00  0.00    +0.000 C 
ATOM     12  C   UNL     1       8.114   4.643  17.695  0.00  0.00    +0.000 C 
ATOM     13  N   UNL     1       7.242   4.388  16.539  0.00  0.00    +0.000 NA
ATOM     14  C   UNL     1       5.892   4.513  17.115  0.00  0.00    +0.000 C 
ATOM     15  C   UNL     1       5.020   5.349  19.346  0.00  0.00    +0.000 C 
ATOM     16  N   UNL     1       3.263   3.200  19.580  0.00  0.00    +0.000 NA
ATOM     17  C   UNL     1       2.433   2.136  19.639  0.00  0.00    +0.000 A 
ENDROOT
BRANCH  13  18
ATOM     18  C   UNL     1       7.553   5.301  15.431  0.00  0.00    +0.000 C 
BRANCH  18  19
ATOM     19  C   UNL     1       7.204   4.713  14.090  0.00  0.00    +0.000 A 
ATOM     20  C   UNL     1       7.813   5.086  12.844  0.00  0.00    +0.000 A 
ATOM     21  C   UNL     1       7.235   4.466  11.758  0.00  0.00    +0.000 A 
ATOM     22  S   UNL     1       5.999   3.384  12.223  0.00  0.00    +0.000 S 
ATOM     23  C   UNL     1       6.215   3.766  13.875  0.00  0.00    +0.000 A 
ENDBRANCH  18  19
ENDBRANCH  13  18
TORSDOF 2
ENDMDL
MODEL 3
REMARK VINA RESULT:      -6.3      9.938     11.813
REMARK  Name = 
REMARK  2 active torsions:
REMARK  status: ('A' for Active; 'I' for Inactive)
REMARK    1  A    between atoms: N_13  and  C_14
REMARK    2  A    between atoms: C_14  and  C_15
REMARK                            x       y       z     vdW  Elec       q    Type
REMARK                         _______ _______ _______ _____ _____    ______ ____
ROOT
ATOM      1  F   UNL     1      -4.162  10.174  14.527  0.00  0.00    +0.000 F 
ATOM      2  C   UNL     1      -3.688  10.569  15.711  0.00  0.00    +0.000 A 
ATOM      3  C   UNL     1      -4.436  11.312  16.581  0.00  0.00    +0.000 A 
ATOM      4  N   UNL     1      -3.982  11.712  17.786  0.00  0.00    +0.000 NA
ATOM      5  C   UNL     1      -2.728  11.359  18.139  0.00  0.00    +0.000 A 
ATOM      6  N   UNL     1      -2.250  11.760  19.363  0.00  0.00    +0.000 N 
ATOM      7  C   UNL     1      -3.097  12.510  20.277  0.00  0.00    +0.000 C 
ATOM      8  C   UNL     1      -2.450  13.855  20.586  0.00  0.00    +0.000 C 
ATOM      9  C   UNL     1      -0.996  13.677  21.022  0.00  0.00    +0.000 C 
ATOM     10  C   UNL     1      -0.153  12.885  19.988  0.00  0.00    +0.000 C 
ATOM     11  C   UNL     1       1.287  12.695  20.511  0.00  0.00    +0.000 C 
ATOM     12  C   UNL     1       2.198  13.370  19.483  0.00  0.00    +0.000 C 
ATOM     13  N   UNL     1       1.361  14.328  18.747  0.00  0.00    +0.000 NA
ATOM     14  C   UNL     1       0.067  13.629  18.655  0.00  0.00    +0.000 C 
ATOM     15  C   UNL     1      -0.861  11.533  19.742  0.00  0.00    +0.000 C 
ATOM     16  N   UNL     1      -1.933  10.634  17.333  0.00  0.00    +0.000 NA
ATOM     17  C   UNL     1      -2.429  10.249  16.137  0.00  0.00    +0.000 A 
ENDROOT
BRANCH  13  18
ATOM     18  C   UNL     1       1.335  15.634  19.420  0.00  0.00    +0.000 C 
BRANCH  18  19
ATOM     19  C   UNL     1       0.849  16.735  18.515  0.00  0.00    +0.000 A 
ATOM     20  C   UNL     1      -0.521  17.145  18.381  0.00  0.00    +0.000 A 
ATOM     21  C   UNL     1      -0.700  18.105  17.409  0.00  0.00    +0.000 A 
ATOM     22  S   UNL     1       0.777  18.569  16.689  0.00  0.00    +0.000 S 
ATOM     23  C   UNL     1       1.654  17.465  17.657  0.00  0.00    +0.000 A 
ENDBRANCH  18  19
ENDBRANCH  13  18
TORSDOF 2
ENDMDL
MODEL 4
REMARK VINA RESULT:      -5.8      6.614      9.296
REMARK  Name = 
REMARK  2 active torsions:
REMARK  status: ('A' for Active; 'I' for Inactive)
REMARK    1  A    between atoms: N_13  and  C_14
REMARK    2  A    between atoms: C_14  and  C_15
REMARK                            x       y       z     vdW  Elec       q    Type
REMARK                         _______ _______ _______ _____ _____    ______ ____
ROOT
ATOM      1  F   UNL     1      -4.956  10.562  15.412  0.00  0.00    +0.000 F 
ATOM      2  C   UNL     1      -4.028  10.932  16.299  0.00  0.00    +0.000 A 
ATOM      3  C   UNL     1      -2.813  11.427  15.914  0.00  0.00    +0.000 A 
ATOM      4  N   UNL     1      -1.867  11.817  16.792  0.00  0.00    +0.000 NA
ATOM      5  C   UNL     1      -2.140  11.706  18.109  0.00  0.00    +0.000 A 
ATOM      6  N   UNL     1      -1.186  12.097  19.016  0.00  0.00    +0.000 N 
ATOM      7  C   UNL     1       0.076  12.662  18.563  0.00  0.00    +0.000 C 
ATOM      8  C   UNL     1       1.230  11.806  19.069  0.00  0.00    +0.000 C 
ATOM      9  C   UNL     1       1.114  11.562  20.574  0.00  0.00    +0.000 C 
ATOM     10  C   UNL     1      -0.250  10.941  20.975  0.00  0.00    +0.000 C 
ATOM     11  C   UNL     1      -0.324  10.769  22.508  0.00  0.00    +0.000 C 
ATOM     12  C   UNL     1      -0.520   9.272  22.752  0.00  0.00    +0.000 C 
ATOM     13  N   UNL     1      -0.048   8.584  21.541  0.00  0.00    +0.000 NA
ATOM     14  C   UNL     1      -0.460   9.501  20.464  0.00  0.00    +0.000 C 
ATOM     15  C   UNL     1      -1.364  11.872  20.445  0.00  0.00    +0.000 C 
ATOM     16  N   UNL     1      -3.310  11.223  18.560  0.00  0.00    +0.000 NA
ATOM     17  C   UNL     1      -4.233  10.850  17.647  0.00  0.00    +0.000 A 
ENDROOT
BRANCH  13  18
ATOM     18  C   UNL     1       1.391   8.298  21.622  0.00  0.00    +0.000 C 
BRANCH  18  19
ATOM     19  C   UNL     1       1.848   7.355  20.542  0.00  0.00    +0.000 A 
ATOM     20  C   UNL     1       2.294   7.753  19.236  0.00  0.00    +0.000 A 
ATOM     21  C   UNL     1       2.557   6.682  18.410  0.00  0.00    +0.000 A 
ATOM     22  S   UNL     1       2.331   5.189  19.207  0.00  0.00    +0.000 S 
ATOM     23  C   UNL     1       1.853   5.973  20.649  0.00  0.00    +0.000 A 
ENDBRANCH  18  19
ENDBRANCH  13  18
TORSDOF 2
ENDMDL
MODEL 5
REMARK VINA RESULT:      -5.8      7.101      9.831
REMARK  Name = 
REMARK  2 active torsions:
REMARK  status: ('A' for Active; 'I' for Inactive)
REMARK    1  A    between atoms: N_13  and  C_14
REMARK    2  A    between atoms: C_14  and  C_15
REMARK                            x       y       z     vdW  Elec       q    Type
REMARK                         _______ _______ _______ _____ _____    ______ ____
ROOT
ATOM      1  F   UNL     1       2.593   4.781  18.060  0.00  0.00    +0.000 F 
ATOM      2  C   UNL     1       2.296   5.871  18.772  0.00  0.00    +0.000 A 
ATOM      3  C   UNL     1       1.827   5.795  20.054  0.00  0.00    +0.000 A 
ATOM      4  N   UNL     1       1.533   6.883  20.795  0.00  0.00    +0.000 NA
ATOM      5  C   UNL     1       1.708   8.098  20.234  0.00  0.00    +0.000 A 
ATOM      6  N   UNL     1       1.411   9.215  20.975  0.00  0.00    +0.000 N 
ATOM      7  C   UNL     1       0.959   9.090  22.352  0.00  0.00    +0.000 C 
ATOM      8  C   UNL     1      -0.419   9.724  22.497  0.00  0.00    +0.000 C 
ATOM      9  C   UNL     1      -0.437  11.138  21.918  0.00  0.00    +0.000 C 
ATOM     10  C   UNL     1       0.040  11.188  20.443  0.00  0.00    +0.000 C 
ATOM     11  C   UNL     1       0.050  12.646  19.936  0.00  0.00    +0.000 C 
ATOM     12  C   UNL     1      -0.914  12.683  18.749  0.00  0.00    +0.000 C 
ATOM     13  N   UNL     1      -1.808  11.526  18.898  0.00  0.00    +0.000 NA
ATOM     14  C   UNL     1      -0.915  10.492  19.451  0.00  0.00    +0.000 C 
ATOM     15  C   UNL     1       1.445  10.546  20.381  0.00  0.00    +0.000 C 
ATOM     16  N   UNL     1       2.160   8.249  18.977  0.00  0.00    +0.000 NA
ATOM     17  C   UNL     1       2.450   7.133  18.272  0.00  0.00    +0.000 A 
ENDROOT
BRANCH  13  18
ATOM     18  C   UNL     1      -2.979  11.864  19.719  0.00  0.00    +0.000 C 
BRANCH  18  19
ATOM     19  C   UNL     1      -4.251  11.901  18.915  0.00  0.00    +0.000 A 
ATOM     20  C   UNL     1      -4.339  11.654  17.503  0.00  0.00    +0.000 A 
ATOM     21  C   UNL     1      -5.607  11.853  17.002  0.00  0.00    +0.000 A 
ATOM     22  S   UNL     1      -6.718  12.280  18.226  0.00  0.00    +0.000 S 
ATOM     23  C   UNL     1      -5.498  12.226  19.423  0.00  0.00    +0.000 A 
ENDBRANCH  18  19
ENDBRANCH  13  18
TORSDOF 2
ENDMDL
MODEL 6
REMARK VINA RESULT:      -5.8      8.433     11.572
REMARK  Name = 
REMARK  2 active torsions:
REMARK  status: ('A' for Active; 'I' for Inactive)
REMARK    1  A    between atoms: N_13  and  C_14
REMARK    2  A    between atoms: C_14  and  C_15
REMARK                            x       y       z     vdW  Elec       q    Type
REMARK                         _______ _______ _______ _____ _____    ______ ____
ROOT
ATOM      1  F   UNL     1       2.460   8.266  17.090  0.00  0.00    +0.000 F 
ATOM      2  C   UNL     1       1.991   8.919  18.157  0.00  0.00    +0.000 A 
ATOM      3  C   UNL     1       1.615   8.269  19.299  0.00  0.00    +0.000 A 
ATOM      4  N   UNL     1       1.151   8.909  20.391  0.00  0.00    +0.000 NA
ATOM      5  C   UNL     1       1.052  10.254  20.343  0.00  0.00    +0.000 A 
ATOM      6  N   UNL     1       0.579  10.920  21.446  0.00  0.00    +0.000 N 
ATOM      7  C   UNL     1       0.234  10.192  22.657  0.00  0.00    +0.000 C 
ATOM      8  C   UNL     1      -1.232  10.429  22.996  0.00  0.00    +0.000 C 
ATOM      9  C   UNL     1      -1.560  11.922  23.002  0.00  0.00    +0.000 C 
ATOM     10  C   UNL     1      -1.181  12.624  21.672  0.00  0.00    +0.000 C 
ATOM     11  C   UNL     1      -1.487  14.135  21.762  0.00  0.00    +0.000 C 
ATOM     12  C   UNL     1      -2.501  14.424  20.653  0.00  0.00    +0.000 C 
ATOM     13  N   UNL     1      -3.139  13.141  20.324  0.00  0.00    +0.000 NA
ATOM     14  C   UNL     1      -2.031  12.180  20.463  0.00  0.00    +0.000 C 
ATOM     15  C   UNL     1       0.317  12.354  21.408  0.00  0.00    +0.000 C 
ATOM     16  N   UNL     1       1.398  10.959  19.252  0.00  0.00    +0.000 NA
ATOM     17  C   UNL     1       1.865  10.280  18.182  0.00  0.00    +0.000 A 
ENDROOT
BRANCH  13  18
ATOM     18  C   UNL     1      -4.308  12.896  21.179  0.00  0.00    +0.000 C 
BRANCH  18  19
ATOM     19  C   UNL     1      -5.457  12.290  20.419  0.00  0.00    +0.000 A 
ATOM     20  C   UNL     1      -6.685  11.835  21.007  0.00  0.00    +0.000 A 
ATOM     21  C   UNL     1      -7.524  11.229  20.097  0.00  0.00    +0.000 A 
ATOM     22  S   UNL     1      -6.875  11.251  18.518  0.00  0.00    +0.000 S 
ATOM     23  C   UNL     1      -5.460  12.046  19.055  0.00  0.00    +0.000 A 
ENDBRANCH  18  19
ENDBRANCH  13  18
TORSDOF 2
ENDMDL
MODEL 7
REMARK VINA RESULT:      -5.7      9.428     11.571
REMARK  Name = 
REMARK  2 active torsions:
REMARK  status: ('A' for Active; 'I' for Inactive)
REMARK    1  A    between atoms: N_13  and  C_14
REMARK    2  A    between atoms: C_14  and  C_15
REMARK                            x       y       z     vdW  Elec       q    Type
REMARK                         _______ _______ _______ _____ _____    ______ ____
ROOT
ATOM      1  F   UNL     1      -3.110   9.534  16.327  0.00  0.00    +0.000 F 
ATOM      2  C   UNL     1      -2.527  10.218  17.316  0.00  0.00    +0.000 A 
ATOM      3  C   UNL     1      -3.234  11.052  18.136  0.00  0.00    +0.000 A 
ATOM      4  N   UNL     1      -2.668  11.742  19.147  0.00  0.00    +0.000 NA
ATOM      5  C   UNL     1      -1.341  11.598  19.348  0.00  0.00    +0.000 A 
ATOM      6  N   UNL     1      -0.750  12.295  20.372  0.00  0.00    +0.000 N 
ATOM      7  C   UNL     1      -1.548  13.137  21.250  0.00  0.00    +0.000 C 
ATOM      8  C   UNL     1      -1.044  14.573  21.178  0.00  0.00    +0.000 C 
ATOM      9  C   UNL     1       0.468  14.636  21.391  0.00  0.00    +0.000 C 
ATOM     10  C   UNL     1       1.250  13.728  20.406  0.00  0.00    +0.000 C 
ATOM     11  C   UNL     1       2.763  13.796  20.708  0.00  0.00    +0.000 C 
ATOM     12  C   UNL     1       3.422  14.322  19.432  0.00  0.00    +0.000 C 
ATOM     13  N   UNL     1       2.370  15.014  18.673  0.00  0.00    +0.000 NA
ATOM     14  C   UNL     1       1.179  14.188  18.936  0.00  0.00    +0.000 C 
ATOM     15  C   UNL     1       0.697  12.292  20.551  0.00  0.00    +0.000 C 
ATOM     16  N   UNL     1      -0.583  10.799  18.578  0.00  0.00    +0.000 NA
ATOM     17  C   UNL     1      -1.190  10.121  17.580  0.00  0.00    +0.000 A 
ENDROOT
BRANCH  13  18
ATOM     18  C   UNL     1       2.271  16.425  19.072  0.00  0.00    +0.000 C 
BRANCH  18  19
ATOM     19  C   UNL     1       1.357  17.212  18.171  0.00  0.00    +0.000 A 
ATOM     20  C   UNL     1       1.731  17.767  16.901  0.00  0.00    +0.000 A 
ATOM     21  C   UNL     1       0.733  18.528  16.333  0.00  0.00    +0.000 A 
ATOM     22  S   UNL     1      -0.684  18.536  17.286  0.00  0.00    +0.000 S 
ATOM     23  C   UNL     1       0.046  17.546  18.472  0.00  0.00    +0.000 A 
ENDBRANCH  18  19
ENDBRANCH  13  18
TORSDOF 2
ENDMDL
MODEL 8
REMARK VINA RESULT:      -5.5      9.669     11.356
REMARK  Name = 
REMARK  2 active torsions:
REMARK  status: ('A' for Active; 'I' for Inactive)
REMARK    1  A    between atoms: N_13  and  C_14
REMARK    2  A    between atoms: C_14  and  C_15
REMARK                            x       y       z     vdW  Elec       q    Type
REMARK                         _______ _______ _______ _____ _____    ______ ____
ROOT
ATOM      1  F   UNL     1      -4.167  10.017  14.595  0.00  0.00    +0.000 F 
ATOM      2  C   UNL     1      -3.665  10.442  15.758  0.00  0.00    +0.000 A 
ATOM      3  C   UNL     1      -4.370  11.259  16.597  0.00  0.00    +0.000 A 
ATOM      4  N   UNL     1      -3.888  11.690  17.780  0.00  0.00    +0.000 NA
ATOM      5  C   UNL     1      -2.649  11.295  18.141  0.00  0.00    +0.000 A 
ATOM      6  N   UNL     1      -2.142  11.727  19.342  0.00  0.00    +0.000 N 
ATOM      7  C   UNL     1      -2.945  12.557  20.226  0.00  0.00    +0.000 C 
ATOM      8  C   UNL     1      -2.232  13.882  20.469  0.00  0.00    +0.000 C 
ATOM      9  C   UNL     1      -0.784  13.655  20.905  0.00  0.00    +0.000 C 
ATOM     10  C   UNL     1       0.011  12.777  19.903  0.00  0.00    +0.000 C 
ATOM     11  C   UNL     1       1.445  12.541  20.425  0.00  0.00    +0.000 C 
ATOM     12  C   UNL     1       2.378  13.124  19.363  0.00  0.00    +0.000 C 
ATOM     13  N   UNL     1       1.582  14.087  18.588  0.00  0.00    +0.000 NA
ATOM     14  C   UNL     1       0.256  13.448  18.536  0.00  0.00    +0.000 C 
ATOM     15  C   UNL     1      -0.763  11.451  19.723  0.00  0.00    +0.000 C 
ATOM     16  N   UNL     1      -1.896  10.496  17.364  0.00  0.00    +0.000 NA
ATOM     17  C   UNL     1      -2.420  10.082  16.190  0.00  0.00    +0.000 A 
ENDROOT
BRANCH  13  18
ATOM     18  C   UNL     1       1.624  15.422  19.201  0.00  0.00    +0.000 C 
BRANCH  18  19
ATOM     19  C   UNL     1       3.032  15.914  19.406  0.00  0.00    +0.000 A 
ATOM     20  C   UNL     1       3.637  16.170  20.683  0.00  0.00    +0.000 A 
ATOM     21  C   UNL     1       4.900  16.711  20.579  0.00  0.00    +0.000 A 
ATOM     22  S   UNL     1       5.399  16.861  18.954  0.00  0.00    +0.000 S 
ATOM     23  C   UNL     1       3.915  16.230  18.386  0.00  0.00    +0.000 A 
ENDBRANCH  18  19
ENDBRANCH  13  18
TORSDOF 2
ENDMDL
MODEL 9
REMARK VINA RESULT:      -5.5      9.593     12.230
REMARK  Name = 
REMARK  2 active torsions:
REMARK  status: ('A' for Active; 'I' for Inactive)
REMARK    1  A    between atoms: N_13  and  C_14
REMARK    2  A    between atoms: C_14  and  C_15
REMARK                            x       y       z     vdW  Elec       q    Type
REMARK                         _______ _______ _______ _____ _____    ______ ____
ROOT
ATOM      1  F   UNL     1       4.511  16.855  19.329  0.00  0.00    +0.000 F 
ATOM      2  C   UNL     1       3.603  15.888  19.173  0.00  0.00    +0.000 A 
ATOM      3  C   UNL     1       2.326  16.151  18.762  0.00  0.00    +0.000 A 
ATOM      4  N   UNL     1       1.397  15.190  18.587  0.00  0.00    +0.000 NA
ATOM      5  C   UNL     1       1.753  13.912  18.836  0.00  0.00    +0.000 A 
ATOM      6  N   UNL     1       0.818  12.921  18.664  0.00  0.00    +0.000 N 
ATOM      7  C   UNL     1      -0.516  13.241  18.181  0.00  0.00    +0.000 C 
ATOM      8  C   UNL     1      -1.551  12.802  19.209  0.00  0.00    +0.000 C 
ATOM      9  C   UNL     1      -1.327  11.350  19.630  0.00  0.00    +0.000 C 
ATOM     10  C   UNL     1       0.111  11.093  20.151  0.00  0.00    +0.000 C 
ATOM     11  C   UNL     1       0.288   9.600  20.507  0.00  0.00    +0.000 C 
ATOM     12  C   UNL     1       0.643   9.565  21.995  0.00  0.00    +0.000 C 
ATOM     13  N   UNL     1       0.173  10.834  22.568  0.00  0.00    +0.000 NA
ATOM     14  C   UNL     1       0.432  11.798  21.484  0.00  0.00    +0.000 C 
ATOM     15  C   UNL     1       1.098  11.544  19.049  0.00  0.00    +0.000 C 
ATOM     16  N   UNL     1       2.989  13.580  19.247  0.00  0.00    +0.000 NA
ATOM     17  C   UNL     1       3.891  14.572  19.404  0.00  0.00    +0.000 A 
ENDROOT
BRANCH  13  18
ATOM     18  C   UNL     1      -1.224  10.730  23.011  0.00  0.00    +0.000 C 
BRANCH  18  19
ATOM     19  C   UNL     1      -1.861  12.078  23.219  0.00  0.00    +0.000 A 
ATOM     20  C   UNL     1      -1.149  13.323  23.288  0.00  0.00    +0.000 A 
ATOM     21  C   UNL     1      -1.965  14.392  23.588  0.00  0.00    +0.000 A 
ATOM     22  S   UNL     1      -3.601  13.926  23.730  0.00  0.00    +0.000 S 
ATOM     23  C   UNL     1      -3.216  12.289  23.420  0.00  0.00    +0.000 A 
ENDBRANCH  18  19
ENDBRANCH  13  18
TORSDOF 2
ENDMDL
