MODEL 1
REMARK VINA RESULT:      -6.9      0.000      0.000
REMARK  Name = 
REMARK  7 active torsions:
REMARK  status: ('A' for Active; 'I' for Inactive)
REMARK    1  A    between atoms: C_1  and  O_2
REMARK    2  A    between atoms: O_2  and  C_3
REMARK    3  A    between atoms: C_8  and  C_9
REMARK    4  A    between atoms: C_9  and  C_11
REMARK    5  A    between atoms: N_15  and  C_16
REMARK    6  A    between atoms: C_16  and  C_17
REMARK    7  A    between atoms: C_20  and  C_21
REMARK                            x       y       z     vdW  Elec       q    Type
REMARK                         _______ _______ _______ _____ _____    ______ ____
ROOT
ATOM      1  C   UNL     1       4.808   4.798  18.406  0.00  0.00    +0.000 C 
ATOM      2  C   UNL     1       4.097   6.144  18.576  0.00  0.00    +0.000 C 
ATOM      3  C   UNL     1       3.949   6.976  17.309  0.00  0.00    +0.000 C 
ATOM      4  C   UNL     1       5.148   6.940  16.367  0.00  0.00    +0.000 C 
ATOM      5  N   UNL     1       5.701   5.616  16.154  0.00  0.00    +0.000 NA
ATOM      6  C   UNL     1       5.941   4.827  17.364  0.00  0.00    +0.000 C 
ENDROOT
BRANCH   1   7
ATOM      7  C   UNL     1       3.915   3.574  18.225  0.00  0.00    +0.000 C 
ATOM      8  O   UNL     1       4.030   2.785  17.290  0.00  0.00    +0.000 OA
BRANCH   7  14
ATOM      9  C   UNL     1       3.522   2.686  20.482  0.00  0.00    +0.000 A 
ATOM     10  C   UNL     1       2.695   2.512  21.592  0.00  0.00    +0.000 A 
ATOM     11  C   UNL     1       1.315   2.753  21.469  0.00  0.00    +0.000 A 
ATOM     12  C   UNL     1       0.760   3.162  20.255  0.00  0.00    +0.000 A 
ATOM     13  C   UNL     1       1.592   3.410  19.165  0.00  0.00    +0.000 A 
ATOM     14  C   UNL     1       2.972   3.190  19.297  0.00  0.00    +0.000 A 
BRANCH   9  16
ATOM     15  C   UNL     1       5.240   1.084  21.123  0.00  0.00    +0.000 C 
ATOM     16  O   UNL     1       4.770   2.156  20.330  0.00  0.00    +0.000 OA
ENDBRANCH   9  16
ENDBRANCH   7  14
ENDBRANCH   1   7
BRANCH   5  17
ATOM     17  C   UNL     1       6.891   5.619  15.262  0.00  0.00    +0.000 C 
BRANCH  17  18
ATOM     18  C   UNL     1       6.789   4.792  14.006  0.00  0.00    +0.000 A 
ATOM     19  C   UNL     1       7.581   4.849  12.873  0.00  0.00    +0.000 A 
ATOM     20  N   UNL     1       7.262   3.977  11.856  0.00  0.00    +0.000 NA
ATOM     21  C   UNL     1       6.211   3.267  12.209  0.00  0.00    +0.000 A 
ATOM     22  C   UNL     1       5.607   2.203  11.353  0.00  0.00    +0.000 C 
ATOM     23  S   UNL     1       5.529   3.624  13.755  0.00  0.00    +0.000 S 
ENDBRANCH  17  18
ENDBRANCH   5  17
TORSDOF 5
ENDMDL
MODEL 2
REMARK VINA RESULT:      -6.8      3.612      6.786
REMARK  Name = 
REMARK  7 active torsions:
REMARK  status: ('A' for Active; 'I' for Inactive)
REMARK    1  A    between atoms: C_1  and  O_2
REMARK    2  A    between atoms: O_2  and  C_3
REMARK    3  A    between atoms: C_8  and  C_9
REMARK    4  A    between atoms: C_9  and  C_11
REMARK    5  A    between atoms: N_15  and  C_16
REMARK    6  A    between atoms: C_16  and  C_17
REMARK    7  A    between atoms: C_20  and  C_21
REMARK                            x       y       z     vdW  Elec       q    Type
REMARK                         _______ _______ _______ _____ _____    ______ ____
ROOT
ATOM      1  C   UNL     1       3.483   4.330  19.644  0.00  0.00    +0.000 C 
ATOM      2  C   UNL     1       2.136   3.711  19.257  0.00  0.00    +0.000 C 
ATOM      3  C   UNL     1       1.482   4.286  18.008  0.00  0.00    +0.000 C 
ATOM      4  C   UNL     1       1.625   5.794  17.836  0.00  0.00    +0.000 C 
ATOM      5  N   UNL     1       2.958   6.301  18.103  0.00  0.00    +0.000 NA
ATOM      6  C   UNL     1       3.577   5.838  19.346  0.00  0.00    +0.000 C 
ENDROOT
BRANCH   1   7
ATOM      7  C   UNL     1       4.732   3.591  19.175  0.00  0.00    +0.000 C 
ATOM      8  O   UNL     1       5.164   2.578  19.721  0.00  0.00    +0.000 OA
BRANCH   7  14
ATOM      9  C   UNL     1       6.681   4.489  17.976  0.00  0.00    +0.000 A 
ATOM     10  C   UNL     1       7.406   4.665  16.798  0.00  0.00    +0.000 A 
ATOM     11  C   UNL     1       6.784   4.420  15.561  0.00  0.00    +0.000 A 
ATOM     12  C   UNL     1       5.454   4.004  15.493  0.00  0.00    +0.000 A 
ATOM     13  C   UNL     1       4.749   3.753  16.669  0.00  0.00    +0.000 A 
ATOM     14  C   UNL     1       5.379   3.978  17.903  0.00  0.00    +0.000 A 
BRANCH   9  16
ATOM     15  C   UNL     1       7.903   6.096  19.336  0.00  0.00    +0.000 C 
ATOM     16  O   UNL     1       6.997   5.021  19.192  0.00  0.00    +0.000 OA
ENDBRANCH   9  16
ENDBRANCH   7  14
ENDBRANCH   1   7
BRANCH   5  17
ATOM     17  C   UNL     1       3.057   7.779  17.964  0.00  0.00    +0.000 C 
BRANCH  17  18
ATOM     18  C   UNL     1       1.958   8.587  18.605  0.00  0.00    +0.000 A 
ATOM     19  C   UNL     1       1.132   9.529  18.019  0.00  0.00    +0.000 A 
ATOM     20  N   UNL     1       0.207  10.132  18.843  0.00  0.00    +0.000 NA
ATOM     21  C   UNL     1       0.343   9.660  20.064  0.00  0.00    +0.000 A 
ATOM     22  C   UNL     1      -0.517  10.075  21.212  0.00  0.00    +0.000 C 
ATOM     23  S   UNL     1       1.601   8.500  20.302  0.00  0.00    +0.000 S 
ENDBRANCH  17  18
ENDBRANCH   5  17
TORSDOF 5
ENDMDL
MODEL 3
REMARK VINA RESULT:      -6.4      3.095      5.291
REMARK  Name = 
REMARK  7 active torsions:
REMARK  status: ('A' for Active; 'I' for Inactive)
REMARK    1  A    between atoms: C_1  and  O_2
REMARK    2  A    between atoms: O_2  and  C_3
REMARK    3  A    between atoms: C_8  and  C_9
REMARK    4  A    between atoms: C_9  and  C_11
REMARK    5  A    between atoms: N_15  and  C_16
REMARK    6  A    between atoms: C_16  and  C_17
REMARK    7  A    between atoms: C_20  and  C_21
REMARK                            x       y       z     vdW  Elec       q    Type
REMARK                         _______ _______ _______ _____ _____    ______ ____
ROOT
ATOM      1  C   UNL     1       1.439   4.669  19.235  0.00  0.00    +0.000 C 
ATOM      2  C   UNL     1       0.796   3.328  19.604  0.00  0.00    +0.000 C 
ATOM      3  C   UNL     1       1.721   2.119  19.560  0.00  0.00    +0.000 C 
ATOM      4  C   UNL     1       2.724   2.112  18.411  0.00  0.00    +0.000 C 
ATOM      5  N   UNL     1       3.387   3.383  18.190  0.00  0.00    +0.000 NA
ATOM      6  C   UNL     1       2.511   4.555  18.135  0.00  0.00    +0.000 C 
ENDROOT
BRANCH   1   7
ATOM      7  C   UNL     1       1.920   5.536  20.394  0.00  0.00    +0.000 C 
ATOM      8  O   UNL     1       2.766   5.172  21.206  0.00  0.00    +0.000 OA
BRANCH   7  14
ATOM      9  C   UNL     1       1.921   7.802  19.443  0.00  0.00    +0.000 A 
ATOM     10  C   UNL     1       1.378   9.085  19.360  0.00  0.00    +0.000 A 
ATOM     11  C   UNL     1       0.496   9.528  20.362  0.00  0.00    +0.000 A 
ATOM     12  C   UNL     1       0.157   8.706  21.438  0.00  0.00    +0.000 A 
ATOM     13  C   UNL     1       0.637   7.399  21.486  0.00  0.00    +0.000 A 
ATOM     14  C   UNL     1       1.499   6.952  20.473  0.00  0.00    +0.000 A 
BRANCH   9  16
ATOM     15  C   UNL     1       3.415   7.864  17.522  0.00  0.00    +0.000 C 
ATOM     16  O   UNL     1       3.037   7.368  18.790  0.00  0.00    +0.000 OA
ENDBRANCH   9  16
ENDBRANCH   7  14
ENDBRANCH   1   7
BRANCH   5  17
ATOM     17  C   UNL     1       4.330   3.355  17.040  0.00  0.00    +0.000 C 
BRANCH  17  18
ATOM     18  C   UNL     1       5.215   4.563  16.870  0.00  0.00    +0.000 A 
ATOM     19  C   UNL     1       5.460   5.293  15.720  0.00  0.00    +0.000 A 
ATOM     20  N   UNL     1       6.326   6.357  15.841  0.00  0.00    +0.000 NA
ATOM     21  C   UNL     1       6.755   6.426  17.084  0.00  0.00    +0.000 A 
ATOM     22  C   UNL     1       7.691   7.480  17.578  0.00  0.00    +0.000 C 
ATOM     23  S   UNL     1       6.178   5.207  18.162  0.00  0.00    +0.000 S 
ENDBRANCH  17  18
ENDBRANCH   5  17
TORSDOF 5
ENDMDL
MODEL 4
REMARK VINA RESULT:      -6.3      1.124      1.765
REMARK  Name = 
REMARK  7 active torsions:
REMARK  status: ('A' for Active; 'I' for Inactive)
REMARK    1  A    between atoms: C_1  and  O_2
REMARK    2  A    between atoms: O_2  and  C_3
REMARK    3  A    between atoms: C_8  and  C_9
REMARK    4  A    between atoms: C_9  and  C_11
REMARK    5  A    between atoms: N_15  and  C_16
REMARK    6  A    between atoms: C_16  and  C_17
REMARK    7  A    between atoms: C_20  and  C_21
REMARK                            x       y       z     vdW  Elec       q    Type
REMARK                         _______ _______ _______ _____ _____    ______ ____
ROOT
ATOM      1  C   UNL     1       5.153   5.388  19.093  0.00  0.00    +0.000 C 
ATOM      2  C   UNL     1       4.123   6.474  18.766  0.00  0.00    +0.000 C 
ATOM      3  C   UNL     1       3.828   6.679  17.286  0.00  0.00    +0.000 C 
ATOM      4  C   UNL     1       5.038   6.572  16.364  0.00  0.00    +0.000 C 
ATOM      5  N   UNL     1       5.911   5.451  16.652  0.00  0.00    +0.000 NA
ATOM      6  C   UNL     1       6.287   5.284  18.057  0.00  0.00    +0.000 C 
ENDROOT
BRANCH   1   7
ATOM      7  C   UNL     1       4.601   4.014  19.456  0.00  0.00    +0.000 C 
ATOM      8  O   UNL     1       5.310   3.064  19.783  0.00  0.00    +0.000 OA
BRANCH   7  14
ATOM      9  C   UNL     1       2.476   3.151  18.574  0.00  0.00    +0.000 A 
ATOM     10  C   UNL     1       1.150   2.763  18.765  0.00  0.00    +0.000 A 
ATOM     11  C   UNL     1       0.482   3.140  19.944  0.00  0.00    +0.000 A 
ATOM     12  C   UNL     1       1.126   3.897  20.925  0.00  0.00    +0.000 A 
ATOM     13  C   UNL     1       2.472   4.222  20.772  0.00  0.00    +0.000 A 
ATOM     14  C   UNL     1       3.142   3.825  19.605  0.00  0.00    +0.000 A 
BRANCH   9  16
ATOM     15  C   UNL     1       3.850   2.090  16.867  0.00  0.00    +0.000 C 
ATOM     16  O   UNL     1       3.127   3.192  17.376  0.00  0.00    +0.000 OA
ENDBRANCH   9  16
ENDBRANCH   7  14
ENDBRANCH   1   7
BRANCH   5  17
ATOM     17  C   UNL     1       7.101   5.395  15.761  0.00  0.00    +0.000 C 
BRANCH  17  18
ATOM     18  C   UNL     1       6.897   4.759  14.410  0.00  0.00    +0.000 A 
ATOM     19  C   UNL     1       7.605   4.979  13.242  0.00  0.00    +0.000 A 
ATOM     20  N   UNL     1       7.202   4.263  12.136  0.00  0.00    +0.000 NA
ATOM     21  C   UNL     1       6.171   3.511  12.460  0.00  0.00    +0.000 A 
ATOM     22  C   UNL     1       5.493   2.582  11.507  0.00  0.00    +0.000 C 
ATOM     23  S   UNL     1       5.608   3.641  14.087  0.00  0.00    +0.000 S 
ENDBRANCH  17  18
ENDBRANCH   5  17
TORSDOF 5
ENDMDL
MODEL 5
REMARK VINA RESULT:      -6.3      3.310      5.181
REMARK  Name = 
REMARK  7 active torsions:
REMARK  status: ('A' for Active; 'I' for Inactive)
REMARK    1  A    between atoms: C_1  and  O_2
REMARK    2  A    between atoms: O_2  and  C_3
REMARK    3  A    between atoms: C_8  and  C_9
REMARK    4  A    between atoms: C_9  and  C_11
REMARK    5  A    between atoms: N_15  and  C_16
REMARK    6  A    between atoms: C_16  and  C_17
REMARK    7  A    between atoms: C_20  and  C_21
REMARK                            x       y       z     vdW  Elec       q    Type
REMARK                         _______ _______ _______ _____ _____    ______ ____
ROOT
ATOM      1  C   UNL     1       2.481   5.988  18.195  0.00  0.00    +0.000 C 
ATOM      2  C   UNL     1       1.655   4.700  18.116  0.00  0.00    +0.000 C 
ATOM      3  C   UNL     1       2.324   3.453  18.680  0.00  0.00    +0.000 C 
ATOM      4  C   UNL     1       3.818   3.335  18.398  0.00  0.00    +0.000 C 
ATOM      5  N   UNL     1       4.563   4.562  18.607  0.00  0.00    +0.000 NA
ATOM      6  C   UNL     1       3.991   5.764  17.996  0.00  0.00    +0.000 C 
ENDROOT
BRANCH   1   7
ATOM      7  C   UNL     1       2.204   6.903  19.383  0.00  0.00    +0.000 C 
ATOM      8  O   UNL     1       2.444   6.592  20.547  0.00  0.00    +0.000 OA
BRANCH   7  14
ATOM      9  C   UNL     1       1.156   8.969  20.204  0.00  0.00    +0.000 A 
ATOM     10  C   UNL     1       0.943  10.344  20.108  0.00  0.00    +0.000 A 
ATOM     11  C   UNL     1       1.282  11.014  18.919  0.00  0.00    +0.000 A 
ATOM     12  C   UNL     1       1.827  10.325  17.834  0.00  0.00    +0.000 A 
ATOM     13  C   UNL     1       2.111   8.965  17.953  0.00  0.00    +0.000 A 
ATOM     14  C   UNL     1       1.792   8.304  19.149  0.00  0.00    +0.000 A 
BRANCH   9  16
ATOM     15  C   UNL     1      -0.471   8.562  21.969  0.00  0.00    +0.000 C 
ATOM     16  O   UNL     1       0.561   8.134  21.104  0.00  0.00    +0.000 OA
ENDBRANCH   9  16
ENDBRANCH   7  14
ENDBRANCH   1   7
BRANCH   5  17
ATOM     17  C   UNL     1       6.009   4.426  18.288  0.00  0.00    +0.000 C 
BRANCH  17  18
ATOM     18  C   UNL     1       6.397   4.611  16.843  0.00  0.00    +0.000 A 
ATOM     19  C   UNL     1       7.217   5.579  16.292  0.00  0.00    +0.000 A 
ATOM     20  N   UNL     1       7.401   5.524  14.928  0.00  0.00    +0.000 NA
ATOM     21  C   UNL     1       6.702   4.521  14.438  0.00  0.00    +0.000 A 
ATOM     22  C   UNL     1       6.688   4.152  12.990  0.00  0.00    +0.000 C 
ATOM     23  S   UNL     1       5.765   3.615  15.570  0.00  0.00    +0.000 S 
ENDBRANCH  17  18
ENDBRANCH   5  17
TORSDOF 5
ENDMDL
MODEL 6
REMARK VINA RESULT:      -6.3      0.927      1.973
REMARK  Name = 
REMARK  7 active torsions:
REMARK  status: ('A' for Active; 'I' for Inactive)
REMARK    1  A    between atoms: C_1  and  O_2
REMARK    2  A    between atoms: O_2  and  C_3
REMARK    3  A    between atoms: C_8  and  C_9
REMARK    4  A    between atoms: C_9  and  C_11
REMARK    5  A    between atoms: N_15  and  C_16
REMARK    6  A    between atoms: C_16  and  C_17
REMARK    7  A    between atoms: C_20  and  C_21
REMARK                            x       y       z     vdW  Elec       q    Type
REMARK                         _______ _______ _______ _____ _____    ______ ____
ROOT
ATOM      1  C   UNL     1       5.255   4.464  18.720  0.00  0.00    +0.000 C 
ATOM      2  C   UNL     1       4.658   5.840  19.028  0.00  0.00    +0.000 C 
ATOM      3  C   UNL     1       4.471   6.761  17.829  0.00  0.00    +0.000 C 
ATOM      4  C   UNL     1       5.586   6.707  16.790  0.00  0.00    +0.000 C 
ATOM      5  N   UNL     1       6.024   5.366  16.455  0.00  0.00    +0.000 NA
ATOM      6  C   UNL     1       6.302   4.485  17.591  0.00  0.00    +0.000 C 
ENDROOT
BRANCH   1   7
ATOM      7  C   UNL     1       4.266   3.317  18.541  0.00  0.00    +0.000 C 
ATOM      8  O   UNL     1       4.428   2.403  17.736  0.00  0.00    +0.000 OA
BRANCH   7  14
ATOM      9  C   UNL     1       1.851   3.087  18.935  0.00  0.00    +0.000 A 
ATOM     10  C   UNL     1       0.784   2.735  19.761  0.00  0.00    +0.000 A 
ATOM     11  C   UNL     1       1.004   2.565  21.140  0.00  0.00    +0.000 A 
ATOM     12  C   UNL     1       2.272   2.744  21.695  0.00  0.00    +0.000 A 
ATOM     13  C   UNL     1       3.356   3.021  20.863  0.00  0.00    +0.000 A 
ATOM     14  C   UNL     1       3.137   3.169  19.485  0.00  0.00    +0.000 A 
BRANCH   9  16
ATOM     15  C   UNL     1       1.296   4.961  17.485  0.00  0.00    +0.000 C 
ATOM     16  O   UNL     1       1.746   3.638  17.692  0.00  0.00    +0.000 OA
ENDBRANCH   9  16
ENDBRANCH   7  14
ENDBRANCH   1   7
BRANCH   5  17
ATOM     17  C   UNL     1       7.138   5.348  15.468  0.00  0.00    +0.000 C 
BRANCH  17  18
ATOM     18  C   UNL     1       6.856   4.668  14.153  0.00  0.00    +0.000 A 
ATOM     19  C   UNL     1       7.569   4.759  12.970  0.00  0.00    +0.000 A 
ATOM     20  N   UNL     1       7.084   4.032  11.904  0.00  0.00    +0.000 NA
ATOM     21  C   UNL     1       5.989   3.402  12.274  0.00  0.00    +0.000 A 
ATOM     22  C   UNL     1       5.212   2.498  11.373  0.00  0.00    +0.000 C 
ATOM     23  S   UNL     1       5.461   3.668  13.896  0.00  0.00    +0.000 S 
ENDBRANCH  17  18
ENDBRANCH   5  17
TORSDOF 5
ENDMDL
MODEL 7
REMARK VINA RESULT:      -6.3      1.413      2.226
REMARK  Name = 
REMARK  7 active torsions:
REMARK  status: ('A' for Active; 'I' for Inactive)
REMARK    1  A    between atoms: C_1  and  O_2
REMARK    2  A    between atoms: O_2  and  C_3
REMARK    3  A    between atoms: C_8  and  C_9
REMARK    4  A    between atoms: C_9  and  C_11
REMARK    5  A    between atoms: N_15  and  C_16
REMARK    6  A    between atoms: C_16  and  C_17
REMARK    7  A    between atoms: C_20  and  C_21
REMARK                            x       y       z     vdW  Elec       q    Type
REMARK                         _______ _______ _______ _____ _____    ______ ____
ROOT
ATOM      1  C   UNL     1       5.593   4.195  18.341  0.00  0.00    +0.000 C 
ATOM      2  C   UNL     1       5.820   5.526  19.063  0.00  0.00    +0.000 C 
ATOM      3  C   UNL     1       6.075   6.729  18.164  0.00  0.00    +0.000 C 
ATOM      4  C   UNL     1       6.939   6.450  16.938  0.00  0.00    +0.000 C 
ATOM      5  N   UNL     1       6.594   5.233  16.229  0.00  0.00    +0.000 NA
ATOM      6  C   UNL     1       6.433   4.038  17.060  0.00  0.00    +0.000 C 
ENDROOT
BRANCH   1   7
ATOM      7  C   UNL     1       4.143   3.783  18.110  0.00  0.00    +0.000 C 
ATOM      8  O   UNL     1       3.712   3.402  17.024  0.00  0.00    +0.000 OA
BRANCH   7  14
ATOM      9  C   UNL     1       2.100   4.491  19.278  0.00  0.00    +0.000 A 
ATOM     10  C   UNL     1       1.101   4.262  20.225  0.00  0.00    +0.000 A 
ATOM     11  C   UNL     1       1.288   3.266  21.200  0.00  0.00    +0.000 A 
ATOM     12  C   UNL     1       2.457   2.504  21.236  0.00  0.00    +0.000 A 
ATOM     13  C   UNL     1       3.424   2.678  20.247  0.00  0.00    +0.000 A 
ATOM     14  C   UNL     1       3.225   3.657  19.262  0.00  0.00    +0.000 A 
BRANCH   9  16
ATOM     15  C   UNL     1       2.456   6.893  19.107  0.00  0.00    +0.000 C 
ATOM     16  O   UNL     1       2.240   5.622  18.528  0.00  0.00    +0.000 OA
ENDBRANCH   9  16
ENDBRANCH   7  14
ENDBRANCH   1   7
BRANCH   5  17
ATOM     17  C   UNL     1       7.478   4.968  15.062  0.00  0.00    +0.000 C 
BRANCH  17  18
ATOM     18  C   UNL     1       6.813   4.407  13.832  0.00  0.00    +0.000 A 
ATOM     19  C   UNL     1       7.381   4.126  12.602  0.00  0.00    +0.000 A 
ATOM     20  N   UNL     1       6.537   3.621  11.637  0.00  0.00    +0.000 NA
ATOM     21  C   UNL     1       5.319   3.536  12.130  0.00  0.00    +0.000 A 
ATOM     22  C   UNL     1       4.152   3.004  11.364  0.00  0.00    +0.000 C 
ATOM     23  S   UNL     1       5.109   4.084  13.754  0.00  0.00    +0.000 S 
ENDBRANCH  17  18
ENDBRANCH   5  17
TORSDOF 5
ENDMDL
MODEL 8
REMARK VINA RESULT:      -6.3      3.386      5.698
REMARK  Name = 
REMARK  7 active torsions:
REMARK  status: ('A' for Active; 'I' for Inactive)
REMARK    1  A    between atoms: C_1  and  O_2
REMARK    2  A    between atoms: O_2  and  C_3
REMARK    3  A    between atoms: C_8  and  C_9
REMARK    4  A    between atoms: C_9  and  C_11
REMARK    5  A    between atoms: N_15  and  C_16
REMARK    6  A    between atoms: C_16  and  C_17
REMARK    7  A    between atoms: C_20  and  C_21
REMARK                            x       y       z     vdW  Elec       q    Type
REMARK                         _______ _______ _______ _____ _____    ______ ____
ROOT
ATOM      1  C   UNL     1       1.583   4.897  19.239  0.00  0.00    +0.000 C 
ATOM      2  C   UNL     1       1.117   3.657  20.008  0.00  0.00    +0.000 C 
ATOM      3  C   UNL     1       2.202   2.638  20.334  0.00  0.00    +0.000 C 
ATOM      4  C   UNL     1       3.241   2.424  19.239  0.00  0.00    +0.000 C 
ATOM      5  N   UNL     1       3.730   3.648  18.633  0.00  0.00    +0.000 NA
ATOM      6  C   UNL     1       2.703   4.608  18.223  0.00  0.00    +0.000 C 
ENDROOT
BRANCH   1   7
ATOM      7  C   UNL     1       1.892   6.138  20.072  0.00  0.00    +0.000 C 
ATOM      8  O   UNL     1       2.435   6.096  21.173  0.00  0.00    +0.000 OA
BRANCH   7  14
ATOM      9  C   UNL     1       1.141   8.466  20.303  0.00  0.00    +0.000 A 
ATOM     10  C   UNL     1       1.141   9.791  19.868  0.00  0.00    +0.000 A 
ATOM     11  C   UNL     1       1.615  10.095  18.579  0.00  0.00    +0.000 A 
ATOM     12  C   UNL     1       2.085   9.092  17.730  0.00  0.00    +0.000 A 
ATOM     13  C   UNL     1       2.158   7.777  18.188  0.00  0.00    +0.000 A 
ATOM     14  C   UNL     1       1.704   7.481  19.483  0.00  0.00    +0.000 A 
BRANCH   9  16
ATOM     15  C   UNL     1      -0.440   8.784  22.127  0.00  0.00    +0.000 C 
ATOM     16  O   UNL     1       0.398   7.968  21.334  0.00  0.00    +0.000 OA
ENDBRANCH   9  16
ENDBRANCH   7  14
ENDBRANCH   1   7
BRANCH   5  17
ATOM     17  C   UNL     1       4.713   3.406  17.543  0.00  0.00    +0.000 C 
BRANCH  17  18
ATOM     18  C   UNL     1       5.676   4.527  17.248  0.00  0.00    +0.000 A 
ATOM     19  C   UNL     1       6.405   4.751  16.093  0.00  0.00    +0.000 A 
ATOM     20  N   UNL     1       7.225   5.857  16.090  0.00  0.00    +0.000 NA
ATOM     21  C   UNL     1       7.134   6.466  17.254  0.00  0.00    +0.000 A 
ATOM     22  C   UNL     1       7.872   7.721  17.590  0.00  0.00    +0.000 C 
ATOM     23  S   UNL     1       6.094   5.734  18.423  0.00  0.00    +0.000 S 
ENDBRANCH  17  18
ENDBRANCH   5  17
TORSDOF 5
ENDMDL
MODEL 9
REMARK VINA RESULT:      -6.2      3.937      6.945
REMARK  Name = 
REMARK  7 active torsions:
REMARK  status: ('A' for Active; 'I' for Inactive)
REMARK    1  A    between atoms: C_1  and  O_2
REMARK    2  A    between atoms: O_2  and  C_3
REMARK    3  A    between atoms: C_8  and  C_9
REMARK    4  A    between atoms: C_9  and  C_11
REMARK    5  A    between atoms: N_15  and  C_16
REMARK    6  A    between atoms: C_16  and  C_17
REMARK    7  A    between atoms: C_20  and  C_21
REMARK                            x       y       z     vdW  Elec       q    Type
REMARK                         _______ _______ _______ _____ _____    ______ ____
ROOT
ATOM      1  C   UNL     1       4.615   3.609  18.660  0.00  0.00    +0.000 C 
ATOM      2  C   UNL     1       3.536   2.587  18.292  0.00  0.00    +0.000 C 
ATOM      3  C   UNL     1       2.160   3.162  17.981  0.00  0.00    +0.000 C 
ATOM      4  C   UNL     1       1.734   4.333  18.860  0.00  0.00    +0.000 C 
ATOM      5  N   UNL     1       2.768   5.328  19.072  0.00  0.00    +0.000 NA
ATOM      6  C   UNL     1       4.079   4.808  19.463  0.00  0.00    +0.000 C 
ENDROOT
BRANCH   1   7
ATOM      7  C   UNL     1       5.537   4.062  17.532  0.00  0.00    +0.000 C 
ATOM      8  O   UNL     1       5.433   3.666  16.373  0.00  0.00    +0.000 OA
BRANCH   7  14
ATOM      9  C   UNL     1       6.362   6.311  16.984  0.00  0.00    +0.000 A 
ATOM     10  C   UNL     1       7.102   7.446  17.313  0.00  0.00    +0.000 A 
ATOM     11  C   UNL     1       8.040   7.380  18.359  0.00  0.00    +0.000 A 
ATOM     12  C   UNL     1       8.241   6.197  19.073  0.00  0.00    +0.000 A 
ATOM     13  C   UNL     1       7.450   5.083  18.798  0.00  0.00    +0.000 A 
ATOM     14  C   UNL     1       6.500   5.159  17.768  0.00  0.00    +0.000 A 
BRANCH   9  16
ATOM     15  C   UNL     1       4.747   7.003  15.298  0.00  0.00    +0.000 C 
ATOM     16  O   UNL     1       5.711   6.101  15.804  0.00  0.00    +0.000 OA
ENDBRANCH   9  16
ENDBRANCH   7  14
ENDBRANCH   1   7
BRANCH   5  17
ATOM     17  C   UNL     1       2.334   6.437  19.964  0.00  0.00    +0.000 C 
BRANCH  17  18
ATOM     18  C   UNL     1       2.017   7.750  19.294  0.00  0.00    +0.000 A 
ATOM     19  C   UNL     1       2.363   8.171  18.022  0.00  0.00    +0.000 A 
ATOM     20  N   UNL     1       1.949   9.434  17.660  0.00  0.00    +0.000 NA
ATOM     21  C   UNL     1       1.302   9.982  18.667  0.00  0.00    +0.000 A 
ATOM     22  C   UNL     1       0.690  11.344  18.613  0.00  0.00    +0.000 C 
ATOM     23  S   UNL     1       1.183   9.037  20.107  0.00  0.00    +0.000 S 
ENDBRANCH  17  18
ENDBRANCH   5  17
TORSDOF 5
ENDMDL
