MODEL 1
REMARK VINA RESULT:      -8.1      0.000      0.000
REMARK  Name = 
REMARK  4 active torsions:
REMARK  status: ('A' for Active; 'I' for Inactive)
REMARK    1  A    between atoms: C_1  and  O_2
REMARK    2  A    between atoms: O_2  and  C_3
REMARK    3  A    between atoms: C_5  and  C_6
REMARK    4  A    between atoms: C_24  and  O_25
REMARK                            x       y       z     vdW  Elec       q    Type
REMARK                         _______ _______ _______ _____ _____    ______ ____
ROOT
ATOM      1  C   UNL     1       0.342  11.251  19.512  0.00  0.00    +0.000 C 
ATOM      2  C   UNL     1       0.357  12.091  20.803  0.00  0.00    +0.000 C 
ATOM      3  C   UNL     1      -0.055  11.311  22.052  0.00  0.00    +0.000 C 
ATOM      4  O   UNL     1      -0.649  11.852  22.983  0.00  0.00    +0.000 OA
ATOM      5  N   UNL     1       0.381  10.012  22.148  0.00  0.00    +0.000 N 
ATOM      6  C   UNL     1       0.903   9.341  21.074  0.00  0.00    +0.000 A 
ATOM      7  N   UNL     1       1.325   8.048  21.165  0.00  0.00    +0.000 NA
ATOM      8  C   UNL     1       1.756   7.627  19.988  0.00  0.00    +0.000 A 
ATOM      9  N   UNL     1       2.157   6.350  19.733  0.00  0.00    +0.000 N 
ATOM     10  C   UNL     1       3.154   6.019  18.726  0.00  0.00    +0.000 C 
ATOM     11  C   UNL     1       2.607   4.907  17.833  0.00  0.00    +0.000 C 
ATOM     12  C   UNL     1       2.149   3.701  18.653  0.00  0.00    +0.000 C 
ATOM     13  C   UNL     1       1.217   4.109  19.797  0.00  0.00    +0.000 C 
ATOM     14  C   UNL     1       1.798   5.259  20.633  0.00  0.00    +0.000 C 
ATOM     15  S   UNL     1       1.678   8.855  18.738  0.00  0.00    +0.000 S 
ATOM     16  C   UNL     1       0.934   9.913  19.831  0.00  0.00    +0.000 A 
ATOM     17  H   UNL     1       0.234   9.498  23.004  0.00  0.00    +0.000 HD
ENDROOT
BRANCH   1  20
ATOM     18  C   UNL     1      -2.661  10.317  17.245  0.00  0.00    +0.000 A 
ATOM     19  C   UNL     1      -1.371  10.382  17.794  0.00  0.00    +0.000 A 
ATOM     20  C   UNL     1      -1.066  11.179  18.912  0.00  0.00    +0.000 A 
ATOM     21  C   UNL     1      -2.115  11.905  19.499  0.00  0.00    +0.000 A 
ATOM     22  C   UNL     1      -3.411  11.842  18.974  0.00  0.00    +0.000 A 
ATOM     23  C   UNL     1      -3.683  11.056  17.849  0.00  0.00    +0.000 A 
BRANCH  18  25
ATOM     24  C   UNL     1      -2.884  10.113  14.872  0.00  0.00    +0.000 C 
ATOM     25  O   UNL     1      -2.736   9.504  16.146  0.00  0.00    +0.000 OA
ENDBRANCH  18  25
BRANCH  23  26
ATOM     26  O   UNL     1      -4.959  11.039  17.362  0.00  0.00    +0.000 OA
ATOM     27  H   UNL     1      -5.279  11.954  17.264  0.00  0.00    +0.000 HD
ENDBRANCH  23  26
ENDBRANCH   1  20
TORSDOF 3
ENDMDL
MODEL 2
REMARK VINA RESULT:      -7.9      0.835      1.915
REMARK  Name = 
REMARK  4 active torsions:
REMARK  status: ('A' for Active; 'I' for Inactive)
REMARK    1  A    between atoms: C_1  and  O_2
REMARK    2  A    between atoms: O_2  and  C_3
REMARK    3  A    between atoms: C_5  and  C_6
REMARK    4  A    between atoms: C_24  and  O_25
REMARK                            x       y       z     vdW  Elec       q    Type
REMARK                         _______ _______ _______ _____ _____    ______ ____
ROOT
ATOM      1  C   UNL     1       0.644  10.816  19.486  0.00  0.00    +0.000 C 
ATOM      2  C   UNL     1       0.644  11.620  20.801  0.00  0.00    +0.000 C 
ATOM      3  C   UNL     1       0.147  10.826  22.009  0.00  0.00    +0.000 C 
ATOM      4  O   UNL     1      -0.459  11.369  22.931  0.00  0.00    +0.000 OA
ATOM      5  N   UNL     1       0.519   9.506  22.084  0.00  0.00    +0.000 N 
ATOM      6  C   UNL     1       1.054   8.841  21.013  0.00  0.00    +0.000 A 
ATOM      7  N   UNL     1       1.412   7.527  21.083  0.00  0.00    +0.000 NA
ATOM      8  C   UNL     1       1.870   7.119  19.912  0.00  0.00    +0.000 A 
ATOM      9  N   UNL     1       2.223   5.832  19.636  0.00  0.00    +0.000 N 
ATOM     10  C   UNL     1       3.243   5.482  18.660  0.00  0.00    +0.000 C 
ATOM     11  C   UNL     1       2.684   4.422  17.714  0.00  0.00    +0.000 C 
ATOM     12  C   UNL     1       2.138   3.217  18.481  0.00  0.00    +0.000 C 
ATOM     13  C   UNL     1       1.180   3.637  19.598  0.00  0.00    +0.000 C 
ATOM     14  C   UNL     1       1.778   4.735  20.489  0.00  0.00    +0.000 C 
ATOM     15  S   UNL     1       1.899   8.382  18.696  0.00  0.00    +0.000 S 
ATOM     16  C   UNL     1       1.161   9.444  19.789  0.00  0.00    +0.000 A 
ATOM     17  H   UNL     1       0.315   8.977  22.919  0.00  0.00    +0.000 HD
ENDROOT
BRANCH   1  20
ATOM     18  C   UNL     1      -3.072  11.613  18.723  0.00  0.00    +0.000 A 
ATOM     19  C   UNL     1      -1.804  11.604  19.324  0.00  0.00    +0.000 A 
ATOM     20  C   UNL     1      -0.741  10.827  18.829  0.00  0.00    +0.000 A 
ATOM     21  C   UNL     1      -0.975  10.064  17.675  0.00  0.00    +0.000 A 
ATOM     22  C   UNL     1      -2.230  10.071  17.053  0.00  0.00    +0.000 A 
ATOM     23  C   UNL     1      -3.275  10.838  17.577  0.00  0.00    +0.000 A 
BRANCH  18  25
ATOM     24  C   UNL     1      -3.539  13.085  20.551  0.00  0.00    +0.000 C 
ATOM     25  O   UNL     1      -3.970  12.414  19.376  0.00  0.00    +0.000 OA
ENDBRANCH  18  25
BRANCH  23  26
ATOM     26  O   UNL     1      -4.486  10.801  16.947  0.00  0.00    +0.000 OA
ATOM     27  H   UNL     1      -5.031  10.093  17.338  0.00  0.00    +0.000 HD
ENDBRANCH  23  26
ENDBRANCH   1  20
TORSDOF 3
ENDMDL
MODEL 3
REMARK VINA RESULT:      -7.8      3.689      6.393
REMARK  Name = 
REMARK  4 active torsions:
REMARK  status: ('A' for Active; 'I' for Inactive)
REMARK    1  A    between atoms: C_1  and  O_2
REMARK    2  A    between atoms: O_2  and  C_3
REMARK    3  A    between atoms: C_5  and  C_6
REMARK    4  A    between atoms: C_24  and  O_25
REMARK                            x       y       z     vdW  Elec       q    Type
REMARK                         _______ _______ _______ _____ _____    ______ ____
ROOT
ATOM      1  C   UNL     1       3.149   5.906  20.033  0.00  0.00    +0.000 C 
ATOM      2  C   UNL     1       2.212   4.939  20.783  0.00  0.00    +0.000 C 
ATOM      3  C   UNL     1       1.407   4.022  19.862  0.00  0.00    +0.000 C 
ATOM      4  O   UNL     1       0.275   3.643  20.159  0.00  0.00    +0.000 OA
ATOM      5  N   UNL     1       2.050   3.532  18.752  0.00  0.00    +0.000 N 
ATOM      6  C   UNL     1       3.241   4.050  18.316  0.00  0.00    +0.000 A 
ATOM      7  N   UNL     1       3.874   3.572  17.207  0.00  0.00    +0.000 NA
ATOM      8  C   UNL     1       4.982   4.260  16.986  0.00  0.00    +0.000 A 
ATOM      9  N   UNL     1       5.787   4.083  15.902  0.00  0.00    +0.000 N 
ATOM     10  C   UNL     1       7.220   4.334  15.929  0.00  0.00    +0.000 C 
ATOM     11  C   UNL     1       7.592   5.222  14.743  0.00  0.00    +0.000 C 
ATOM     12  C   UNL     1       7.105   4.628  13.421  0.00  0.00    +0.000 C 
ATOM     13  C   UNL     1       5.625   4.239  13.481  0.00  0.00    +0.000 C 
ATOM     14  C   UNL     1       5.302   3.384  14.715  0.00  0.00    +0.000 C 
ATOM     15  S   UNL     1       5.281   5.503  18.185  0.00  0.00    +0.000 S 
ATOM     16  C   UNL     1       3.801   5.141  18.923  0.00  0.00    +0.000 A 
ATOM     17  H   UNL     1       1.598   2.832  18.182  0.00  0.00    +0.000 HD
ENDROOT
BRANCH   1  20
ATOM     18  C   UNL     1       0.968   9.111  20.021  0.00  0.00    +0.000 A 
ATOM     19  C   UNL     1       1.656   7.966  20.449  0.00  0.00    +0.000 A 
ATOM     20  C   UNL     1       2.396   7.157  19.567  0.00  0.00    +0.000 A 
ATOM     21  C   UNL     1       2.455   7.548  18.220  0.00  0.00    +0.000 A 
ATOM     22  C   UNL     1       1.785   8.695  17.777  0.00  0.00    +0.000 A 
ATOM     23  C   UNL     1       1.041   9.471  18.672  0.00  0.00    +0.000 A 
BRANCH  18  25
ATOM     24  C   UNL     1       0.623   9.403  22.371  0.00  0.00    +0.000 C 
ATOM     25  O   UNL     1       0.290   9.738  21.032  0.00  0.00    +0.000 OA
ENDBRANCH  18  25
BRANCH  23  26
ATOM     26  O   UNL     1       0.391  10.572  18.192  0.00  0.00    +0.000 OA
ATOM     27  H   UNL     1       0.990  11.070  17.607  0.00  0.00    +0.000 HD
ENDBRANCH  23  26
ENDBRANCH   1  20
TORSDOF 3
ENDMDL
MODEL 4
REMARK VINA RESULT:      -7.0      3.754      7.061
REMARK  Name = 
REMARK  4 active torsions:
REMARK  status: ('A' for Active; 'I' for Inactive)
REMARK    1  A    between atoms: C_1  and  O_2
REMARK    2  A    between atoms: O_2  and  C_3
REMARK    3  A    between atoms: C_5  and  C_6
REMARK    4  A    between atoms: C_24  and  O_25
REMARK                            x       y       z     vdW  Elec       q    Type
REMARK                         _______ _______ _______ _____ _____    ______ ____
ROOT
ATOM      1  C   UNL     1      -0.300  10.924  19.466  0.00  0.00    +0.000 C 
ATOM      2  C   UNL     1       0.699   9.777  19.218  0.00  0.00    +0.000 C 
ATOM      3  C   UNL     1       1.687  10.053  18.085  0.00  0.00    +0.000 C 
ATOM      4  O   UNL     1       2.123   9.148  17.375  0.00  0.00    +0.000 OA
ATOM      5  N   UNL     1       2.170  11.335  17.976  0.00  0.00    +0.000 N 
ATOM      6  C   UNL     1       1.595  12.385  18.643  0.00  0.00    +0.000 A 
ATOM      7  N   UNL     1       2.066  13.659  18.526  0.00  0.00    +0.000 NA
ATOM      8  C   UNL     1       1.321  14.485  19.242  0.00  0.00    +0.000 A 
ATOM      9  N   UNL     1       1.481  15.838  19.258  0.00  0.00    +0.000 N 
ATOM     10  C   UNL     1       1.145  16.661  20.410  0.00  0.00    +0.000 C 
ATOM     11  C   UNL     1       0.270  17.826  19.951  0.00  0.00    +0.000 C 
ATOM     12  C   UNL     1       0.929  18.610  18.815  0.00  0.00    +0.000 C 
ATOM     13  C   UNL     1       1.402  17.690  17.687  0.00  0.00    +0.000 C 
ATOM     14  C   UNL     1       2.239  16.515  18.212  0.00  0.00    +0.000 C 
ATOM     15  S   UNL     1       0.029  13.680  20.112  0.00  0.00    +0.000 S 
ATOM     16  C   UNL     1       0.457  12.214  19.382  0.00  0.00    +0.000 A 
ATOM     17  H   UNL     1       2.911  11.535  17.321  0.00  0.00    +0.000 HD
ENDROOT
BRANCH   1  20
ATOM     18  C   UNL     1      -3.771  11.483  17.833  0.00  0.00    +0.000 A 
ATOM     19  C   UNL     1      -2.680  11.562  18.713  0.00  0.00    +0.000 A 
ATOM     20  C   UNL     1      -1.491  10.839  18.505  0.00  0.00    +0.000 A 
ATOM     21  C   UNL     1      -1.407  10.041  17.355  0.00  0.00    +0.000 A 
ATOM     22  C   UNL     1      -2.480   9.960  16.458  0.00  0.00    +0.000 A 
ATOM     23  C   UNL     1      -3.658  10.674  16.698  0.00  0.00    +0.000 A 
BRANCH  18  25
ATOM     24  C   UNL     1      -5.128  12.314  19.620  0.00  0.00    +0.000 C 
ATOM     25  O   UNL     1      -4.838  12.243  18.232  0.00  0.00    +0.000 OA
ENDBRANCH  18  25
BRANCH  23  26
ATOM     26  O   UNL     1      -4.684  10.552  15.805  0.00  0.00    +0.000 OA
ATOM     27  H   UNL     1      -5.287  11.312  15.901  0.00  0.00    +0.000 HD
ENDBRANCH  23  26
ENDBRANCH   1  20
TORSDOF 3
ENDMDL
MODEL 5
REMARK VINA RESULT:      -6.9      4.143      8.041
REMARK  Name = 
REMARK  4 active torsions:
REMARK  status: ('A' for Active; 'I' for Inactive)
REMARK    1  A    between atoms: C_1  and  O_2
REMARK    2  A    between atoms: O_2  and  C_3
REMARK    3  A    between atoms: C_5  and  C_6
REMARK    4  A    between atoms: C_24  and  O_25
REMARK                            x       y       z     vdW  Elec       q    Type
REMARK                         _______ _______ _______ _____ _____    ______ ____
ROOT
ATOM      1  C   UNL     1       2.865   6.073  18.242  0.00  0.00    +0.000 C 
ATOM      2  C   UNL     1       2.217   4.879  18.970  0.00  0.00    +0.000 C 
ATOM      3  C   UNL     1       1.982   5.119  20.461  0.00  0.00    +0.000 C 
ATOM      4  O   UNL     1       2.044   4.203  21.279  0.00  0.00    +0.000 OA
ATOM      5  N   UNL     1       1.570   6.375  20.834  0.00  0.00    +0.000 N 
ATOM      6  C   UNL     1       1.641   7.445  19.981  0.00  0.00    +0.000 A 
ATOM      7  N   UNL     1       1.243   8.694  20.353  0.00  0.00    +0.000 NA
ATOM      8  C   UNL     1       1.442   9.547  19.363  0.00  0.00    +0.000 A 
ATOM      9  N   UNL     1       1.230  10.890  19.457  0.00  0.00    +0.000 N 
ATOM     10  C   UNL     1       0.849  11.714  18.320  0.00  0.00    +0.000 C 
ATOM     11  C   UNL     1       1.773  12.928  18.254  0.00  0.00    +0.000 C 
ATOM     12  C   UNL     1       1.791  13.693  19.579  0.00  0.00    +0.000 C 
ATOM     13  C   UNL     1       2.048  12.765  20.769  0.00  0.00    +0.000 C 
ATOM     14  C   UNL     1       1.121  11.542  20.759  0.00  0.00    +0.000 C 
ATOM     15  S   UNL     1       2.100   8.799  17.921  0.00  0.00    +0.000 S 
ATOM     16  C   UNL     1       2.209   7.323  18.741  0.00  0.00    +0.000 A 
ATOM     17  H   UNL     1       1.290   6.546  21.789  0.00  0.00    +0.000 HD
ENDROOT
BRANCH   1  20
ATOM     18  C   UNL     1       6.628   6.910  17.831  0.00  0.00    +0.000 A 
ATOM     19  C   UNL     1       5.233   6.920  17.679  0.00  0.00    +0.000 A 
ATOM     20  C   UNL     1       4.389   6.063  18.408  0.00  0.00    +0.000 A 
ATOM     21  C   UNL     1       4.986   5.195  19.336  0.00  0.00    +0.000 A 
ATOM     22  C   UNL     1       6.375   5.181  19.511  0.00  0.00    +0.000 A 
ATOM     23  C   UNL     1       7.193   6.030  18.760  0.00  0.00    +0.000 A 
BRANCH  18  25
ATOM     24  C   UNL     1       7.903   8.922  17.604  0.00  0.00    +0.000 C 
ATOM     25  O   UNL     1       7.263   7.802  17.010  0.00  0.00    +0.000 OA
ENDBRANCH  18  25
BRANCH  23  26
ATOM     26  O   UNL     1       8.544   5.969  18.953  0.00  0.00    +0.000 OA
ATOM     27  H   UNL     1       8.763   6.358  19.819  0.00  0.00    +0.000 HD
ENDBRANCH  23  26
ENDBRANCH   1  20
TORSDOF 3
ENDMDL
MODEL 6
REMARK VINA RESULT:      -6.9      1.168      1.287
REMARK  Name = 
REMARK  4 active torsions:
REMARK  status: ('A' for Active; 'I' for Inactive)
REMARK    1  A    between atoms: C_1  and  O_2
REMARK    2  A    between atoms: O_2  and  C_3
REMARK    3  A    between atoms: C_5  and  C_6
REMARK    4  A    between atoms: C_24  and  O_25
REMARK                            x       y       z     vdW  Elec       q    Type
REMARK                         _______ _______ _______ _____ _____    ______ ____
ROOT
ATOM      1  C   UNL     1      -0.405  12.094  18.632  0.00  0.00    +0.000 C 
ATOM      2  C   UNL     1      -0.276  13.225  19.670  0.00  0.00    +0.000 C 
ATOM      3  C   UNL     1      -0.386  12.749  21.118  0.00  0.00    +0.000 C 
ATOM      4  O   UNL     1      -0.877  13.459  21.994  0.00  0.00    +0.000 OA
ATOM      5  N   UNL     1       0.206  11.549  21.427  0.00  0.00    +0.000 N 
ATOM      6  C   UNL     1       0.619  10.673  20.457  0.00  0.00    +0.000 A 
ATOM      7  N   UNL     1       1.196   9.476  20.763  0.00  0.00    +0.000 NA
ATOM      8  C   UNL     1       1.473   8.811  19.654  0.00  0.00    +0.000 A 
ATOM      9  N   UNL     1       1.971   7.543  19.629  0.00  0.00    +0.000 N 
ATOM     10  C   UNL     1       2.820   7.046  18.557  0.00  0.00    +0.000 C 
ATOM     11  C   UNL     1       2.267   5.712  18.061  0.00  0.00    +0.000 C 
ATOM     12  C   UNL     1       2.090   4.716  19.207  0.00  0.00    +0.000 C 
ATOM     13  C   UNL     1       1.317   5.325  20.380  0.00  0.00    +0.000 C 
ATOM     14  C   UNL     1       1.892   6.683  20.806  0.00  0.00    +0.000 C 
ATOM     15  S   UNL     1       1.051   9.684  18.194  0.00  0.00    +0.000 S 
ATOM     16  C   UNL     1       0.381  10.922  19.133  0.00  0.00    +0.000 A 
ATOM     17  H   UNL     1       0.262  11.252  22.391  0.00  0.00    +0.000 HD
ENDROOT
BRANCH   1  20
ATOM     18  C   UNL     1      -3.621  10.729  16.953  0.00  0.00    +0.000 A 
ATOM     19  C   UNL     1      -2.275  11.019  17.221  0.00  0.00    +0.000 A 
ATOM     20  C   UNL     1      -1.875  11.776  18.338  0.00  0.00    +0.000 A 
ATOM     21  C   UNL     1      -2.877  12.221  19.215  0.00  0.00    +0.000 A 
ATOM     22  C   UNL     1      -4.224  11.929  18.971  0.00  0.00    +0.000 A 
ATOM     23  C   UNL     1      -4.596  11.191  17.843  0.00  0.00    +0.000 A 
BRANCH  18  25
ATOM     24  C   UNL     1      -2.913  10.246  14.719  0.00  0.00    +0.000 C 
ATOM     25  O   UNL     1      -3.795  10.004  15.805  0.00  0.00    +0.000 OA
ENDBRANCH  18  25
BRANCH  23  26
ATOM     26  O   UNL     1      -5.924  10.945  17.637  0.00  0.00    +0.000 OA
ATOM     27  H   UNL     1      -6.436  11.748  17.841  0.00  0.00    +0.000 HD
ENDBRANCH  23  26
ENDBRANCH   1  20
TORSDOF 3
ENDMDL
MODEL 7
REMARK VINA RESULT:      -6.9      3.671      6.809
REMARK  Name = 
REMARK  4 active torsions:
REMARK  status: ('A' for Active; 'I' for Inactive)
REMARK    1  A    between atoms: C_1  and  O_2
REMARK    2  A    between atoms: O_2  and  C_3
REMARK    3  A    between atoms: C_5  and  C_6
REMARK    4  A    between atoms: C_24  and  O_25
REMARK                            x       y       z     vdW  Elec       q    Type
REMARK                         _______ _______ _______ _____ _____    ______ ____
ROOT
ATOM      1  C   UNL     1      -0.238  10.949  19.637  0.00  0.00    +0.000 C 
ATOM      2  C   UNL     1       0.667   9.765  19.241  0.00  0.00    +0.000 C 
ATOM      3  C   UNL     1       1.526  10.032  18.005  0.00  0.00    +0.000 C 
ATOM      4  O   UNL     1       1.829   9.131  17.224  0.00  0.00    +0.000 OA
ATOM      5  N   UNL     1       2.054  11.293  17.872  0.00  0.00    +0.000 N 
ATOM      6  C   UNL     1       1.615  12.347  18.629  0.00  0.00    +0.000 A 
ATOM      7  N   UNL     1       2.131  13.601  18.490  0.00  0.00    +0.000 NA
ATOM      8  C   UNL     1       1.518  14.437  19.311  0.00  0.00    +0.000 A 
ATOM      9  N   UNL     1       1.745  15.780  19.344  0.00  0.00    +0.000 N 
ATOM     10  C   UNL     1       1.590  16.581  20.548  0.00  0.00    +0.000 C 
ATOM     11  C   UNL     1       0.726  17.798  20.228  0.00  0.00    +0.000 C 
ATOM     12  C   UNL     1       1.282  18.587  19.042  0.00  0.00    +0.000 C 
ATOM     13  C   UNL     1       1.572  17.683  17.841  0.00  0.00    +0.000 C 
ATOM     14  C   UNL     1       2.407  16.454  18.231  0.00  0.00    +0.000 C 
ATOM     15  S   UNL     1       0.301  13.665  20.310  0.00  0.00    +0.000 S 
ATOM     16  C   UNL     1       0.566  12.205  19.496  0.00  0.00    +0.000 A 
ATOM     17  H   UNL     1       2.721  11.480  17.137  0.00  0.00    +0.000 HD
ENDROOT
BRANCH   1  20
ATOM     18  C   UNL     1      -2.883  10.194  16.905  0.00  0.00    +0.000 A 
ATOM     19  C   UNL     1      -1.692  10.193  17.648  0.00  0.00    +0.000 A 
ATOM     20  C   UNL     1      -1.538  10.949  18.824  0.00  0.00    +0.000 A 
ATOM     21  C   UNL     1      -2.638  11.700  19.265  0.00  0.00    +0.000 A 
ATOM     22  C   UNL     1      -3.838  11.703  18.544  0.00  0.00    +0.000 A 
ATOM     23  C   UNL     1      -3.959  10.958  17.367  0.00  0.00    +0.000 A 
BRANCH  18  25
ATOM     24  C   UNL     1      -2.838  10.056  14.517  0.00  0.00    +0.000 C 
ATOM     25  O   UNL     1      -2.815   9.413  15.782  0.00  0.00    +0.000 OA
ENDBRANCH  18  25
BRANCH  23  26
ATOM     26  O   UNL     1      -5.144  11.003  16.688  0.00  0.00    +0.000 OA
ATOM     27  H   UNL     1      -5.881  10.920  17.320  0.00  0.00    +0.000 HD
ENDBRANCH  23  26
ENDBRANCH   1  20
TORSDOF 3
ENDMDL
MODEL 8
REMARK VINA RESULT:      -6.8      4.049      7.827
REMARK  Name = 
REMARK  4 active torsions:
REMARK  status: ('A' for Active; 'I' for Inactive)
REMARK    1  A    between atoms: C_1  and  O_2
REMARK    2  A    between atoms: O_2  and  C_3
REMARK    3  A    between atoms: C_5  and  C_6
REMARK    4  A    between atoms: C_24  and  O_25
REMARK                            x       y       z     vdW  Elec       q    Type
REMARK                         _______ _______ _______ _____ _____    ______ ____
ROOT
ATOM      1  C   UNL     1       2.303   5.963  17.961  0.00  0.00    +0.000 C 
ATOM      2  C   UNL     1       2.060   4.760  18.892  0.00  0.00    +0.000 C 
ATOM      3  C   UNL     1       2.400   5.034  20.357  0.00  0.00    +0.000 C 
ATOM      4  O   UNL     1       2.827   4.149  21.096  0.00  0.00    +0.000 OA
ATOM      5  N   UNL     1       2.084   6.277  20.848  0.00  0.00    +0.000 N 
ATOM      6  C   UNL     1       1.756   7.322  20.024  0.00  0.00    +0.000 A 
ATOM      7  N   UNL     1       1.454   8.559  20.511  0.00  0.00    +0.000 NA
ATOM      8  C   UNL     1       1.204   9.389  19.513  0.00  0.00    +0.000 A 
ATOM      9  N   UNL     1       0.961  10.721  19.670  0.00  0.00    +0.000 N 
ATOM     10  C   UNL     1       0.123  11.486  18.759  0.00  0.00    +0.000 C 
ATOM     11  C   UNL     1       0.874  12.746  18.334  0.00  0.00    +0.000 C 
ATOM     12  C   UNL     1       1.350  13.552  19.543  0.00  0.00    +0.000 C 
ATOM     13  C   UNL     1       2.101  12.679  20.551  0.00  0.00    +0.000 C 
ATOM     14  C   UNL     1       1.319  11.406  20.908  0.00  0.00    +0.000 C 
ATOM     15  S   UNL     1       1.305   8.633  17.935  0.00  0.00    +0.000 S 
ATOM     16  C   UNL     1       1.812   7.191  18.663  0.00  0.00    +0.000 A 
ATOM     17  H   UNL     1       2.181   6.463  21.836  0.00  0.00    +0.000 HD
ENDROOT
BRANCH   1  20
ATOM     18  C   UNL     1       5.765   5.056  16.469  0.00  0.00    +0.000 A 
ATOM     19  C   UNL     1       4.420   4.984  16.864  0.00  0.00    +0.000 A 
ATOM     20  C   UNL     1       3.772   6.041  17.528  0.00  0.00    +0.000 A 
ATOM     21  C   UNL     1       4.511   7.210  17.767  0.00  0.00    +0.000 A 
ATOM     22  C   UNL     1       5.850   7.306  17.368  0.00  0.00    +0.000 A 
ATOM     23  C   UNL     1       6.476   6.233  16.726  0.00  0.00    +0.000 A 
BRANCH  18  25
ATOM     24  C   UNL     1       6.235   3.872  14.444  0.00  0.00    +0.000 C 
ATOM     25  O   UNL     1       6.208   3.911  15.863  0.00  0.00    +0.000 OA
ENDBRANCH  18  25
BRANCH  23  26
ATOM     26  O   UNL     1       7.787   6.365  16.370  0.00  0.00    +0.000 OA
ATOM     27  H   UNL     1       8.124   7.221  16.691  0.00  0.00    +0.000 HD
ENDBRANCH  23  26
ENDBRANCH   1  20
TORSDOF 3
ENDMDL
MODEL 9
REMARK VINA RESULT:      -6.8      4.012      7.863
REMARK  Name = 
REMARK  4 active torsions:
REMARK  status: ('A' for Active; 'I' for Inactive)
REMARK    1  A    between atoms: C_1  and  O_2
REMARK    2  A    between atoms: O_2  and  C_3
REMARK    3  A    between atoms: C_5  and  C_6
REMARK    4  A    between atoms: C_24  and  O_25
REMARK                            x       y       z     vdW  Elec       q    Type
REMARK                         _______ _______ _______ _____ _____    ______ ____
ROOT
ATOM      1  C   UNL     1       2.411   5.893  18.305  0.00  0.00    +0.000 C 
ATOM      2  C   UNL     1       1.894   4.753  19.203  0.00  0.00    +0.000 C 
ATOM      3  C   UNL     1       1.968   5.064  20.698  0.00  0.00    +0.000 C 
ATOM      4  O   UNL     1       2.171   4.181  21.530  0.00  0.00    +0.000 OA
ATOM      5  N   UNL     1       1.669   6.347  21.085  0.00  0.00    +0.000 N 
ATOM      6  C   UNL     1       1.593   7.377  20.184  0.00  0.00    +0.000 A 
ATOM      7  N   UNL     1       1.308   8.653  20.568  0.00  0.00    +0.000 NA
ATOM      8  C   UNL     1       1.325   9.457  19.518  0.00  0.00    +0.000 A 
ATOM      9  N   UNL     1       1.168  10.809  19.589  0.00  0.00    +0.000 N 
ATOM     10  C   UNL     1       0.587  11.596  18.511  0.00  0.00    +0.000 C 
ATOM     11  C   UNL     1       1.508  12.775  18.206  0.00  0.00    +0.000 C 
ATOM     12  C   UNL     1       1.809  13.594  19.462  0.00  0.00    +0.000 C 
ATOM     13  C   UNL     1       2.277  12.710  20.620  0.00  0.00    +0.000 C 
ATOM     14  C   UNL     1       1.338  11.518  20.853  0.00  0.00    +0.000 C 
ATOM     15  S   UNL     1       1.663   8.627  18.011  0.00  0.00    +0.000 S 
ATOM     16  C   UNL     1       1.898   7.184  18.864  0.00  0.00    +0.000 A 
ATOM     17  H   UNL     1       1.590   6.567  22.067  0.00  0.00    +0.000 HD
ENDROOT
BRANCH   1  20
ATOM     18  C   UNL     1       5.985   5.991  16.806  0.00  0.00    +0.000 A 
ATOM     19  C   UNL     1       4.589   6.040  16.934  0.00  0.00    +0.000 A 
ATOM     20  C   UNL     1       3.937   5.840  18.165  0.00  0.00    +0.000 A 
ATOM     21  C   UNL     1       4.736   5.612  19.295  0.00  0.00    +0.000 A 
ATOM     22  C   UNL     1       6.132   5.573  19.190  0.00  0.00    +0.000 A 
ATOM     23  C   UNL     1       6.754   5.756  17.951  0.00  0.00    +0.000 A 
BRANCH  18  25
ATOM     24  C   UNL     1       6.582   5.046  14.691  0.00  0.00    +0.000 C 
ATOM     25  O   UNL     1       6.413   6.185  15.521  0.00  0.00    +0.000 OA
ENDBRANCH  18  25
BRANCH  23  26
ATOM     26  O   UNL     1       8.117   5.693  17.893  0.00  0.00    +0.000 OA
ATOM     27  H   UNL     1       8.458   6.496  17.458  0.00  0.00    +0.000 HD
ENDBRANCH  23  26
ENDBRANCH   1  20
TORSDOF 3
ENDMDL
