MODEL 1
REMARK VINA RESULT:      -6.7      0.000      0.000
REMARK  Name = 
REMARK  3 active torsions:
REMARK  status: ('A' for Active; 'I' for Inactive)
REMARK    1  A    between atoms: C_1  and  O_2
REMARK    2  A    between atoms: O_2  and  C_3
REMARK    3  A    between atoms: C_7  and  N_8
REMARK                            x       y       z     vdW  Elec       q    Type
REMARK                         _______ _______ _______ _____ _____    ______ ____
ROOT
ATOM      1  C   UNL     1       6.983   5.388  16.354  0.00  0.00    +0.000 A 
ATOM      2  C   UNL     1       7.536   6.421  17.103  0.00  0.00    +0.000 A 
ATOM      3  C   UNL     1       7.360   6.452  18.488  0.00  0.00    +0.000 A 
ATOM      4  C   UNL     1       6.601   5.463  19.124  0.00  0.00    +0.000 A 
ATOM      5  C   UNL     1       6.000   4.435  18.386  0.00  0.00    +0.000 A 
ATOM      6  C   UNL     1       6.248   4.400  17.008  0.00  0.00    +0.000 A 
ENDROOT
BRANCH   5   7
ATOM      7  N   UNL     1       5.197   3.483  19.034  0.00  0.00    +0.000 N 
ATOM      8  C   UNL     1       3.895   3.586  19.541  0.00  0.00    +0.000 A 
ATOM      9  N   UNL     1       3.107   4.625  19.221  0.00  0.00    +0.000 NA
ATOM     10  C   UNL     1       1.892   4.705  19.783  0.00  0.00    +0.000 A 
ATOM     11  C   UNL     1       1.417   3.776  20.665  0.00  0.00    +0.000 A 
ATOM     12  C   UNL     1       2.277   2.738  20.930  0.00  0.00    +0.000 A 
ATOM     13  N   UNL     1       3.509   2.620  20.388  0.00  0.00    +0.000 NA
ATOM     14  H   UNL     1       5.666   2.710  19.482  0.00  0.00    +0.000 HD
ENDBRANCH   5   7
BRANCH   1  16
ATOM     15  C   UNL     1       6.513   4.469  14.218  0.00  0.00    +0.000 C 
ATOM     16  O   UNL     1       7.214   5.431  15.004  0.00  0.00    +0.000 OA
ENDBRANCH   1  16
TORSDOF 2
ENDMDL
MODEL 2
REMARK VINA RESULT:      -6.6      1.268      2.207
REMARK  Name = 
REMARK  3 active torsions:
REMARK  status: ('A' for Active; 'I' for Inactive)
REMARK    1  A    between atoms: C_1  and  O_2
REMARK    2  A    between atoms: O_2  and  C_3
REMARK    3  A    between atoms: C_7  and  N_8
REMARK                            x       y       z     vdW  Elec       q    Type
REMARK                         _______ _______ _______ _____ _____    ______ ____
ROOT
ATOM      1  C   UNL     1       7.265   6.232  18.099  0.00  0.00    +0.000 A 
ATOM      2  C   UNL     1       7.141   6.117  16.718  0.00  0.00    +0.000 A 
ATOM      3  C   UNL     1       6.289   5.157  16.170  0.00  0.00    +0.000 A 
ATOM      4  C   UNL     1       5.580   4.285  17.005  0.00  0.00    +0.000 A 
ATOM      5  C   UNL     1       5.719   4.353  18.397  0.00  0.00    +0.000 A 
ATOM      6  C   UNL     1       6.535   5.368  18.915  0.00  0.00    +0.000 A 
ENDROOT
BRANCH   5   7
ATOM      7  N   UNL     1       5.043   3.436  19.216  0.00  0.00    +0.000 N 
ATOM      8  C   UNL     1       3.732   3.450  19.708  0.00  0.00    +0.000 A 
ATOM      9  N   UNL     1       2.815   4.293  19.209  0.00  0.00    +0.000 NA
ATOM     10  C   UNL     1       1.590   4.308  19.757  0.00  0.00    +0.000 A 
ATOM     11  C   UNL     1       1.233   3.500  20.800  0.00  0.00    +0.000 A 
ATOM     12  C   UNL     1       2.223   2.657  21.244  0.00  0.00    +0.000 A 
ATOM     13  N   UNL     1       3.468   2.612  20.722  0.00  0.00    +0.000 NA
ATOM     14  H   UNL     1       5.607   2.830  19.795  0.00  0.00    +0.000 HD
ENDBRANCH   5   7
BRANCH   1  16
ATOM     15  C   UNL     1       8.059   8.454  17.861  0.00  0.00    +0.000 C 
ATOM     16  O   UNL     1       8.115   7.206  18.549  0.00  0.00    +0.000 OA
ENDBRANCH   1  16
TORSDOF 2
ENDMDL
MODEL 3
REMARK VINA RESULT:      -6.6      1.484      2.606
REMARK  Name = 
REMARK  3 active torsions:
REMARK  status: ('A' for Active; 'I' for Inactive)
REMARK    1  A    between atoms: C_1  and  O_2
REMARK    2  A    between atoms: O_2  and  C_3
REMARK    3  A    between atoms: C_7  and  N_8
REMARK                            x       y       z     vdW  Elec       q    Type
REMARK                         _______ _______ _______ _____ _____    ______ ____
ROOT
ATOM      1  C   UNL     1       6.722   5.950  16.597  0.00  0.00    +0.000 A 
ATOM      2  C   UNL     1       6.941   4.833  15.798  0.00  0.00    +0.000 A 
ATOM      3  C   UNL     1       5.948   3.860  15.671  0.00  0.00    +0.000 A 
ATOM      4  C   UNL     1       4.742   3.988  16.370  0.00  0.00    +0.000 A 
ATOM      5  C   UNL     1       4.514   5.083  17.213  0.00  0.00    +0.000 A 
ATOM      6  C   UNL     1       5.507   6.070  17.270  0.00  0.00    +0.000 A 
ENDROOT
BRANCH   5   7
ATOM      7  N   UNL     1       3.322   5.167  17.949  0.00  0.00    +0.000 N 
ATOM      8  C   UNL     1       2.857   4.390  19.017  0.00  0.00    +0.000 A 
ATOM      9  N   UNL     1       3.677   3.556  19.677  0.00  0.00    +0.000 NA
ATOM     10  C   UNL     1       3.166   2.791  20.652  0.00  0.00    +0.000 A 
ATOM     11  C   UNL     1       1.847   2.822  21.008  0.00  0.00    +0.000 A 
ATOM     12  C   UNL     1       1.077   3.710  20.296  0.00  0.00    +0.000 A 
ATOM     13  N   UNL     1       1.551   4.497  19.306  0.00  0.00    +0.000 NA
ATOM     14  H   UNL     1       2.539   5.628  17.510  0.00  0.00    +0.000 HD
ENDBRANCH   5   7
BRANCH   1  16
ATOM     15  C   UNL     1       7.664   7.826  17.702  0.00  0.00    +0.000 C 
ATOM     16  O   UNL     1       7.746   6.858  16.657  0.00  0.00    +0.000 OA
ENDBRANCH   1  16
TORSDOF 2
ENDMDL
MODEL 4
REMARK VINA RESULT:      -6.5      1.121      2.178
REMARK  Name = 
REMARK  3 active torsions:
REMARK  status: ('A' for Active; 'I' for Inactive)
REMARK    1  A    between atoms: C_1  and  O_2
REMARK    2  A    between atoms: O_2  and  C_3
REMARK    3  A    between atoms: C_7  and  N_8
REMARK                            x       y       z     vdW  Elec       q    Type
REMARK                         _______ _______ _______ _____ _____    ______ ____
ROOT
ATOM      1  C   UNL     1       6.753   5.701  16.669  0.00  0.00    +0.000 A 
ATOM      2  C   UNL     1       6.241   5.401  15.411  0.00  0.00    +0.000 A 
ATOM      3  C   UNL     1       5.230   4.446  15.278  0.00  0.00    +0.000 A 
ATOM      4  C   UNL     1       4.750   3.766  16.404  0.00  0.00    +0.000 A 
ATOM      5  C   UNL     1       5.279   4.022  17.675  0.00  0.00    +0.000 A 
ATOM      6  C   UNL     1       6.248   5.028  17.780  0.00  0.00    +0.000 A 
ENDROOT
BRANCH   5   7
ATOM      7  N   UNL     1       4.825   3.291  18.785  0.00  0.00    +0.000 N 
ATOM      8  C   UNL     1       3.589   3.313  19.442  0.00  0.00    +0.000 A 
ATOM      9  N   UNL     1       2.520   3.908  18.890  0.00  0.00    +0.000 NA
ATOM     10  C   UNL     1       1.376   3.952  19.589  0.00  0.00    +0.000 A 
ATOM     11  C   UNL     1       1.248   3.414  20.839  0.00  0.00    +0.000 A 
ATOM     12  C   UNL     1       2.381   2.812  21.328  0.00  0.00    +0.000 A 
ATOM     13  N   UNL     1       3.553   2.747  20.658  0.00  0.00    +0.000 NA
ATOM     14  H   UNL     1       5.524   2.913  19.406  0.00  0.00    +0.000 HD
ENDBRANCH   5   7
BRANCH   1  16
ATOM     15  C   UNL     1       7.513   7.747  17.599  0.00  0.00    +0.000 C 
ATOM     16  O   UNL     1       7.735   6.656  16.707  0.00  0.00    +0.000 OA
ENDBRANCH   1  16
TORSDOF 2
ENDMDL
MODEL 5
REMARK VINA RESULT:      -6.3      1.349      1.749
REMARK  Name = 
REMARK  3 active torsions:
REMARK  status: ('A' for Active; 'I' for Inactive)
REMARK    1  A    between atoms: C_1  and  O_2
REMARK    2  A    between atoms: O_2  and  C_3
REMARK    3  A    between atoms: C_7  and  N_8
REMARK                            x       y       z     vdW  Elec       q    Type
REMARK                         _______ _______ _______ _____ _____    ______ ____
ROOT
ATOM      1  C   UNL     1       5.739   4.733  15.664  0.00  0.00    +0.000 A 
ATOM      2  C   UNL     1       7.084   4.620  15.998  0.00  0.00    +0.000 A 
ATOM      3  C   UNL     1       7.478   4.668  17.336  0.00  0.00    +0.000 A 
ATOM      4  C   UNL     1       6.527   4.862  18.345  0.00  0.00    +0.000 A 
ATOM      5  C   UNL     1       5.171   5.020  18.031  0.00  0.00    +0.000 A 
ATOM      6  C   UNL     1       4.804   4.906  16.683  0.00  0.00    +0.000 A 
ENDROOT
BRANCH   5   7
ATOM      7  N   UNL     1       4.238   5.268  19.050  0.00  0.00    +0.000 N 
ATOM      8  C   UNL     1       3.217   4.460  19.564  0.00  0.00    +0.000 A 
ATOM      9  N   UNL     1       3.164   3.148  19.283  0.00  0.00    +0.000 NA
ATOM     10  C   UNL     1       2.131   2.432  19.752  0.00  0.00    +0.000 A 
ATOM     11  C   UNL     1       1.130   2.978  20.505  0.00  0.00    +0.000 A 
ATOM     12  C   UNL     1       1.263   4.321  20.759  0.00  0.00    +0.000 A 
ATOM     13  N   UNL     1       2.286   5.079  20.306  0.00  0.00    +0.000 NA
ATOM     14  H   UNL     1       4.038   6.233  19.267  0.00  0.00    +0.000 HD
ENDBRANCH   5   7
BRANCH   1  16
ATOM     15  C   UNL     1       6.297   3.845  13.537  0.00  0.00    +0.000 C 
ATOM     16  O   UNL     1       5.441   4.666  14.328  0.00  0.00    +0.000 OA
ENDBRANCH   1  16
TORSDOF 2
ENDMDL
MODEL 6
REMARK VINA RESULT:      -6.3      1.726      2.730
REMARK  Name = 
REMARK  3 active torsions:
REMARK  status: ('A' for Active; 'I' for Inactive)
REMARK    1  A    between atoms: C_1  and  O_2
REMARK    2  A    between atoms: O_2  and  C_3
REMARK    3  A    between atoms: C_7  and  N_8
REMARK                            x       y       z     vdW  Elec       q    Type
REMARK                         _______ _______ _______ _____ _____    ______ ____
ROOT
ATOM      1  C   UNL     1       6.927   4.577  17.475  0.00  0.00    +0.000 A 
ATOM      2  C   UNL     1       7.283   4.929  16.178  0.00  0.00    +0.000 A 
ATOM      3  C   UNL     1       6.338   4.867  15.152  0.00  0.00    +0.000 A 
ATOM      4  C   UNL     1       5.038   4.420  15.418  0.00  0.00    +0.000 A 
ATOM      5  C   UNL     1       4.666   4.021  16.708  0.00  0.00    +0.000 A 
ATOM      6  C   UNL     1       5.622   4.155  17.724  0.00  0.00    +0.000 A 
ENDROOT
BRANCH   5   7
ATOM      7  N   UNL     1       3.375   3.524  16.945  0.00  0.00    +0.000 N 
ATOM      8  C   UNL     1       2.533   3.676  18.053  0.00  0.00    +0.000 A 
ATOM      9  N   UNL     1       2.787   4.596  18.997  0.00  0.00    +0.000 NA
ATOM     10  C   UNL     1       1.982   4.658  20.067  0.00  0.00    +0.000 A 
ATOM     11  C   UNL     1       0.910   3.828  20.240  0.00  0.00    +0.000 A 
ATOM     12  C   UNL     1       0.709   2.924  19.226  0.00  0.00    +0.000 A 
ATOM     13  N   UNL     1       1.496   2.827  18.132  0.00  0.00    +0.000 NA
ATOM     14  H   UNL     1       3.090   2.710  16.421  0.00  0.00    +0.000 HD
ENDBRANCH   5   7
BRANCH   1  16
ATOM     15  C   UNL     1       7.827   5.797  19.300  0.00  0.00    +0.000 C 
ATOM     16  O   UNL     1       7.914   4.677  18.420  0.00  0.00    +0.000 OA
ENDBRANCH   1  16
TORSDOF 2
ENDMDL
MODEL 7
REMARK VINA RESULT:      -6.2      2.918      5.859
REMARK  Name = 
REMARK  3 active torsions:
REMARK  status: ('A' for Active; 'I' for Inactive)
REMARK    1  A    between atoms: C_1  and  O_2
REMARK    2  A    between atoms: O_2  and  C_3
REMARK    3  A    between atoms: C_7  and  N_8
REMARK                            x       y       z     vdW  Elec       q    Type
REMARK                         _______ _______ _______ _____ _____    ______ ____
ROOT
ATOM      1  C   UNL     1       2.130   2.667  19.562  0.00  0.00    +0.000 A 
ATOM      2  C   UNL     1       1.910   2.370  18.221  0.00  0.00    +0.000 A 
ATOM      3  C   UNL     1       2.901   2.637  17.274  0.00  0.00    +0.000 A 
ATOM      4  C   UNL     1       4.106   3.233  17.664  0.00  0.00    +0.000 A 
ATOM      5  C   UNL     1       4.335   3.579  19.002  0.00  0.00    +0.000 A 
ATOM      6  C   UNL     1       3.345   3.241  19.934  0.00  0.00    +0.000 A 
ENDROOT
BRANCH   5   7
ATOM      7  N   UNL     1       5.526   4.225  19.366  0.00  0.00    +0.000 N 
ATOM      8  C   UNL     1       6.176   5.325  18.791  0.00  0.00    +0.000 A 
ATOM      9  N   UNL     1       5.553   6.107  17.896  0.00  0.00    +0.000 NA
ATOM     10  C   UNL     1       6.241   7.110  17.331  0.00  0.00    +0.000 A 
ATOM     11  C   UNL     1       7.548   7.375  17.629  0.00  0.00    +0.000 A 
ATOM     12  C   UNL     1       8.109   6.540  18.564  0.00  0.00    +0.000 A 
ATOM     13  N   UNL     1       7.453   5.517  19.155  0.00  0.00    +0.000 NA
ATOM     14  H   UNL     1       6.191   3.697  19.912  0.00  0.00    +0.000 HD
ENDBRANCH   5   7
BRANCH   1  16
ATOM     15  C   UNL     1       1.333   2.676  21.796  0.00  0.00    +0.000 C 
ATOM     16  O   UNL     1       1.108   2.364  20.422  0.00  0.00    +0.000 OA
ENDBRANCH   1  16
TORSDOF 2
ENDMDL
MODEL 8
REMARK VINA RESULT:      -6.1      1.745      2.200
REMARK  Name = 
REMARK  3 active torsions:
REMARK  status: ('A' for Active; 'I' for Inactive)
REMARK    1  A    between atoms: C_1  and  O_2
REMARK    2  A    between atoms: O_2  and  C_3
REMARK    3  A    between atoms: C_7  and  N_8
REMARK                            x       y       z     vdW  Elec       q    Type
REMARK                         _______ _______ _______ _____ _____    ______ ____
ROOT
ATOM      1  C   UNL     1       5.459   4.462  15.923  0.00  0.00    +0.000 A 
ATOM      2  C   UNL     1       6.026   5.732  15.933  0.00  0.00    +0.000 A 
ATOM      3  C   UNL     1       5.478   6.735  16.735  0.00  0.00    +0.000 A 
ATOM      4  C   UNL     1       4.339   6.478  17.506  0.00  0.00    +0.000 A 
ATOM      5  C   UNL     1       3.726   5.219  17.481  0.00  0.00    +0.000 A 
ATOM      6  C   UNL     1       4.337   4.219  16.714  0.00  0.00    +0.000 A 
ENDROOT
BRANCH   5   7
ATOM      7  N   UNL     1       2.552   4.994  18.218  0.00  0.00    +0.000 N 
ATOM      8  C   UNL     1       2.327   4.199  19.348  0.00  0.00    +0.000 A 
ATOM      9  N   UNL     1       3.350   3.708  20.065  0.00  0.00    +0.000 NA
ATOM     10  C   UNL     1       3.079   2.903  21.103  0.00  0.00    +0.000 A 
ATOM     11  C   UNL     1       1.807   2.560  21.466  0.00  0.00    +0.000 A 
ATOM     12  C   UNL     1       0.816   3.113  20.691  0.00  0.00    +0.000 A 
ATOM     13  N   UNL     1       1.045   3.927  19.638  0.00  0.00    +0.000 NA
ATOM     14  H   UNL     1       1.674   5.160  17.750  0.00  0.00    +0.000 HD
ENDBRANCH   5   7
BRANCH   1  16
ATOM     15  C   UNL     1       6.231   3.910  13.749  0.00  0.00    +0.000 C 
ATOM     16  O   UNL     1       6.067   3.537  15.116  0.00  0.00    +0.000 OA
ENDBRANCH   1  16
TORSDOF 2
ENDMDL
MODEL 9
REMARK VINA RESULT:      -6.1      2.963      6.033
REMARK  Name = 
REMARK  3 active torsions:
REMARK  status: ('A' for Active; 'I' for Inactive)
REMARK    1  A    between atoms: C_1  and  O_2
REMARK    2  A    between atoms: O_2  and  C_3
REMARK    3  A    between atoms: C_7  and  N_8
REMARK                            x       y       z     vdW  Elec       q    Type
REMARK                         _______ _______ _______ _____ _____    ______ ____
ROOT
ATOM      1  C   UNL     1       2.453   3.744  19.840  0.00  0.00    +0.000 A 
ATOM      2  C   UNL     1       1.990   2.655  19.110  0.00  0.00    +0.000 A 
ATOM      3  C   UNL     1       2.420   2.460  17.796  0.00  0.00    +0.000 A 
ATOM      4  C   UNL     1       3.292   3.377  17.196  0.00  0.00    +0.000 A 
ATOM      5  C   UNL     1       3.740   4.504  17.897  0.00  0.00    +0.000 A 
ATOM      6  C   UNL     1       3.337   4.635  19.233  0.00  0.00    +0.000 A 
ENDROOT
BRANCH   5   7
ATOM      7  N   UNL     1       4.570   5.441  17.262  0.00  0.00    +0.000 N 
ATOM      8  C   UNL     1       5.807   5.969  17.651  0.00  0.00    +0.000 A 
ATOM      9  N   UNL     1       6.519   5.409  18.642  0.00  0.00    +0.000 NA
ATOM     10  C   UNL     1       7.669   5.991  19.015  0.00  0.00    +0.000 A 
ATOM     11  C   UNL     1       8.151   7.128  18.429  0.00  0.00    +0.000 A 
ATOM     12  C   UNL     1       7.372   7.631  17.416  0.00  0.00    +0.000 A 
ATOM     13  N   UNL     1       6.208   7.078  17.010  0.00  0.00    +0.000 NA
ATOM     14  H   UNL     1       4.138   6.065  16.597  0.00  0.00    +0.000 HD
ENDBRANCH   5   7
BRANCH   1  16
ATOM     15  C   UNL     1       1.417   2.671  21.684  0.00  0.00    +0.000 C 
ATOM     16  O   UNL     1       1.987   3.852  21.123  0.00  0.00    +0.000 OA
ENDBRANCH   1  16
TORSDOF 2
ENDMDL
