MODEL 1
REMARK VINA RESULT:      -9.0      0.000      0.000
REMARK  Name = 
REMARK  6 active torsions:
REMARK  status: ('A' for Active; 'I' for Inactive)
REMARK    1  A    between atoms: C_2  and  C_15
REMARK    2  A    between atoms: N_3  and  C_4
REMARK    3  A    between atoms: C_4  and  C_5
REMARK    4  A    between atoms: C_10  and  C_11
REMARK    5  A    between atoms: N_22  and  C_23
REMARK    6  A    between atoms: C_23  and  C_24
REMARK                            x       y       z     vdW  Elec       q    Type
REMARK                         _______ _______ _______ _____ _____    ______ ____
ROOT
ATOM      1  C   UNL     1       2.273   4.649  19.059  0.00  0.00    +0.000 A 
ATOM      2  C   UNL     1       1.967   5.123  20.348  0.00  0.00    +0.000 A 
ATOM      3  C   UNL     1       1.668   6.479  20.596  0.00  0.00    +0.000 A 
ATOM      4  C   UNL     1       1.871   7.371  19.537  0.00  0.00    +0.000 A 
ATOM      5  C   UNL     1       2.212   6.918  18.260  0.00  0.00    +0.000 A 
ATOM      6  C   UNL     1       2.432   8.080  17.501  0.00  0.00    +0.000 A 
ATOM      7  N   UNL     1       2.307   9.188  18.222  0.00  0.00    +0.000 NA
ATOM      8  N   UNL     1       1.796   8.742  19.390  0.00  0.00    +0.000 N 
ATOM      9  C   UNL     1       2.313   5.547  17.991  0.00  0.00    +0.000 A 
ENDROOT
BRANCH   1  11
ATOM     10  O   UNL     1       1.873   2.366  18.611  0.00  0.00    +0.000 OA
ATOM     11  C   UNL     1       2.717   3.254  18.739  0.00  0.00    +0.000 C 
ATOM     12  N   UNL     1       4.041   2.927  18.602  0.00  0.00    +0.000 N 
ATOM     13  H   UNL     1       4.191   1.976  18.280  0.00  0.00    +0.000 HD
BRANCH  12  14
ATOM     14  C   UNL     1       5.154   3.809  18.769  0.00  0.00    +0.000 C 
BRANCH  14  15
ATOM     15  C   UNL     1       5.700   4.362  17.490  0.00  0.00    +0.000 A 
ATOM     16  C   UNL     1       5.095   3.914  16.293  0.00  0.00    +0.000 A 
ATOM     17  C   UNL     1       5.654   4.200  15.056  0.00  0.00    +0.000 A 
ATOM     18  C   UNL     1       6.799   4.972  14.989  0.00  0.00    +0.000 A 
ATOM     19  C   UNL     1       7.373   5.483  16.163  0.00  0.00    +0.000 A 
ATOM     20  C   UNL     1       6.831   5.201  17.430  0.00  0.00    +0.000 A 
BRANCH  20  21
ATOM     21  C   UNL     1       7.542   5.772  18.643  0.00  0.00    +0.000 C 
ATOM     22  F   UNL     1       8.129   6.986  18.457  0.00  0.00    +0.000 F 
ATOM     23  F   UNL     1       6.696   5.934  19.699  0.00  0.00    +0.000 F 
ATOM     24  F   UNL     1       8.541   4.959  19.090  0.00  0.00    +0.000 F 
ENDBRANCH  20  21
ENDBRANCH  14  15
ENDBRANCH  12  14
ENDBRANCH   1  11
BRANCH   8  25
ATOM     25  C   UNL     1       1.073   9.717  20.195  0.00  0.00    +0.000 C 
BRANCH  25  26
ATOM     26  C   UNL     1       0.058  10.429  19.329  0.00  0.00    +0.000 A 
ATOM     27  C   UNL     1       0.130  11.814  19.134  0.00  0.00    +0.000 A 
ATOM     28  C   UNL     1      -0.839  12.470  18.371  0.00  0.00    +0.000 A 
ATOM     29  C   UNL     1      -1.892  11.751  17.805  0.00  0.00    +0.000 A 
ATOM     30  C   UNL     1      -1.976  10.382  18.013  0.00  0.00    +0.000 A 
ATOM     31  F   UNL     1      -2.996   9.693  17.477  0.00  0.00    +0.000 F 
ATOM     32  C   UNL     1      -1.017   9.717  18.763  0.00  0.00    +0.000 A 
ENDBRANCH  25  26
ENDBRANCH   8  25
TORSDOF 6
ENDMDL
MODEL 2
REMARK VINA RESULT:      -9.0      0.891      1.415
REMARK  Name = 
REMARK  6 active torsions:
REMARK  status: ('A' for Active; 'I' for Inactive)
REMARK    1  A    between atoms: C_2  and  C_15
REMARK    2  A    between atoms: N_3  and  C_4
REMARK    3  A    between atoms: C_4  and  C_5
REMARK    4  A    between atoms: C_10  and  C_11
REMARK    5  A    between atoms: N_22  and  C_23
REMARK    6  A    between atoms: C_23  and  C_24
REMARK                            x       y       z     vdW  Elec       q    Type
REMARK                         _______ _______ _______ _____ _____    ______ ____
ROOT
ATOM      1  C   UNL     1       2.177   4.757  19.151  0.00  0.00    +0.000 A 
ATOM      2  C   UNL     1       1.902   5.237  20.445  0.00  0.00    +0.000 A 
ATOM      3  C   UNL     1       1.625   6.596  20.696  0.00  0.00    +0.000 A 
ATOM      4  C   UNL     1       1.819   7.484  19.633  0.00  0.00    +0.000 A 
ATOM      5  C   UNL     1       2.130   7.026  18.350  0.00  0.00    +0.000 A 
ATOM      6  C   UNL     1       2.350   8.184  17.586  0.00  0.00    +0.000 A 
ATOM      7  N   UNL     1       2.253   9.294  18.307  0.00  0.00    +0.000 NA
ATOM      8  N   UNL     1       1.759   8.856  19.485  0.00  0.00    +0.000 N 
ATOM      9  C   UNL     1       2.209   5.653  18.082  0.00  0.00    +0.000 A 
ENDROOT
BRANCH   1  11
ATOM     10  O   UNL     1       1.739   2.480  18.707  0.00  0.00    +0.000 OA
ATOM     11  C   UNL     1       2.597   3.356  18.825  0.00  0.00    +0.000 C 
ATOM     12  N   UNL     1       3.915   3.010  18.672  0.00  0.00    +0.000 N 
ATOM     13  H   UNL     1       4.048   2.057  18.347  0.00  0.00    +0.000 HD
BRANCH  12  14
ATOM     14  C   UNL     1       5.043   3.876  18.825  0.00  0.00    +0.000 C 
BRANCH  14  15
ATOM     15  C   UNL     1       5.597   4.400  17.538  0.00  0.00    +0.000 A 
ATOM     16  C   UNL     1       4.939   4.002  16.351  0.00  0.00    +0.000 A 
ATOM     17  C   UNL     1       5.490   4.259  15.104  0.00  0.00    +0.000 A 
ATOM     18  C   UNL     1       6.682   4.953  15.018  0.00  0.00    +0.000 A 
ATOM     19  C   UNL     1       7.313   5.417  16.182  0.00  0.00    +0.000 A 
ATOM     20  C   UNL     1       6.780   5.162  17.458  0.00  0.00    +0.000 A 
BRANCH  20  21
ATOM     21  C   UNL     1       7.553   5.677  18.660  0.00  0.00    +0.000 C 
ATOM     22  F   UNL     1       6.820   5.847  19.794  0.00  0.00    +0.000 F 
ATOM     23  F   UNL     1       8.572   4.842  19.005  0.00  0.00    +0.000 F 
ATOM     24  F   UNL     1       8.130   6.889  18.424  0.00  0.00    +0.000 F 
ENDBRANCH  20  21
ENDBRANCH  14  15
ENDBRANCH  12  14
ENDBRANCH   1  11
BRANCH   8  25
ATOM     25  C   UNL     1       1.064   9.841  20.302  0.00  0.00    +0.000 C 
BRANCH  25  26
ATOM     26  C   UNL     1       0.039  10.563  19.455  0.00  0.00    +0.000 A 
ATOM     27  C   UNL     1      -1.036   9.869  18.887  0.00  0.00    +0.000 A 
ATOM     28  C   UNL     1      -1.951  10.534  18.067  0.00  0.00    +0.000 A 
ATOM     29  C   UNL     1      -1.795  11.895  17.802  0.00  0.00    +0.000 A 
ATOM     30  C   UNL     1      -0.720  12.580  18.347  0.00  0.00    +0.000 A 
ATOM     31  F   UNL     1      -0.563  13.887  18.082  0.00  0.00    +0.000 F 
ATOM     32  C   UNL     1       0.194  11.933  19.168  0.00  0.00    +0.000 A 
ENDBRANCH  25  26
ENDBRANCH   8  25
TORSDOF 6
ENDMDL
MODEL 3
REMARK VINA RESULT:      -9.0      0.693      1.036
REMARK  Name = 
REMARK  6 active torsions:
REMARK  status: ('A' for Active; 'I' for Inactive)
REMARK    1  A    between atoms: C_2  and  C_15
REMARK    2  A    between atoms: N_3  and  C_4
REMARK    3  A    between atoms: C_4  and  C_5
REMARK    4  A    between atoms: C_10  and  C_11
REMARK    5  A    between atoms: N_22  and  C_23
REMARK    6  A    between atoms: C_23  and  C_24
REMARK                            x       y       z     vdW  Elec       q    Type
REMARK                         _______ _______ _______ _____ _____    ______ ____
ROOT
ATOM      1  C   UNL     1       2.594   4.851  19.167  0.00  0.00    +0.000 A 
ATOM      2  C   UNL     1       2.207   5.326  20.433  0.00  0.00    +0.000 A 
ATOM      3  C   UNL     1       1.772   6.652  20.635  0.00  0.00    +0.000 A 
ATOM      4  C   UNL     1       1.919   7.533  19.558  0.00  0.00    +0.000 A 
ATOM      5  C   UNL     1       2.339   7.083  18.304  0.00  0.00    +0.000 A 
ATOM      6  C   UNL     1       2.468   8.242  17.519  0.00  0.00    +0.000 A 
ATOM      7  N   UNL     1       2.217   9.350  18.206  0.00  0.00    +0.000 NA
ATOM      8  N   UNL     1       1.717   8.886  19.371  0.00  0.00    +0.000 N 
ATOM      9  C   UNL     1       2.579   5.722  18.076  0.00  0.00    +0.000 A 
ENDROOT
BRANCH   1  11
ATOM     10  O   UNL     1       2.470   2.498  19.023  0.00  0.00    +0.000 OA
ATOM     11  C   UNL     1       3.179   3.498  18.897  0.00  0.00    +0.000 C 
ATOM     12  N   UNL     1       4.490   3.333  18.533  0.00  0.00    +0.000 N 
ATOM     13  H   UNL     1       4.721   2.378  18.278  0.00  0.00    +0.000 HD
BRANCH  12  14
ATOM     14  C   UNL     1       5.468   4.367  18.393  0.00  0.00    +0.000 C 
BRANCH  14  15
ATOM     15  C   UNL     1       5.885   4.635  16.982  0.00  0.00    +0.000 A 
ATOM     16  C   UNL     1       5.432   3.723  16.000  0.00  0.00    +0.000 A 
ATOM     17  C   UNL     1       5.928   3.759  14.704  0.00  0.00    +0.000 A 
ATOM     18  C   UNL     1       6.848   4.731  14.355  0.00  0.00    +0.000 A 
ATOM     19  C   UNL     1       7.255   5.686  15.297  0.00  0.00    +0.000 A 
ATOM     20  C   UNL     1       6.775   5.666  16.620  0.00  0.00    +0.000 A 
BRANCH  20  21
ATOM     21  C   UNL     1       7.299   6.723  17.575  0.00  0.00    +0.000 C 
ATOM     22  F   UNL     1       8.047   6.253  18.610  0.00  0.00    +0.000 F 
ATOM     23  F   UNL     1       8.087   7.637  16.941  0.00  0.00    +0.000 F 
ATOM     24  F   UNL     1       6.295   7.438  18.158  0.00  0.00    +0.000 F 
ENDBRANCH  20  21
ENDBRANCH  14  15
ENDBRANCH  12  14
ENDBRANCH   1  11
BRANCH   8  25
ATOM     25  C   UNL     1       0.881   9.806  20.129  0.00  0.00    +0.000 C 
BRANCH  25  26
ATOM     26  C   UNL     1      -0.135  10.438  19.205  0.00  0.00    +0.000 A 
ATOM     27  C   UNL     1      -0.133  11.820  18.977  0.00  0.00    +0.000 A 
ATOM     28  C   UNL     1      -1.105  12.401  18.159  0.00  0.00    +0.000 A 
ATOM     29  C   UNL     1      -2.092  11.610  17.570  0.00  0.00    +0.000 A 
ATOM     30  C   UNL     1      -2.108  10.244  17.810  0.00  0.00    +0.000 A 
ATOM     31  F   UNL     1      -3.064   9.485  17.252  0.00  0.00    +0.000 F 
ATOM     32  C   UNL     1      -1.145   9.653  18.616  0.00  0.00    +0.000 A 
ENDBRANCH  25  26
ENDBRANCH   8  25
TORSDOF 6
ENDMDL
MODEL 4
REMARK VINA RESULT:      -9.0      4.106      9.207
REMARK  Name = 
REMARK  6 active torsions:
REMARK  status: ('A' for Active; 'I' for Inactive)
REMARK    1  A    between atoms: C_2  and  C_15
REMARK    2  A    between atoms: N_3  and  C_4
REMARK    3  A    between atoms: C_4  and  C_5
REMARK    4  A    between atoms: C_10  and  C_11
REMARK    5  A    between atoms: N_22  and  C_23
REMARK    6  A    between atoms: C_23  and  C_24
REMARK                            x       y       z     vdW  Elec       q    Type
REMARK                         _______ _______ _______ _____ _____    ______ ____
ROOT
ATOM      1  C   UNL     1       0.189  10.372  21.298  0.00  0.00    +0.000 A 
ATOM      2  C   UNL     1       0.466   9.141  21.920  0.00  0.00    +0.000 A 
ATOM      3  C   UNL     1       1.247   8.146  21.297  0.00  0.00    +0.000 A 
ATOM      4  C   UNL     1       1.582   8.358  19.955  0.00  0.00    +0.000 A 
ATOM      5  C   UNL     1       1.280   9.561  19.312  0.00  0.00    +0.000 A 
ATOM      6  C   UNL     1       1.665   9.373  17.974  0.00  0.00    +0.000 A 
ATOM      7  N   UNL     1       2.118   8.146  17.744  0.00  0.00    +0.000 NA
ATOM      8  N   UNL     1       2.226   7.618  18.982  0.00  0.00    +0.000 N 
ATOM      9  C   UNL     1       0.674  10.612  20.011  0.00  0.00    +0.000 A 
ENDROOT
BRANCH   1  11
ATOM     10  O   UNL     1      -0.723  11.662  23.052  0.00  0.00    +0.000 OA
ATOM     11  C   UNL     1      -0.728  11.424  21.843  0.00  0.00    +0.000 C 
ATOM     12  N   UNL     1      -1.593  12.120  21.039  0.00  0.00    +0.000 N 
ATOM     13  H   UNL     1      -2.075  12.874  21.521  0.00  0.00    +0.000 HD
BRANCH  12  14
ATOM     14  C   UNL     1      -1.775  11.940  19.632  0.00  0.00    +0.000 C 
BRANCH  14  15
ATOM     15  C   UNL     1      -3.204  11.930  19.192  0.00  0.00    +0.000 A 
ATOM     16  C   UNL     1      -4.134  12.592  20.027  0.00  0.00    +0.000 A 
ATOM     17  C   UNL     1      -5.500  12.466  19.821  0.00  0.00    +0.000 A 
ATOM     18  C   UNL     1      -5.961  11.715  18.756  0.00  0.00    +0.000 A 
ATOM     19  C   UNL     1      -5.053  11.108  17.877  0.00  0.00    +0.000 A 
ATOM     20  C   UNL     1      -3.663  11.214  18.067  0.00  0.00    +0.000 A 
BRANCH  20  21
ATOM     21  C   UNL     1      -2.760  10.495  17.080  0.00  0.00    +0.000 C 
ATOM     22  F   UNL     1      -3.402   9.773  16.122  0.00  0.00    +0.000 F 
ATOM     23  F   UNL     1      -1.953  11.362  16.405  0.00  0.00    +0.000 F 
ATOM     24  F   UNL     1      -1.923   9.610  17.693  0.00  0.00    +0.000 F 
ENDBRANCH  20  21
ENDBRANCH  14  15
ENDBRANCH  12  14
ENDBRANCH   1  11
BRANCH   8  25
ATOM     25  C   UNL     1       3.153   6.506  19.134  0.00  0.00    +0.000 C 
BRANCH  25  26
ATOM     26  C   UNL     1       2.375   5.213  19.229  0.00  0.00    +0.000 A 
ATOM     27  C   UNL     1       1.887   4.585  18.076  0.00  0.00    +0.000 A 
ATOM     28  C   UNL     1       1.129   3.416  18.177  0.00  0.00    +0.000 A 
ATOM     29  C   UNL     1       0.844   2.870  19.429  0.00  0.00    +0.000 A 
ATOM     30  C   UNL     1       1.309   3.501  20.573  0.00  0.00    +0.000 A 
ATOM     31  F   UNL     1       1.025   2.981  21.778  0.00  0.00    +0.000 F 
ATOM     32  C   UNL     1       2.068   4.659  20.487  0.00  0.00    +0.000 A 
ENDBRANCH  25  26
ENDBRANCH   8  25
TORSDOF 6
ENDMDL
MODEL 5
REMARK VINA RESULT:      -9.0      1.119      1.836
REMARK  Name = 
REMARK  6 active torsions:
REMARK  status: ('A' for Active; 'I' for Inactive)
REMARK    1  A    between atoms: C_2  and  C_15
REMARK    2  A    between atoms: N_3  and  C_4
REMARK    3  A    between atoms: C_4  and  C_5
REMARK    4  A    between atoms: C_10  and  C_11
REMARK    5  A    between atoms: N_22  and  C_23
REMARK    6  A    between atoms: C_23  and  C_24
REMARK                            x       y       z     vdW  Elec       q    Type
REMARK                         _______ _______ _______ _____ _____    ______ ____
ROOT
ATOM      1  C   UNL     1       2.950   5.504  19.110  0.00  0.00    +0.000 A 
ATOM      2  C   UNL     1       2.765   6.254  17.935  0.00  0.00    +0.000 A 
ATOM      3  C   UNL     1       2.263   7.571  17.957  0.00  0.00    +0.000 A 
ATOM      4  C   UNL     1       1.778   8.038  19.184  0.00  0.00    +0.000 A 
ATOM      5  C   UNL     1       1.920   7.289  20.354  0.00  0.00    +0.000 A 
ATOM      6  C   UNL     1       1.236   8.014  21.344  0.00  0.00    +0.000 A 
ATOM      7  N   UNL     1       0.648   9.103  20.860  0.00  0.00    +0.000 NA
ATOM      8  N   UNL     1       1.139   9.188  19.605  0.00  0.00    +0.000 N 
ATOM      9  C   UNL     1       2.599   6.064  20.341  0.00  0.00    +0.000 A 
ENDROOT
BRANCH   1  11
ATOM     10  O   UNL     1       2.525   3.205  19.439  0.00  0.00    +0.000 OA
ATOM     11  C   UNL     1       3.362   4.064  19.157  0.00  0.00    +0.000 C 
ATOM     12  N   UNL     1       4.652   3.670  18.914  0.00  0.00    +0.000 N 
ATOM     13  H   UNL     1       4.766   2.662  18.872  0.00  0.00    +0.000 HD
BRANCH  12  14
ATOM     14  C   UNL     1       5.761   4.526  18.626  0.00  0.00    +0.000 C 
BRANCH  14  15
ATOM     15  C   UNL     1       6.027   4.722  17.168  0.00  0.00    +0.000 A 
ATOM     16  C   UNL     1       5.565   3.710  16.294  0.00  0.00    +0.000 A 
ATOM     17  C   UNL     1       5.938   3.690  14.958  0.00  0.00    +0.000 A 
ATOM     18  C   UNL     1       6.742   4.699  14.461  0.00  0.00    +0.000 A 
ATOM     19  C   UNL     1       7.153   5.748  15.297  0.00  0.00    +0.000 A 
ATOM     20  C   UNL     1       6.796   5.787  16.657  0.00  0.00    +0.000 A 
BRANCH  20  21
ATOM     21  C   UNL     1       7.316   6.947  17.488  0.00  0.00    +0.000 C 
ATOM     22  F   UNL     1       8.013   6.597  18.603  0.00  0.00    +0.000 F 
ATOM     23  F   UNL     1       8.150   7.753  16.772  0.00  0.00    +0.000 F 
ATOM     24  F   UNL     1       6.312   7.755  17.935  0.00  0.00    +0.000 F 
ENDBRANCH  20  21
ENDBRANCH  14  15
ENDBRANCH  12  14
ENDBRANCH   1  11
BRANCH   8  25
ATOM     25  C   UNL     1       1.110  10.505  18.987  0.00  0.00    +0.000 C 
BRANCH  25  26
ATOM     26  C   UNL     1      -0.317  10.865  18.638  0.00  0.00    +0.000 A 
ATOM     27  C   UNL     1      -0.946  11.961  19.240  0.00  0.00    +0.000 A 
ATOM     28  C   UNL     1      -2.279  12.258  18.947  0.00  0.00    +0.000 A 
ATOM     29  C   UNL     1      -2.997  11.458  18.057  0.00  0.00    +0.000 A 
ATOM     30  C   UNL     1      -2.382  10.361  17.474  0.00  0.00    +0.000 A 
ATOM     31  F   UNL     1      -3.077   9.585  16.627  0.00  0.00    +0.000 F 
ATOM     32  C   UNL     1      -1.056  10.058  17.752  0.00  0.00    +0.000 A 
ENDBRANCH  25  26
ENDBRANCH   8  25
TORSDOF 6
ENDMDL
MODEL 6
REMARK VINA RESULT:      -8.8      2.010      9.050
REMARK  Name = 
REMARK  6 active torsions:
REMARK  status: ('A' for Active; 'I' for Inactive)
REMARK    1  A    between atoms: C_2  and  C_15
REMARK    2  A    between atoms: N_3  and  C_4
REMARK    3  A    between atoms: C_4  and  C_5
REMARK    4  A    between atoms: C_10  and  C_11
REMARK    5  A    between atoms: N_22  and  C_23
REMARK    6  A    between atoms: C_23  and  C_24
REMARK                            x       y       z     vdW  Elec       q    Type
REMARK                         _______ _______ _______ _____ _____    ______ ____
ROOT
ATOM      1  C   UNL     1       1.574   8.042  20.349  0.00  0.00    +0.000 A 
ATOM      2  C   UNL     1       2.180   8.123  19.082  0.00  0.00    +0.000 A 
ATOM      3  C   UNL     1       2.618   6.978  18.386  0.00  0.00    +0.000 A 
ATOM      4  C   UNL     1       2.597   5.769  19.090  0.00  0.00    +0.000 A 
ATOM      5  C   UNL     1       2.032   5.679  20.365  0.00  0.00    +0.000 A 
ATOM      6  C   UNL     1       2.282   4.364  20.790  0.00  0.00    +0.000 A 
ATOM      7  N   UNL     1       2.995   3.672  19.907  0.00  0.00    +0.000 NA
ATOM      8  N   UNL     1       3.014   4.479  18.824  0.00  0.00    +0.000 N 
ATOM      9  C   UNL     1       1.426   6.794  20.957  0.00  0.00    +0.000 A 
ENDROOT
BRANCH   1  11
ATOM     10  O   UNL     1       1.597   9.277  22.360  0.00  0.00    +0.000 OA
ATOM     11  C   UNL     1       1.194   9.217  21.197  0.00  0.00    +0.000 C 
ATOM     12  N   UNL     1       0.391  10.224  20.726  0.00  0.00    +0.000 N 
ATOM     13  H   UNL     1       0.305  11.006  21.369  0.00  0.00    +0.000 HD
BRANCH  12  14
ATOM     14  C   UNL     1      -0.209  10.294  19.431  0.00  0.00    +0.000 C 
BRANCH  14  15
ATOM     15  C   UNL     1      -1.444  11.135  19.368  0.00  0.00    +0.000 A 
ATOM     16  C   UNL     1      -1.677  12.008  20.456  0.00  0.00    +0.000 A 
ATOM     17  C   UNL     1      -2.886  12.674  20.596  0.00  0.00    +0.000 A 
ATOM     18  C   UNL     1      -3.865  12.514  19.633  0.00  0.00    +0.000 A 
ATOM     19  C   UNL     1      -3.626  11.708  18.512  0.00  0.00    +0.000 A 
ATOM     20  C   UNL     1      -2.412  11.015  18.350  0.00  0.00    +0.000 A 
BRANCH  20  21
ATOM     21  C   UNL     1      -2.258  10.141  17.118  0.00  0.00    +0.000 C 
ATOM     22  F   UNL     1      -1.108   9.417  17.057  0.00  0.00    +0.000 F 
ATOM     23  F   UNL     1      -3.268   9.232  17.010  0.00  0.00    +0.000 F 
ATOM     24  F   UNL     1      -2.285  10.864  15.963  0.00  0.00    +0.000 F 
ENDBRANCH  20  21
ENDBRANCH  14  15
ENDBRANCH  12  14
ENDBRANCH   1  11
BRANCH   8  25
ATOM     25  C   UNL     1       3.257   3.835  17.542  0.00  0.00    +0.000 C 
BRANCH  25  26
ATOM     26  C   UNL     1       4.637   4.207  17.047  0.00  0.00    +0.000 A 
ATOM     27  C   UNL     1       4.900   4.317  15.676  0.00  0.00    +0.000 A 
ATOM     28  C   UNL     1       6.188   4.614  15.226  0.00  0.00    +0.000 A 
ATOM     29  C   UNL     1       7.226   4.796  16.140  0.00  0.00    +0.000 A 
ATOM     30  C   UNL     1       6.973   4.669  17.498  0.00  0.00    +0.000 A 
ATOM     31  F   UNL     1       7.974   4.832  18.376  0.00  0.00    +0.000 F 
ATOM     32  C   UNL     1       5.696   4.379  17.958  0.00  0.00    +0.000 A 
ENDBRANCH  25  26
ENDBRANCH   8  25
TORSDOF 6
ENDMDL
MODEL 7
REMARK VINA RESULT:      -8.8      1.289      2.065
REMARK  Name = 
REMARK  6 active torsions:
REMARK  status: ('A' for Active; 'I' for Inactive)
REMARK    1  A    between atoms: C_2  and  C_15
REMARK    2  A    between atoms: N_3  and  C_4
REMARK    3  A    between atoms: C_4  and  C_5
REMARK    4  A    between atoms: C_10  and  C_11
REMARK    5  A    between atoms: N_22  and  C_23
REMARK    6  A    between atoms: C_23  and  C_24
REMARK                            x       y       z     vdW  Elec       q    Type
REMARK                         _______ _______ _______ _____ _____    ______ ____
ROOT
ATOM      1  C   UNL     1       2.966   5.343  19.029  0.00  0.00    +0.000 A 
ATOM      2  C   UNL     1       2.741   6.118  17.877  0.00  0.00    +0.000 A 
ATOM      3  C   UNL     1       2.240   7.434  17.944  0.00  0.00    +0.000 A 
ATOM      4  C   UNL     1       1.797   7.874  19.197  0.00  0.00    +0.000 A 
ATOM      5  C   UNL     1       1.978   7.100  20.345  0.00  0.00    +0.000 A 
ATOM      6  C   UNL     1       1.327   7.803  21.373  0.00  0.00    +0.000 A 
ATOM      7  N   UNL     1       0.723   8.901  20.933  0.00  0.00    +0.000 NA
ATOM      8  N   UNL     1       1.171   9.013  19.664  0.00  0.00    +0.000 N 
ATOM      9  C   UNL     1       2.657   5.876  20.282  0.00  0.00    +0.000 A 
ENDROOT
BRANCH   1  11
ATOM     10  O   UNL     1       2.542   3.034  19.277  0.00  0.00    +0.000 OA
ATOM     11  C   UNL     1       3.380   3.903  19.031  0.00  0.00    +0.000 C 
ATOM     12  N   UNL     1       4.673   3.519  18.785  0.00  0.00    +0.000 N 
ATOM     13  H   UNL     1       4.788   2.513  18.710  0.00  0.00    +0.000 HD
BRANCH  12  14
ATOM     14  C   UNL     1       5.782   4.386  18.536  0.00  0.00    +0.000 C 
BRANCH  14  15
ATOM     15  C   UNL     1       6.049   4.645  17.087  0.00  0.00    +0.000 A 
ATOM     16  C   UNL     1       5.585   3.674  16.169  0.00  0.00    +0.000 A 
ATOM     17  C   UNL     1       5.959   3.711  14.834  0.00  0.00    +0.000 A 
ATOM     18  C   UNL     1       6.764   4.740  14.382  0.00  0.00    +0.000 A 
ATOM     19  C   UNL     1       7.177   5.750  15.263  0.00  0.00    +0.000 A 
ATOM     20  C   UNL     1       6.820   5.731  16.623  0.00  0.00    +0.000 A 
BRANCH  20  21
ATOM     21  C   UNL     1       7.342   6.851  17.505  0.00  0.00    +0.000 C 
ATOM     22  F   UNL     1       8.086   6.454  18.573  0.00  0.00    +0.000 F 
ATOM     23  F   UNL     1       8.131   7.719  16.811  0.00  0.00    +0.000 F 
ATOM     24  F   UNL     1       6.336   7.606  18.033  0.00  0.00    +0.000 F 
ENDBRANCH  20  21
ENDBRANCH  14  15
ENDBRANCH  12  14
ENDBRANCH   1  11
BRANCH   8  25
ATOM     25  C   UNL     1       1.121  10.344  19.075  0.00  0.00    +0.000 C 
BRANCH  25  26
ATOM     26  C   UNL     1      -0.311  10.689  18.736  0.00  0.00    +0.000 A 
ATOM     27  C   UNL     1      -0.950  10.095  17.640  0.00  0.00    +0.000 A 
ATOM     28  C   UNL     1      -2.258  10.455  17.306  0.00  0.00    +0.000 A 
ATOM     29  C   UNL     1      -2.935  11.417  18.056  0.00  0.00    +0.000 A 
ATOM     30  C   UNL     1      -2.298  12.021  19.130  0.00  0.00    +0.000 A 
ATOM     31  F   UNL     1      -2.945  12.954  19.845  0.00  0.00    +0.000 F 
ATOM     32  C   UNL     1      -1.001  11.668  19.477  0.00  0.00    +0.000 A 
ENDBRANCH  25  26
ENDBRANCH   8  25
TORSDOF 6
ENDMDL
MODEL 8
REMARK VINA RESULT:      -8.7      2.549      9.584
REMARK  Name = 
REMARK  6 active torsions:
REMARK  status: ('A' for Active; 'I' for Inactive)
REMARK    1  A    between atoms: C_2  and  C_15
REMARK    2  A    between atoms: N_3  and  C_4
REMARK    3  A    between atoms: C_4  and  C_5
REMARK    4  A    between atoms: C_10  and  C_11
REMARK    5  A    between atoms: N_22  and  C_23
REMARK    6  A    between atoms: C_23  and  C_24
REMARK                            x       y       z     vdW  Elec       q    Type
REMARK                         _______ _______ _______ _____ _____    ______ ____
ROOT
ATOM      1  C   UNL     1       1.244   9.625  19.569  0.00  0.00    +0.000 A 
ATOM      2  C   UNL     1       1.935   9.493  18.351  0.00  0.00    +0.000 A 
ATOM      3  C   UNL     1       2.449   8.257  17.911  0.00  0.00    +0.000 A 
ATOM      4  C   UNL     1       2.409   7.198  18.825  0.00  0.00    +0.000 A 
ATOM      5  C   UNL     1       1.760   7.325  20.056  0.00  0.00    +0.000 A 
ATOM      6  C   UNL     1       2.013   6.121  20.734  0.00  0.00    +0.000 A 
ATOM      7  N   UNL     1       2.802   5.306  20.044  0.00  0.00    +0.000 NA
ATOM      8  N   UNL     1       2.877   5.898  18.833  0.00  0.00    +0.000 N 
ATOM      9  C   UNL     1       1.086   8.506  20.390  0.00  0.00    +0.000 A 
ENDROOT
BRANCH   1  11
ATOM     10  O   UNL     1       1.396  11.415  21.101  0.00  0.00    +0.000 OA
ATOM     11  C   UNL     1       0.776  10.921  20.157  0.00  0.00    +0.000 C 
ATOM     12  N   UNL     1      -0.337  11.571  19.690  0.00  0.00    +0.000 N 
ATOM     13  H   UNL     1      -0.475  12.487  20.105  0.00  0.00    +0.000 HD
BRANCH  12  14
ATOM     14  C   UNL     1      -1.205  11.122  18.646  0.00  0.00    +0.000 C 
BRANCH  14  15
ATOM     15  C   UNL     1      -2.596  11.666  18.724  0.00  0.00    +0.000 A 
ATOM     16  C   UNL     1      -2.945  12.358  19.907  0.00  0.00    +0.000 A 
ATOM     17  C   UNL     1      -4.259  12.718  20.167  0.00  0.00    +0.000 A 
ATOM     18  C   UNL     1      -5.239  12.434  19.234  0.00  0.00    +0.000 A 
ATOM     19  C   UNL     1      -4.900  11.811  18.024  0.00  0.00    +0.000 A 
ATOM     20  C   UNL     1      -3.577  11.428  17.740  0.00  0.00    +0.000 A 
BRANCH  20  21
ATOM     21  C   UNL     1      -3.314  10.730  16.417  0.00  0.00    +0.000 C 
ATOM     22  F   UNL     1      -2.363  11.306  15.633  0.00  0.00    +0.000 F 
ATOM     23  F   UNL     1      -2.911   9.440  16.593  0.00  0.00    +0.000 F 
ATOM     24  F   UNL     1      -4.429  10.666  15.635  0.00  0.00    +0.000 F 
ENDBRANCH  20  21
ENDBRANCH  14  15
ENDBRANCH  12  14
ENDBRANCH   1  11
BRANCH   8  25
ATOM     25  C   UNL     1       3.225   5.038  17.712  0.00  0.00    +0.000 C 
BRANCH  25  26
ATOM     26  C   UNL     1       4.729   4.984  17.569  0.00  0.00    +0.000 A 
ATOM     27  C   UNL     1       5.320   4.421  16.430  0.00  0.00    +0.000 A 
ATOM     28  C   UNL     1       6.710   4.332  16.327  0.00  0.00    +0.000 A 
ATOM     29  C   UNL     1       7.522   4.796  17.364  0.00  0.00    +0.000 A 
ATOM     30  C   UNL     1       6.939   5.335  18.500  0.00  0.00    +0.000 A 
ATOM     31  F   UNL     1       7.719   5.770  19.502  0.00  0.00    +0.000 F 
ATOM     32  C   UNL     1       5.559   5.435  18.613  0.00  0.00    +0.000 A 
ENDBRANCH  25  26
ENDBRANCH   8  25
TORSDOF 6
ENDMDL
MODEL 9
REMARK VINA RESULT:      -8.7      2.892      4.477
REMARK  Name = 
REMARK  6 active torsions:
REMARK  status: ('A' for Active; 'I' for Inactive)
REMARK    1  A    between atoms: C_2  and  C_15
REMARK    2  A    between atoms: N_3  and  C_4
REMARK    3  A    between atoms: C_4  and  C_5
REMARK    4  A    between atoms: C_10  and  C_11
REMARK    5  A    between atoms: N_22  and  C_23
REMARK    6  A    between atoms: C_23  and  C_24
REMARK                            x       y       z     vdW  Elec       q    Type
REMARK                         _______ _______ _______ _____ _____    ______ ____
ROOT
ATOM      1  C   UNL     1       2.899   7.746  18.224  0.00  0.00    +0.000 A 
ATOM      2  C   UNL     1       2.312   8.753  17.437  0.00  0.00    +0.000 A 
ATOM      3  C   UNL     1       1.378   9.668  17.966  0.00  0.00    +0.000 A 
ATOM      4  C   UNL     1       0.917   9.416  19.263  0.00  0.00    +0.000 A 
ATOM      5  C   UNL     1       1.465   8.395  20.044  0.00  0.00    +0.000 A 
ATOM      6  C   UNL     1       0.696   8.375  21.220  0.00  0.00    +0.000 A 
ATOM      7  N   UNL     1      -0.298   9.255  21.191  0.00  0.00    +0.000 NA
ATOM      8  N   UNL     1      -0.033   9.986  20.088  0.00  0.00    +0.000 N 
ATOM      9  C   UNL     1       2.530   7.622  19.564  0.00  0.00    +0.000 A 
ENDROOT
BRANCH   1  11
ATOM     10  O   UNL     1       4.949   6.955  17.360  0.00  0.00    +0.000 OA
ATOM     11  C   UNL     1       3.802   6.668  17.707  0.00  0.00    +0.000 C 
ATOM     12  N   UNL     1       3.386   5.367  17.587  0.00  0.00    +0.000 N 
ATOM     13  H   UNL     1       4.130   4.727  17.328  0.00  0.00    +0.000 HD
BRANCH  12  14
ATOM     14  C   UNL     1       2.082   4.863  17.887  0.00  0.00    +0.000 C 
BRANCH  14  15
ATOM     15  C   UNL     1       2.023   3.986  19.097  0.00  0.00    +0.000 A 
ATOM     16  C   UNL     1       1.413   4.531  20.251  0.00  0.00    +0.000 A 
ATOM     17  C   UNL     1       1.491   3.886  21.477  0.00  0.00    +0.000 A 
ATOM     18  C   UNL     1       2.140   2.668  21.564  0.00  0.00    +0.000 A 
ATOM     19  C   UNL     1       2.690   2.080  20.417  0.00  0.00    +0.000 A 
ATOM     20  C   UNL     1       2.632   2.716  19.164  0.00  0.00    +0.000 A 
BRANCH  20  21
ATOM     21  C   UNL     1       3.285   2.014  17.986  0.00  0.00    +0.000 C 
ATOM     22  F   UNL     1       2.474   1.797  16.915  0.00  0.00    +0.000 F 
ATOM     23  F   UNL     1       4.349   2.715  17.502  0.00  0.00    +0.000 F 
ATOM     24  F   UNL     1       3.771   0.785  18.320  0.00  0.00    +0.000 F 
ENDBRANCH  20  21
ENDBRANCH  14  15
ENDBRANCH  12  14
ENDBRANCH   1  11
BRANCH   8  25
ATOM     25  C   UNL     1      -0.610  11.322  20.042  0.00  0.00    +0.000 C 
BRANCH  25  26
ATOM     26  C   UNL     1      -1.890  11.289  19.239  0.00  0.00    +0.000 A 
ATOM     27  C   UNL     1      -2.972  12.111  19.582  0.00  0.00    +0.000 A 
ATOM     28  C   UNL     1      -4.168  12.040  18.863  0.00  0.00    +0.000 A 
ATOM     29  C   UNL     1      -4.297  11.143  17.803  0.00  0.00    +0.000 A 
ATOM     30  C   UNL     1      -3.234  10.314  17.473  0.00  0.00    +0.000 A 
ATOM     31  F   UNL     1      -3.363   9.443  16.460  0.00  0.00    +0.000 F 
ATOM     32  C   UNL     1      -2.039  10.378  18.175  0.00  0.00    +0.000 A 
ENDBRANCH  25  26
ENDBRANCH   8  25
TORSDOF 6
ENDMDL
