MODEL 1
REMARK VINA RESULT:      -8.0      0.000      0.000
REMARK  Name = 
REMARK  1 active torsions:
REMARK  status: ('A' for Active; 'I' for Inactive)
REMARK    1  A    between atoms: N_10  and  C_11
REMARK                            x       y       z     vdW  Elec       q    Type
REMARK                         _______ _______ _______ _____ _____    ______ ____
ROOT
ATOM      1  C   UNL     1       1.413   5.285  20.812  0.00  0.00    +0.000 A 
ATOM      2  C   UNL     1       2.067   6.165  19.958  0.00  0.00    +0.000 A 
ATOM      3  C   UNL     1       2.860   5.672  18.915  0.00  0.00    +0.000 A 
ATOM      4  C   UNL     1       3.050   4.293  18.724  0.00  0.00    +0.000 A 
ATOM      5  C   UNL     1       2.362   3.422  19.598  0.00  0.00    +0.000 A 
ATOM      6  C   UNL     1       1.548   3.912  20.624  0.00  0.00    +0.000 A 
ATOM      7  O   UNL     1       2.415   2.050  19.518  0.00  0.00    +0.000 OA
ATOM      8  C   UNL     1       3.476   1.592  18.683  0.00  0.00    +0.000 C 
ATOM      9  C   UNL     1       3.560   2.383  17.383  0.00  0.00    +0.000 C 
ATOM     10  N   UNL     1       3.873   3.786  17.676  0.00  0.00    +0.000 N 
ENDROOT
BRANCH  10  11
ATOM     11  C   UNL     1       5.008   4.367  17.055  0.00  0.00    +0.000 A 
ATOM     12  C   UNL     1       5.119   4.379  15.646  0.00  0.00    +0.000 A 
ATOM     13  C   UNL     1       6.210   4.955  15.008  0.00  0.00    +0.000 A 
ATOM     14  N   UNL     1       7.229   5.577  15.623  0.00  0.00    +0.000 NA
ATOM     15  C   UNL     1       7.103   5.578  16.958  0.00  0.00    +0.000 A 
ATOM     16  N   UNL     1       7.999   6.178  17.794  0.00  0.00    +0.000 N 
ATOM     17  C   UNL     1       7.617   6.011  19.094  0.00  0.00    +0.000 A 
ATOM     18  C   UNL     1       6.466   5.255  19.088  0.00  0.00    +0.000 A 
ATOM     19  C   UNL     1       6.083   5.010  17.728  0.00  0.00    +0.000 A 
ATOM     20  H   UNL     1       8.818   6.673  17.465  0.00  0.00    +0.000 HD
ENDBRANCH  10  11
TORSDOF 1
ENDMDL
MODEL 2
REMARK VINA RESULT:      -8.0      0.633      2.131
REMARK  Name = 
REMARK  1 active torsions:
REMARK  status: ('A' for Active; 'I' for Inactive)
REMARK    1  A    between atoms: N_10  and  C_11
REMARK                            x       y       z     vdW  Elec       q    Type
REMARK                         _______ _______ _______ _____ _____    ______ ____
ROOT
ATOM      1  C   UNL     1       0.966   4.639  20.806  0.00  0.00    +0.000 A 
ATOM      2  C   UNL     1       1.734   5.671  20.277  0.00  0.00    +0.000 A 
ATOM      3  C   UNL     1       2.734   5.392  19.339  0.00  0.00    +0.000 A 
ATOM      4  C   UNL     1       3.018   4.076  18.936  0.00  0.00    +0.000 A 
ATOM      5  C   UNL     1       2.214   3.050  19.479  0.00  0.00    +0.000 A 
ATOM      6  C   UNL     1       1.196   3.329  20.396  0.00  0.00    +0.000 A 
ATOM      7  O   UNL     1       2.342   1.719  19.156  0.00  0.00    +0.000 OA
ATOM      8  C   UNL     1       3.563   1.437  18.477  0.00  0.00    +0.000 C 
ATOM      9  C   UNL     1       3.862   2.462  17.390  0.00  0.00    +0.000 C 
ATOM     10  N   UNL     1       4.050   3.785  17.996  0.00  0.00    +0.000 N 
ENDROOT
BRANCH  10  11
ATOM     11  C   UNL     1       5.256   4.482  17.731  0.00  0.00    +0.000 A 
ATOM     12  C   UNL     1       5.999   5.046  18.792  0.00  0.00    +0.000 A 
ATOM     13  C   UNL     1       7.192   5.721  18.567  0.00  0.00    +0.000 A 
ATOM     14  N   UNL     1       7.779   5.880  17.369  0.00  0.00    +0.000 NA
ATOM     15  C   UNL     1       7.075   5.324  16.372  0.00  0.00    +0.000 A 
ATOM     16  N   UNL     1       7.487   5.330  15.071  0.00  0.00    +0.000 N 
ATOM     17  C   UNL     1       6.569   4.699  14.282  0.00  0.00    +0.000 A 
ATOM     18  C   UNL     1       5.528   4.311  15.096  0.00  0.00    +0.000 A 
ATOM     19  C   UNL     1       5.853   4.650  16.451  0.00  0.00    +0.000 A 
ATOM     20  H   UNL     1       8.358   5.748  14.768  0.00  0.00    +0.000 HD
ENDBRANCH  10  11
TORSDOF 1
ENDMDL
MODEL 3
REMARK VINA RESULT:      -7.6      1.078      2.355
REMARK  Name = 
REMARK  1 active torsions:
REMARK  status: ('A' for Active; 'I' for Inactive)
REMARK    1  A    between atoms: N_10  and  C_11
REMARK                            x       y       z     vdW  Elec       q    Type
REMARK                         _______ _______ _______ _____ _____    ______ ____
ROOT
ATOM      1  C   UNL     1       1.415   6.460  20.614  0.00  0.00    +0.000 A 
ATOM      2  C   UNL     1       2.377   7.054  19.805  0.00  0.00    +0.000 A 
ATOM      3  C   UNL     1       3.154   6.269  18.946  0.00  0.00    +0.000 A 
ATOM      4  C   UNL     1       3.018   4.871  18.903  0.00  0.00    +0.000 A 
ATOM      5  C   UNL     1       2.024   4.296  19.725  0.00  0.00    +0.000 A 
ATOM      6  C   UNL     1       1.228   5.082  20.565  0.00  0.00    +0.000 A 
ATOM      7  O   UNL     1       1.743   2.951  19.768  0.00  0.00    +0.000 OA
ATOM      8  C   UNL     1       2.759   2.161  19.154  0.00  0.00    +0.000 C 
ATOM      9  C   UNL     1       3.211   2.749  17.823  0.00  0.00    +0.000 C 
ATOM     10  N   UNL     1       3.822   4.064  18.045  0.00  0.00    +0.000 N 
ENDROOT
BRANCH  10  11
ATOM     11  C   UNL     1       5.138   4.286  17.567  0.00  0.00    +0.000 A 
ATOM     12  C   UNL     1       6.205   4.464  18.476  0.00  0.00    +0.000 A 
ATOM     13  C   UNL     1       7.508   4.667  18.039  0.00  0.00    +0.000 A 
ATOM     14  N   UNL     1       7.902   4.680  16.755  0.00  0.00    +0.000 NA
ATOM     15  C   UNL     1       6.885   4.489  15.901  0.00  0.00    +0.000 A 
ATOM     16  N   UNL     1       7.046   4.430  14.547  0.00  0.00    +0.000 N 
ATOM     17  C   UNL     1       5.840   4.234  13.937  0.00  0.00    +0.000 A 
ATOM     18  C   UNL     1       4.882   4.203  14.925  0.00  0.00    +0.000 A 
ATOM     19  C   UNL     1       5.531   4.308  16.200  0.00  0.00    +0.000 A 
ATOM     20  H   UNL     1       7.945   4.517  14.092  0.00  0.00    +0.000 HD
ENDBRANCH  10  11
TORSDOF 1
ENDMDL
MODEL 4
REMARK VINA RESULT:      -7.6      2.108      5.330
REMARK  Name = 
REMARK  1 active torsions:
REMARK  status: ('A' for Active; 'I' for Inactive)
REMARK    1  A    between atoms: N_10  and  C_11
REMARK                            x       y       z     vdW  Elec       q    Type
REMARK                         _______ _______ _______ _____ _____    ______ ____
ROOT
ATOM      1  C   UNL     1       8.159   6.823  18.778  0.00  0.00    +0.000 A 
ATOM      2  C   UNL     1       7.583   5.868  19.609  0.00  0.00    +0.000 A 
ATOM      3  C   UNL     1       6.555   5.049  19.129  0.00  0.00    +0.000 A 
ATOM      4  C   UNL     1       6.050   5.189  17.825  0.00  0.00    +0.000 A 
ATOM      5  C   UNL     1       6.664   6.156  16.999  0.00  0.00    +0.000 A 
ATOM      6  C   UNL     1       7.710   6.958  17.468  0.00  0.00    +0.000 A 
ATOM      7  O   UNL     1       6.311   6.387  15.690  0.00  0.00    +0.000 OA
ATOM      8  C   UNL     1       5.062   5.789  15.348  0.00  0.00    +0.000 C 
ATOM      9  C   UNL     1       4.950   4.363  15.872  0.00  0.00    +0.000 C 
ATOM     10  N   UNL     1       4.989   4.370  17.338  0.00  0.00    +0.000 N 
ENDROOT
BRANCH  10  11
ATOM     11  C   UNL     1       3.922   3.758  18.044  0.00  0.00    +0.000 A 
ATOM     12  C   UNL     1       3.667   2.377  17.889  0.00  0.00    +0.000 A 
ATOM     13  C   UNL     1       2.639   1.745  18.578  0.00  0.00    +0.000 A 
ATOM     14  N   UNL     1       1.823   2.336  19.466  0.00  0.00    +0.000 NA
ATOM     15  C   UNL     1       2.087   3.642  19.620  0.00  0.00    +0.000 A 
ATOM     16  N   UNL     1       1.409   4.445  20.492  0.00  0.00    +0.000 N 
ATOM     17  C   UNL     1       1.890   5.721  20.428  0.00  0.00    +0.000 A 
ATOM     18  C   UNL     1       2.874   5.741  19.466  0.00  0.00    +0.000 A 
ATOM     19  C   UNL     1       3.060   4.407  18.971  0.00  0.00    +0.000 A 
ATOM     20  H   UNL     1       0.665   4.109  21.090  0.00  0.00    +0.000 HD
ENDBRANCH  10  11
TORSDOF 1
ENDMDL
MODEL 5
REMARK VINA RESULT:      -7.4      1.247      1.738
REMARK  Name = 
REMARK  1 active torsions:
REMARK  status: ('A' for Active; 'I' for Inactive)
REMARK    1  A    between atoms: N_10  and  C_11
REMARK                            x       y       z     vdW  Elec       q    Type
REMARK                         _______ _______ _______ _____ _____    ______ ____
ROOT
ATOM      1  C   UNL     1       1.453   7.855  20.379  0.00  0.00    +0.000 A 
ATOM      2  C   UNL     1       2.163   7.987  19.191  0.00  0.00    +0.000 A 
ATOM      3  C   UNL     1       2.776   6.871  18.611  0.00  0.00    +0.000 A 
ATOM      4  C   UNL     1       2.728   5.606  19.222  0.00  0.00    +0.000 A 
ATOM      5  C   UNL     1       1.988   5.498  20.420  0.00  0.00    +0.000 A 
ATOM      6  C   UNL     1       1.353   6.607  20.987  0.00  0.00    +0.000 A 
ATOM      7  O   UNL     1       1.816   4.324  21.115  0.00  0.00    +0.000 OA
ATOM      8  C   UNL     1       2.716   3.302  20.694  0.00  0.00    +0.000 C 
ATOM      9  C   UNL     1       2.813   3.219  19.175  0.00  0.00    +0.000 C 
ATOM     10  N   UNL     1       3.368   4.469  18.646  0.00  0.00    +0.000 N 
ENDROOT
BRANCH  10  11
ATOM     11  C   UNL     1       4.524   4.400  17.826  0.00  0.00    +0.000 A 
ATOM     12  C   UNL     1       4.430   3.902  16.507  0.00  0.00    +0.000 A 
ATOM     13  C   UNL     1       5.541   3.836  15.674  0.00  0.00    +0.000 A 
ATOM     14  N   UNL     1       6.776   4.254  15.994  0.00  0.00    +0.000 NA
ATOM     15  C   UNL     1       6.848   4.743  17.241  0.00  0.00    +0.000 A 
ATOM     16  N   UNL     1       7.993   5.256  17.779  0.00  0.00    +0.000 N 
ATOM     17  C   UNL     1       7.769   5.670  19.060  0.00  0.00    +0.000 A 
ATOM     18  C   UNL     1       6.456   5.381  19.360  0.00  0.00    +0.000 A 
ATOM     19  C   UNL     1       5.827   4.837  18.191  0.00  0.00    +0.000 A 
ATOM     20  H   UNL     1       8.867   5.312  17.271  0.00  0.00    +0.000 HD
ENDBRANCH  10  11
TORSDOF 1
ENDMDL
MODEL 6
REMARK VINA RESULT:      -7.3      2.110      5.692
REMARK  Name = 
REMARK  1 active torsions:
REMARK  status: ('A' for Active; 'I' for Inactive)
REMARK    1  A    between atoms: N_10  and  C_11
REMARK                            x       y       z     vdW  Elec       q    Type
REMARK                         _______ _______ _______ _____ _____    ______ ____
ROOT
ATOM      1  C   UNL     1       6.728   4.598  14.077  0.00  0.00    +0.000 A 
ATOM      2  C   UNL     1       5.391   4.270  14.268  0.00  0.00    +0.000 A 
ATOM      3  C   UNL     1       4.833   4.311  15.550  0.00  0.00    +0.000 A 
ATOM      4  C   UNL     1       5.604   4.643  16.678  0.00  0.00    +0.000 A 
ATOM      5  C   UNL     1       6.956   4.985  16.453  0.00  0.00    +0.000 A 
ATOM      6  C   UNL     1       7.508   4.970  15.168  0.00  0.00    +0.000 A 
ATOM      7  O   UNL     1       7.828   5.368  17.445  0.00  0.00    +0.000 OA
ATOM      8  C   UNL     1       7.334   5.075  18.750  0.00  0.00    +0.000 C 
ATOM      9  C   UNL     1       5.869   5.464  18.905  0.00  0.00    +0.000 C 
ATOM     10  N   UNL     1       5.046   4.667  17.989  0.00  0.00    +0.000 N 
ENDROOT
BRANCH  10  11
ATOM     11  C   UNL     1       3.973   3.913  18.530  0.00  0.00    +0.000 A 
ATOM     12  C   UNL     1       3.896   2.521  18.302  0.00  0.00    +0.000 A 
ATOM     13  C   UNL     1       2.867   1.753  18.831  0.00  0.00    +0.000 A 
ATOM     14  N   UNL     1       1.883   2.213  19.621  0.00  0.00    +0.000 NA
ATOM     15  C   UNL     1       1.977   3.531  19.847  0.00  0.00    +0.000 A 
ATOM     16  N   UNL     1       1.108   4.218  20.645  0.00  0.00    +0.000 N 
ATOM     17  C   UNL     1       1.446   5.540  20.683  0.00  0.00    +0.000 A 
ATOM     18  C   UNL     1       2.537   5.707  19.859  0.00  0.00    +0.000 A 
ATOM     19  C   UNL     1       2.932   4.425  19.354  0.00  0.00    +0.000 A 
ATOM     20  H   UNL     1       0.336   3.778  21.130  0.00  0.00    +0.000 HD
ENDBRANCH  10  11
TORSDOF 1
ENDMDL
MODEL 7
REMARK VINA RESULT:      -7.2      1.574      2.971
REMARK  Name = 
REMARK  1 active torsions:
REMARK  status: ('A' for Active; 'I' for Inactive)
REMARK    1  A    between atoms: N_10  and  C_11
REMARK                            x       y       z     vdW  Elec       q    Type
REMARK                         _______ _______ _______ _____ _____    ______ ____
ROOT
ATOM      1  C   UNL     1       1.662   8.371  19.266  0.00  0.00    +0.000 A 
ATOM      2  C   UNL     1       2.543   8.362  18.191  0.00  0.00    +0.000 A 
ATOM      3  C   UNL     1       3.299   7.217  17.911  0.00  0.00    +0.000 A 
ATOM      4  C   UNL     1       3.222   6.070  18.720  0.00  0.00    +0.000 A 
ATOM      5  C   UNL     1       2.308   6.102  19.796  0.00  0.00    +0.000 A 
ATOM      6  C   UNL     1       1.533   7.236  20.061  0.00  0.00    +0.000 A 
ATOM      7  O   UNL     1       2.091   5.049  20.653  0.00  0.00    +0.000 OA
ATOM      8  C   UNL     1       3.099   4.046  20.554  0.00  0.00    +0.000 C 
ATOM      9  C   UNL     1       3.440   3.723  19.104  0.00  0.00    +0.000 C 
ATOM     10  N   UNL     1       4.005   4.909  18.452  0.00  0.00    +0.000 N 
ENDROOT
BRANCH  10  11
ATOM     11  C   UNL     1       5.277   4.797  17.836  0.00  0.00    +0.000 A 
ATOM     12  C   UNL     1       6.453   4.853  18.617  0.00  0.00    +0.000 A 
ATOM     13  C   UNL     1       7.713   4.731  18.045  0.00  0.00    +0.000 A 
ATOM     14  N   UNL     1       7.956   4.517  16.742  0.00  0.00    +0.000 NA
ATOM     15  C   UNL     1       6.832   4.446  16.013  0.00  0.00    +0.000 A 
ATOM     16  N   UNL     1       6.826   4.204  14.670  0.00  0.00    +0.000 N 
ATOM     17  C   UNL     1       5.545   4.195  14.198  0.00  0.00    +0.000 A 
ATOM     18  C   UNL     1       4.715   4.474  15.261  0.00  0.00    +0.000 A 
ATOM     19  C   UNL     1       5.511   4.584  16.449  0.00  0.00    +0.000 A 
ATOM     20  H   UNL     1       7.669   4.051  14.131  0.00  0.00    +0.000 HD
ENDBRANCH  10  11
TORSDOF 1
ENDMDL
MODEL 8
REMARK VINA RESULT:      -7.1      2.936      4.953
REMARK  Name = 
REMARK  1 active torsions:
REMARK  status: ('A' for Active; 'I' for Inactive)
REMARK    1  A    between atoms: N_10  and  C_11
REMARK                            x       y       z     vdW  Elec       q    Type
REMARK                         _______ _______ _______ _____ _____    ______ ____
ROOT
ATOM      1  C   UNL     1       1.997   1.982  18.978  0.00  0.00    +0.000 A 
ATOM      2  C   UNL     1       1.122   2.994  18.598  0.00  0.00    +0.000 A 
ATOM      3  C   UNL     1       1.600   4.293  18.388  0.00  0.00    +0.000 A 
ATOM      4  C   UNL     1       2.951   4.621  18.591  0.00  0.00    +0.000 A 
ATOM      5  C   UNL     1       3.819   3.571  18.963  0.00  0.00    +0.000 A 
ATOM      6  C   UNL     1       3.348   2.267  19.147  0.00  0.00    +0.000 A 
ATOM      7  O   UNL     1       5.171   3.723  19.162  0.00  0.00    +0.000 OA
ATOM      8  C   UNL     1       5.557   5.091  19.273  0.00  0.00    +0.000 C 
ATOM      9  C   UNL     1       4.893   5.958  18.210  0.00  0.00    +0.000 C 
ATOM     10  N   UNL     1       3.439   5.947  18.399  0.00  0.00    +0.000 N 
ENDROOT
BRANCH  10  11
ATOM     11  C   UNL     1       2.769   7.188  18.548  0.00  0.00    +0.000 A 
ATOM     12  C   UNL     1       2.789   8.137  17.501  0.00  0.00    +0.000 A 
ATOM     13  C   UNL     1       2.129   9.355  17.611  0.00  0.00    +0.000 A 
ATOM     14  N   UNL     1       1.393   9.746  18.663  0.00  0.00    +0.000 NA
ATOM     15  C   UNL     1       1.364   8.830  19.642  0.00  0.00    +0.000 A 
ATOM     16  N   UNL     1       0.655   8.990  20.797  0.00  0.00    +0.000 N 
ATOM     17  C   UNL     1       0.818   7.903  21.606  0.00  0.00    +0.000 A 
ATOM     18  C   UNL     1       1.683   7.043  20.966  0.00  0.00    +0.000 A 
ATOM     19  C   UNL     1       2.004   7.587  19.679  0.00  0.00    +0.000 A 
ATOM     20  H   UNL     1       0.093   9.809  20.992  0.00  0.00    +0.000 HD
ENDBRANCH  10  11
TORSDOF 1
ENDMDL
MODEL 9
REMARK VINA RESULT:      -7.0      1.479      2.006
REMARK  Name = 
REMARK  1 active torsions:
REMARK  status: ('A' for Active; 'I' for Inactive)
REMARK    1  A    between atoms: N_10  and  C_11
REMARK                            x       y       z     vdW  Elec       q    Type
REMARK                         _______ _______ _______ _____ _____    ______ ____
ROOT
ATOM      1  C   UNL     1       1.622   8.250  19.726  0.00  0.00    +0.000 A 
ATOM      2  C   UNL     1       2.217   8.356  18.474  0.00  0.00    +0.000 A 
ATOM      3  C   UNL     1       2.868   7.253  17.911  0.00  0.00    +0.000 A 
ATOM      4  C   UNL     1       2.976   6.032  18.599  0.00  0.00    +0.000 A 
ATOM      5  C   UNL     1       2.350   5.949  19.862  0.00  0.00    +0.000 A 
ATOM      6  C   UNL     1       1.676   7.042  20.415  0.00  0.00    +0.000 A 
ATOM      7  O   UNL     1       2.334   4.815  20.640  0.00  0.00    +0.000 OA
ATOM      8  C   UNL     1       3.276   3.838  20.203  0.00  0.00    +0.000 C 
ATOM      9  C   UNL     1       3.252   3.661  18.689  0.00  0.00    +0.000 C 
ATOM     10  N   UNL     1       3.656   4.912  18.038  0.00  0.00    +0.000 N 
ENDROOT
BRANCH  10  11
ATOM     11  C   UNL     1       4.741   4.876  17.124  0.00  0.00    +0.000 A 
ATOM     12  C   UNL     1       4.738   3.953  16.054  0.00  0.00    +0.000 A 
ATOM     13  C   UNL     1       5.778   3.904  15.134  0.00  0.00    +0.000 A 
ATOM     14  N   UNL     1       6.846   4.717  15.127  0.00  0.00    +0.000 NA
ATOM     15  C   UNL     1       6.828   5.602  16.134  0.00  0.00    +0.000 A 
ATOM     16  N   UNL     1       7.792   6.551  16.315  0.00  0.00    +0.000 N 
ATOM     17  C   UNL     1       7.514   7.302  17.421  0.00  0.00    +0.000 A 
ATOM     18  C   UNL     1       6.363   6.795  17.981  0.00  0.00    +0.000 A 
ATOM     19  C   UNL     1       5.870   5.739  17.144  0.00  0.00    +0.000 A 
ATOM     20  H   UNL     1       8.585   6.660  15.695  0.00  0.00    +0.000 HD
ENDBRANCH  10  11
TORSDOF 1
ENDMDL
