MODEL 1
REMARK VINA RESULT:      -8.5      0.000      0.000
REMARK  Name = 
REMARK  7 active torsions:
REMARK  status: ('A' for Active; 'I' for Inactive)
REMARK    1  A    between atoms: N_2  and  C_4
REMARK    2  A    between atoms: C_6  and  C_7
REMARK    3  A    between atoms: C_7  and  S_8
REMARK    4  A    between atoms: S_8  and  C_9
REMARK    5  A    between atoms: C_12  and  C_13
REMARK    6  A    between atoms: C_16  and  O_17
REMARK    7  A    between atoms: C_22  and  N_23
REMARK                            x       y       z     vdW  Elec       q    Type
REMARK                         _______ _______ _______ _____ _____    ______ ____
ROOT
ATOM      1  S   UNL     1       3.755   2.644  19.337  0.00  0.00    +0.000 S 
ENDROOT
BRANCH   1   2
ATOM      2  C   UNL     1       2.918   4.046  19.935  0.00  0.00    +0.000 A 
ATOM      3  N   UNL     1       2.274   4.133  21.081  0.00  0.00    +0.000 NA
ATOM      4  N   UNL     1       1.790   5.429  21.168  0.00  0.00    +0.000 NA
ATOM      5  C   UNL     1       2.160   6.043  20.060  0.00  0.00    +0.000 A 
ATOM      6  O   UNL     1       2.885   5.224  19.234  0.00  0.00    +0.000 OA
BRANCH   5   7
ATOM      7  C   UNL     1       1.907   7.402  19.589  0.00  0.00    +0.000 A 
ATOM      8  C   UNL     1       1.305   8.352  20.434  0.00  0.00    +0.000 A 
ATOM      9  C   UNL     1       1.028   9.648  19.977  0.00  0.00    +0.000 A 
ATOM     10  C   UNL     1       1.349   9.999  18.671  0.00  0.00    +0.000 A 
ATOM     11  C   UNL     1       1.954   9.082  17.822  0.00  0.00    +0.000 A 
ATOM     12  C   UNL     1       2.234   7.792  18.279  0.00  0.00    +0.000 A 
BRANCH  10  13
ATOM     13  O   UNL     1       1.081  11.239  18.173  0.00  0.00    +0.000 OA
ATOM     14  H   UNL     1       1.217  11.896  18.876  0.00  0.00    +0.000 HD
ENDBRANCH  10  13
ENDBRANCH   5   7
ENDBRANCH   1   2
BRANCH   1  15
ATOM     15  C   UNL     1       3.835   3.010  17.565  0.00  0.00    +0.000 C 
BRANCH  15  18
ATOM     16  C   UNL     1       6.910   5.273  17.916  0.00  0.00    +0.000 A 
ATOM     17  C   UNL     1       5.766   4.520  18.232  0.00  0.00    +0.000 A 
ATOM     18  C   UNL     1       5.049   3.854  17.221  0.00  0.00    +0.000 A 
ATOM     19  C   UNL     1       5.480   3.986  15.889  0.00  0.00    +0.000 A 
ATOM     20  C   UNL     1       6.630   4.738  15.584  0.00  0.00    +0.000 A 
ATOM     21  C   UNL     1       7.355   5.385  16.593  0.00  0.00    +0.000 A 
BRANCH  16  23
ATOM     22  O   UNL     1       8.268   6.982  18.703  0.00  0.00    +0.000 OA
ATOM     23  N   UNL     1       7.661   5.940  18.987  0.00  0.00    +0.000 N 
ATOM     24  O   UNL     1       7.639   5.425  20.113  0.00  0.00    +0.000 OA
ENDBRANCH  16  23
BRANCH  20  25
ATOM     25  N   UNL     1       7.090   4.832  14.190  0.00  0.00    +0.000 N 
ATOM     26  O   UNL     1       8.001   5.632  13.939  0.00  0.00    +0.000 OA
ATOM     27  O   UNL     1       6.532   4.110  13.353  0.00  0.00    +0.000 OA
ENDBRANCH  20  25
ENDBRANCH  15  18
ENDBRANCH   1  15
TORSDOF 7
ENDMDL
MODEL 2
REMARK VINA RESULT:      -8.5      0.103      3.054
REMARK  Name = 
REMARK  7 active torsions:
REMARK  status: ('A' for Active; 'I' for Inactive)
REMARK    1  A    between atoms: N_2  and  C_4
REMARK    2  A    between atoms: C_6  and  C_7
REMARK    3  A    between atoms: C_7  and  S_8
REMARK    4  A    between atoms: S_8  and  C_9
REMARK    5  A    between atoms: C_12  and  C_13
REMARK    6  A    between atoms: C_16  and  O_17
REMARK    7  A    between atoms: C_22  and  N_23
REMARK                            x       y       z     vdW  Elec       q    Type
REMARK                         _______ _______ _______ _____ _____    ______ ____
ROOT
ATOM      1  S   UNL     1       3.746   2.644  19.464  0.00  0.00    +0.000 S 
ENDROOT
BRANCH   1   2
ATOM      2  C   UNL     1       2.904   4.063  20.012  0.00  0.00    +0.000 A 
ATOM      3  N   UNL     1       2.261   4.188  21.155  0.00  0.00    +0.000 NA
ATOM      4  N   UNL     1       1.771   5.484  21.196  0.00  0.00    +0.000 NA
ATOM      5  C   UNL     1       2.136   6.059  20.066  0.00  0.00    +0.000 A 
ATOM      6  O   UNL     1       2.864   5.214  19.268  0.00  0.00    +0.000 OA
BRANCH   5   7
ATOM      7  C   UNL     1       1.876   7.399  19.546  0.00  0.00    +0.000 A 
ATOM      8  C   UNL     1       2.243   7.739  18.231  0.00  0.00    +0.000 A 
ATOM      9  C   UNL     1       2.027   9.034  17.736  0.00  0.00    +0.000 A 
ATOM     10  C   UNL     1       1.446   9.993  18.556  0.00  0.00    +0.000 A 
ATOM     11  C   UNL     1       1.065   9.678  19.853  0.00  0.00    +0.000 A 
ATOM     12  C   UNL     1       1.277   8.387  20.344  0.00  0.00    +0.000 A 
BRANCH  10  13
ATOM     13  O   UNL     1       1.235  11.271  18.129  0.00  0.00    +0.000 OA
ATOM     14  H   UNL     1       0.360  11.322  17.709  0.00  0.00    +0.000 HD
ENDBRANCH  10  13
ENDBRANCH   5   7
ENDBRANCH   1   2
BRANCH   1  15
ATOM     15  C   UNL     1       3.849   2.960  17.684  0.00  0.00    +0.000 C 
BRANCH  15  18
ATOM     16  C   UNL     1       6.624   4.665  15.661  0.00  0.00    +0.000 A 
ATOM     17  C   UNL     1       5.506   3.880  15.993  0.00  0.00    +0.000 A 
ATOM     18  C   UNL     1       5.078   3.777  17.329  0.00  0.00    +0.000 A 
ATOM     19  C   UNL     1       5.810   4.447  18.325  0.00  0.00    +0.000 A 
ATOM     20  C   UNL     1       6.925   5.234  17.982  0.00  0.00    +0.000 A 
ATOM     21  C   UNL     1       7.339   5.352  16.650  0.00  0.00    +0.000 A 
BRANCH  16  23
ATOM     22  O   UNL     1       7.971   5.557  13.996  0.00  0.00    +0.000 OA
ATOM     23  N   UNL     1       7.041   4.782  14.258  0.00  0.00    +0.000 N 
ATOM     24  O   UNL     1       6.441   4.095  13.420  0.00  0.00    +0.000 OA
ENDBRANCH  16  23
BRANCH  20  25
ATOM     25  N   UNL     1       7.655   5.960  19.032  0.00  0.00    +0.000 N 
ATOM     26  O   UNL     1       8.245   6.999  18.708  0.00  0.00    +0.000 OA
ATOM     27  O   UNL     1       7.641   5.483  20.175  0.00  0.00    +0.000 OA
ENDBRANCH  20  25
ENDBRANCH  15  18
ENDBRANCH   1  15
TORSDOF 7
ENDMDL
MODEL 3
REMARK VINA RESULT:      -8.5      0.310      2.950
REMARK  Name = 
REMARK  7 active torsions:
REMARK  status: ('A' for Active; 'I' for Inactive)
REMARK    1  A    between atoms: N_2  and  C_4
REMARK    2  A    between atoms: C_6  and  C_7
REMARK    3  A    between atoms: C_7  and  S_8
REMARK    4  A    between atoms: S_8  and  C_9
REMARK    5  A    between atoms: C_12  and  C_13
REMARK    6  A    between atoms: C_16  and  O_17
REMARK    7  A    between atoms: C_22  and  N_23
REMARK                            x       y       z     vdW  Elec       q    Type
REMARK                         _______ _______ _______ _____ _____    ______ ____
ROOT
ATOM      1  S   UNL     1       3.482   2.930  19.122  0.00  0.00    +0.000 S 
ENDROOT
BRANCH   1   2
ATOM      2  C   UNL     1       2.744   4.354  19.792  0.00  0.00    +0.000 A 
ATOM      3  N   UNL     1       2.194   4.453  20.984  0.00  0.00    +0.000 NA
ATOM      4  N   UNL     1       1.763   5.764  21.117  0.00  0.00    +0.000 NA
ATOM      5  C   UNL     1       2.068   6.374  19.987  0.00  0.00    +0.000 A 
ATOM      6  O   UNL     1       2.698   5.538  19.102  0.00  0.00    +0.000 OA
BRANCH   5   7
ATOM      7  C   UNL     1       1.827   7.745  19.545  0.00  0.00    +0.000 A 
ATOM      8  C   UNL     1       1.192   8.670  20.394  0.00  0.00    +0.000 A 
ATOM      9  C   UNL     1       0.926   9.978  19.964  0.00  0.00    +0.000 A 
ATOM     10  C   UNL     1       1.293  10.365  18.680  0.00  0.00    +0.000 A 
ATOM     11  C   UNL     1       1.931   9.474  17.828  0.00  0.00    +0.000 A 
ATOM     12  C   UNL     1       2.198   8.173  18.259  0.00  0.00    +0.000 A 
BRANCH  10  13
ATOM     13  O   UNL     1       1.038  11.618  18.208  0.00  0.00    +0.000 OA
ATOM     14  H   UNL     1       1.381  11.689  17.301  0.00  0.00    +0.000 HD
ENDBRANCH  10  13
ENDBRANCH   5   7
ENDBRANCH   1   2
BRANCH   1  15
ATOM     15  C   UNL     1       3.607   3.384  17.375  0.00  0.00    +0.000 C 
BRANCH  15  18
ATOM     16  C   UNL     1       6.628   4.739  15.441  0.00  0.00    +0.000 A 
ATOM     17  C   UNL     1       5.411   4.099  15.736  0.00  0.00    +0.000 A 
ATOM     18  C   UNL     1       4.938   4.042  17.059  0.00  0.00    +0.000 A 
ATOM     19  C   UNL     1       5.722   4.608  18.081  0.00  0.00    +0.000 A 
ATOM     20  C   UNL     1       6.936   5.250  17.774  0.00  0.00    +0.000 A 
ATOM     21  C   UNL     1       7.398   5.323  16.454  0.00  0.00    +0.000 A 
BRANCH  16  23
ATOM     22  O   UNL     1       6.566   4.052  13.226  0.00  0.00    +0.000 OA
ATOM     23  N   UNL     1       7.094   4.811  14.050  0.00  0.00    +0.000 N 
ATOM     24  O   UNL     1       7.983   5.631  13.782  0.00  0.00    +0.000 OA
ENDBRANCH  16  23
BRANCH  20  25
ATOM     25  N   UNL     1       7.723   5.872  18.850  0.00  0.00    +0.000 N 
ATOM     26  O   UNL     1       8.184   7.003  18.644  0.00  0.00    +0.000 OA
ATOM     27  O   UNL     1       7.883   5.222  19.892  0.00  0.00    +0.000 OA
ENDBRANCH  20  25
ENDBRANCH  15  18
ENDBRANCH   1  15
TORSDOF 7
ENDMDL
MODEL 4
REMARK VINA RESULT:      -8.3      2.307      4.082
REMARK  Name = 
REMARK  7 active torsions:
REMARK  status: ('A' for Active; 'I' for Inactive)
REMARK    1  A    between atoms: N_2  and  C_4
REMARK    2  A    between atoms: C_6  and  C_7
REMARK    3  A    between atoms: C_7  and  S_8
REMARK    4  A    between atoms: S_8  and  C_9
REMARK    5  A    between atoms: C_12  and  C_13
REMARK    6  A    between atoms: C_16  and  O_17
REMARK    7  A    between atoms: C_22  and  N_23
REMARK                            x       y       z     vdW  Elec       q    Type
REMARK                         _______ _______ _______ _____ _____    ______ ____
ROOT
ATOM      1  S   UNL     1       2.787   5.213  19.698  0.00  0.00    +0.000 S 
ENDROOT
BRANCH   1   2
ATOM      2  C   UNL     1       2.222   6.856  19.623  0.00  0.00    +0.000 A 
ATOM      3  N   UNL     1       2.415   7.696  18.628  0.00  0.00    +0.000 NA
ATOM      4  N   UNL     1       1.770   8.874  18.971  0.00  0.00    +0.000 NA
ATOM      5  C   UNL     1       1.238   8.677  20.162  0.00  0.00    +0.000 A 
ATOM      6  O   UNL     1       1.482   7.413  20.634  0.00  0.00    +0.000 OA
BRANCH   5   7
ATOM      7  C   UNL     1       0.476   9.571  21.030  0.00  0.00    +0.000 A 
ATOM      8  C   UNL     1       0.138   9.181  22.339  0.00  0.00    +0.000 A 
ATOM      9  C   UNL     1      -0.623  10.020  23.165  0.00  0.00    +0.000 A 
ATOM     10  C   UNL     1      -1.051  11.252  22.685  0.00  0.00    +0.000 A 
ATOM     11  C   UNL     1      -0.721  11.663  21.401  0.00  0.00    +0.000 A 
ATOM     12  C   UNL     1       0.041  10.829  20.579  0.00  0.00    +0.000 A 
BRANCH  10  13
ATOM     13  O   UNL     1      -1.810  12.094  23.442  0.00  0.00    +0.000 OA
ATOM     14  H   UNL     1      -2.689  12.177  23.035  0.00  0.00    +0.000 HD
ENDBRANCH  10  13
ENDBRANCH   5   7
ENDBRANCH   1   2
BRANCH   1  15
ATOM     15  C   UNL     1       3.085   4.861  17.948  0.00  0.00    +0.000 C 
BRANCH  15  18
ATOM     16  C   UNL     1       6.356   4.885  15.946  0.00  0.00    +0.000 A 
ATOM     17  C   UNL     1       5.000   4.725  16.284  0.00  0.00    +0.000 A 
ATOM     18  C   UNL     1       4.555   4.997  17.590  0.00  0.00    +0.000 A 
ATOM     19  C   UNL     1       5.497   5.398  18.555  0.00  0.00    +0.000 A 
ATOM     20  C   UNL     1       6.850   5.559  18.204  0.00  0.00    +0.000 A 
ATOM     21  C   UNL     1       7.290   5.308  16.899  0.00  0.00    +0.000 A 
BRANCH  16  23
ATOM     22  O   UNL     1       7.664   5.368  14.091  0.00  0.00    +0.000 OA
ATOM     23  N   UNL     1       6.799   4.622  14.570  0.00  0.00    +0.000 N 
ATOM     24  O   UNL     1       6.285   3.666  13.973  0.00  0.00    +0.000 OA
ENDBRANCH  16  23
BRANCH  20  25
ATOM     25  N   UNL     1       7.814   6.019  19.216  0.00  0.00    +0.000 N 
ATOM     26  O   UNL     1       7.947   5.330  20.236  0.00  0.00    +0.000 OA
ATOM     27  O   UNL     1       8.427   7.071  18.988  0.00  0.00    +0.000 OA
ENDBRANCH  20  25
ENDBRANCH  15  18
ENDBRANCH   1  15
TORSDOF 7
ENDMDL
MODEL 5
REMARK VINA RESULT:      -8.3      2.071      2.649
REMARK  Name = 
REMARK  7 active torsions:
REMARK  status: ('A' for Active; 'I' for Inactive)
REMARK    1  A    between atoms: N_2  and  C_4
REMARK    2  A    between atoms: C_6  and  C_7
REMARK    3  A    between atoms: C_7  and  S_8
REMARK    4  A    between atoms: S_8  and  C_9
REMARK    5  A    between atoms: C_12  and  C_13
REMARK    6  A    between atoms: C_16  and  O_17
REMARK    7  A    between atoms: C_22  and  N_23
REMARK                            x       y       z     vdW  Elec       q    Type
REMARK                         _______ _______ _______ _____ _____    ______ ____
ROOT
ATOM      1  S   UNL     1       2.988   4.763  19.641  0.00  0.00    +0.000 S 
ENDROOT
BRANCH   1   2
ATOM      2  C   UNL     1       2.428   6.406  19.530  0.00  0.00    +0.000 A 
ATOM      3  N   UNL     1       2.599   7.214  18.505  0.00  0.00    +0.000 NA
ATOM      4  N   UNL     1       1.968   8.405  18.827  0.00  0.00    +0.000 NA
ATOM      5  C   UNL     1       1.466   8.248  20.037  0.00  0.00    +0.000 A 
ATOM      6  O   UNL     1       1.717   6.998  20.542  0.00  0.00    +0.000 OA
BRANCH   5   7
ATOM      7  C   UNL     1       0.731   9.172  20.897  0.00  0.00    +0.000 A 
ATOM      8  C   UNL     1       0.244  10.390  20.386  0.00  0.00    +0.000 A 
ATOM      9  C   UNL     1      -0.432  11.298  21.214  0.00  0.00    +0.000 A 
ATOM     10  C   UNL     1      -0.622  10.992  22.556  0.00  0.00    +0.000 A 
ATOM     11  C   UNL     1      -0.161   9.792  23.080  0.00  0.00    +0.000 A 
ATOM     12  C   UNL     1       0.509   8.886  22.254  0.00  0.00    +0.000 A 
BRANCH  10  13
ATOM     13  O   UNL     1      -1.255  11.850  23.406  0.00  0.00    +0.000 OA
ATOM     14  H   UNL     1      -1.408  12.693  22.946  0.00  0.00    +0.000 HD
ENDBRANCH  10  13
ENDBRANCH   5   7
ENDBRANCH   1   2
BRANCH   1  15
ATOM     15  C   UNL     1       3.268   4.366  17.898  0.00  0.00    +0.000 C 
BRANCH  15  18
ATOM     16  C   UNL     1       6.924   5.520  17.990  0.00  0.00    +0.000 A 
ATOM     17  C   UNL     1       5.610   5.218  18.390  0.00  0.00    +0.000 A 
ATOM     18  C   UNL     1       4.676   4.728  17.459  0.00  0.00    +0.000 A 
ATOM     19  C   UNL     1       5.074   4.580  16.119  0.00  0.00    +0.000 A 
ATOM     20  C   UNL     1       6.392   4.880  15.729  0.00  0.00    +0.000 A 
ATOM     21  C   UNL     1       7.327   5.350  16.660  0.00  0.00    +0.000 A 
BRANCH  16  23
ATOM     22  O   UNL     1       8.364   7.140  18.817  0.00  0.00    +0.000 OA
ATOM     23  N   UNL     1       7.893   6.006  18.980  0.00  0.00    +0.000 N 
ATOM     24  O   UNL     1       8.177   5.256  19.924  0.00  0.00    +0.000 OA
ENDBRANCH  16  23
BRANCH  20  25
ATOM     25  N   UNL     1       6.802   4.680  14.331  0.00  0.00    +0.000 N 
ATOM     26  O   UNL     1       7.734   5.373  13.901  0.00  0.00    +0.000 OA
ATOM     27  O   UNL     1       6.184   3.837  13.668  0.00  0.00    +0.000 OA
ENDBRANCH  20  25
ENDBRANCH  15  18
ENDBRANCH   1  15
TORSDOF 7
ENDMDL
MODEL 6
REMARK VINA RESULT:      -8.2      4.480      7.124
REMARK  Name = 
REMARK  7 active torsions:
REMARK  status: ('A' for Active; 'I' for Inactive)
REMARK    1  A    between atoms: N_2  and  C_4
REMARK    2  A    between atoms: C_6  and  C_7
REMARK    3  A    between atoms: C_7  and  S_8
REMARK    4  A    between atoms: S_8  and  C_9
REMARK    5  A    between atoms: C_12  and  C_13
REMARK    6  A    between atoms: C_16  and  O_17
REMARK    7  A    between atoms: C_22  and  N_23
REMARK                            x       y       z     vdW  Elec       q    Type
REMARK                         _______ _______ _______ _____ _____    ______ ____
ROOT
ATOM      1  S   UNL     1       7.552   5.605  18.621  0.00  0.00    +0.000 S 
ENDROOT
BRANCH   1   2
ATOM      2  C   UNL     1       7.828   7.260  18.165  0.00  0.00    +0.000 A 
ATOM      3  N   UNL     1       7.326   7.867  17.110  0.00  0.00    +0.000 NA
ATOM      4  N   UNL     1       7.776   9.177  17.152  0.00  0.00    +0.000 NA
ATOM      5  C   UNL     1       8.536   9.278  18.226  0.00  0.00    +0.000 A 
ATOM      6  O   UNL     1       8.608   8.098  18.920  0.00  0.00    +0.000 OA
BRANCH   5   7
ATOM      7  C   UNL     1       9.298  10.405  18.757  0.00  0.00    +0.000 A 
ATOM      8  C   UNL     1       9.980  11.279  17.890  0.00  0.00    +0.000 A 
ATOM      9  C   UNL     1      10.743  12.343  18.394  0.00  0.00    +0.000 A 
ATOM     10  C   UNL     1      10.828  12.535  19.768  0.00  0.00    +0.000 A 
ATOM     11  C   UNL     1      10.154  11.693  20.642  0.00  0.00    +0.000 A 
ATOM     12  C   UNL     1       9.392  10.636  20.139  0.00  0.00    +0.000 A 
BRANCH  10  13
ATOM     13  O   UNL     1      11.572  13.541  20.308  0.00  0.00    +0.000 OA
ATOM     14  H   UNL     1      11.710  14.227  19.634  0.00  0.00    +0.000 HD
ENDBRANCH  10  13
ENDBRANCH   5   7
ENDBRANCH   1   2
BRANCH   1  15
ATOM     15  C   UNL     1       6.564   5.013  17.224  0.00  0.00    +0.000 C 
BRANCH  15  18
ATOM     16  C   UNL     1       2.902   4.062  17.847  0.00  0.00    +0.000 A 
ATOM     17  C   UNL     1       4.274   3.965  17.554  0.00  0.00    +0.000 A 
ATOM     18  C   UNL     1       5.076   5.120  17.504  0.00  0.00    +0.000 A 
ATOM     19  C   UNL     1       4.471   6.371  17.720  0.00  0.00    +0.000 A 
ATOM     20  C   UNL     1       3.098   6.456  18.018  0.00  0.00    +0.000 A 
ATOM     21  C   UNL     1       2.304   5.305  18.087  0.00  0.00    +0.000 A 
BRANCH  16  23
ATOM     22  O   UNL     1       0.902   2.963  18.266  0.00  0.00    +0.000 OA
ATOM     23  N   UNL     1       2.086   2.844  17.920  0.00  0.00    +0.000 N 
ATOM     24  O   UNL     1       2.627   1.769  17.627  0.00  0.00    +0.000 OA
ENDBRANCH  16  23
BRANCH  20  25
ATOM     25  N   UNL     1       2.491   7.770  18.282  0.00  0.00    +0.000 N 
ATOM     26  O   UNL     1       2.014   7.966  19.408  0.00  0.00    +0.000 OA
ATOM     27  O   UNL     1       2.487   8.595  17.359  0.00  0.00    +0.000 OA
ENDBRANCH  20  25
ENDBRANCH  15  18
ENDBRANCH   1  15
TORSDOF 7
ENDMDL
MODEL 7
REMARK VINA RESULT:      -8.2      0.721      1.375
REMARK  Name = 
REMARK  7 active torsions:
REMARK  status: ('A' for Active; 'I' for Inactive)
REMARK    1  A    between atoms: N_2  and  C_4
REMARK    2  A    between atoms: C_6  and  C_7
REMARK    3  A    between atoms: C_7  and  S_8
REMARK    4  A    between atoms: S_8  and  C_9
REMARK    5  A    between atoms: C_12  and  C_13
REMARK    6  A    between atoms: C_16  and  O_17
REMARK    7  A    between atoms: C_22  and  N_23
REMARK                            x       y       z     vdW  Elec       q    Type
REMARK                         _______ _______ _______ _____ _____    ______ ____
ROOT
ATOM      1  S   UNL     1       4.350   3.153  19.194  0.00  0.00    +0.000 S 
ENDROOT
BRANCH   1   2
ATOM      2  C   UNL     1       3.258   4.389  19.745  0.00  0.00    +0.000 A 
ATOM      3  N   UNL     1       2.435   4.295  20.768  0.00  0.00    +0.000 NA
ATOM      4  N   UNL     1       1.783   5.514  20.868  0.00  0.00    +0.000 NA
ATOM      5  C   UNL     1       2.243   6.266  19.887  0.00  0.00    +0.000 A 
ATOM      6  O   UNL     1       3.188   5.616  19.136  0.00  0.00    +0.000 OA
BRANCH   5   7
ATOM      7  C   UNL     1       1.897   7.626  19.481  0.00  0.00    +0.000 A 
ATOM      8  C   UNL     1       2.192   8.082  18.183  0.00  0.00    +0.000 A 
ATOM      9  C   UNL     1       1.895   9.397  17.797  0.00  0.00    +0.000 A 
ATOM     10  C   UNL     1       1.304  10.263  18.709  0.00  0.00    +0.000 A 
ATOM     11  C   UNL     1       0.993   9.833  19.992  0.00  0.00    +0.000 A 
ATOM     12  C   UNL     1       1.286   8.521  20.375  0.00  0.00    +0.000 A 
BRANCH  10  13
ATOM     13  O   UNL     1       1.014  11.556  18.390  0.00  0.00    +0.000 OA
ATOM     14  H   UNL     1       0.261  11.567  17.776  0.00  0.00    +0.000 HD
ENDBRANCH  10  13
ENDBRANCH   5   7
ENDBRANCH   1   2
BRANCH   1  15
ATOM     15  C   UNL     1       4.151   3.279  17.399  0.00  0.00    +0.000 C 
BRANCH  15  18
ATOM     16  C   UNL     1       6.953   5.862  16.975  0.00  0.00    +0.000 A 
ATOM     17  C   UNL     1       5.926   5.090  17.546  0.00  0.00    +0.000 A 
ATOM     18  C   UNL     1       5.234   4.139  16.774  0.00  0.00    +0.000 A 
ATOM     19  C   UNL     1       5.568   4.003  15.414  0.00  0.00    +0.000 A 
ATOM     20  C   UNL     1       6.601   4.778  14.853  0.00  0.00    +0.000 A 
ATOM     21  C   UNL     1       7.302   5.710  15.627  0.00  0.00    +0.000 A 
BRANCH  16  23
ATOM     22  O   UNL     1       7.854   7.968  17.342  0.00  0.00    +0.000 OA
ATOM     23  N   UNL     1       7.682   6.831  17.803  0.00  0.00    +0.000 N 
ATOM     24  O   UNL     1       8.076   6.456  18.916  0.00  0.00    +0.000 OA
ENDBRANCH  16  23
BRANCH  20  25
ATOM     25  N   UNL     1       6.964   4.592  13.440  0.00  0.00    +0.000 N 
ATOM     26  O   UNL     1       6.446   3.645  12.834  0.00  0.00    +0.000 OA
ATOM     27  O   UNL     1       7.772   5.391  12.947  0.00  0.00    +0.000 OA
ENDBRANCH  20  25
ENDBRANCH  15  18
ENDBRANCH   1  15
TORSDOF 7
ENDMDL
MODEL 8
REMARK VINA RESULT:      -8.2      1.707      3.709
REMARK  Name = 
REMARK  7 active torsions:
REMARK  status: ('A' for Active; 'I' for Inactive)
REMARK    1  A    between atoms: N_2  and  C_4
REMARK    2  A    between atoms: C_6  and  C_7
REMARK    3  A    between atoms: C_7  and  S_8
REMARK    4  A    between atoms: S_8  and  C_9
REMARK    5  A    between atoms: C_12  and  C_13
REMARK    6  A    between atoms: C_16  and  O_17
REMARK    7  A    between atoms: C_22  and  N_23
REMARK                            x       y       z     vdW  Elec       q    Type
REMARK                         _______ _______ _______ _____ _____    ______ ____
ROOT
ATOM      1  S   UNL     1       2.991   3.961  19.623  0.00  0.00    +0.000 S 
ENDROOT
BRANCH   1   2
ATOM      2  C   UNL     1       2.530   5.621  19.387  0.00  0.00    +0.000 A 
ATOM      3  N   UNL     1       2.673   6.314  18.277  0.00  0.00    +0.000 NA
ATOM      4  N   UNL     1       2.145   7.573  18.522  0.00  0.00    +0.000 NA
ATOM      5  C   UNL     1       1.727   7.566  19.774  0.00  0.00    +0.000 A 
ATOM      6  O   UNL     1       1.936   6.355  20.382  0.00  0.00    +0.000 OA
BRANCH   5   7
ATOM      7  C   UNL     1       1.119   8.617  20.585  0.00  0.00    +0.000 A 
ATOM      8  C   UNL     1       0.800   9.865  20.018  0.00  0.00    +0.000 A 
ATOM      9  C   UNL     1       0.248  10.890  20.799  0.00  0.00    +0.000 A 
ATOM     10  C   UNL     1       0.015  10.673  22.152  0.00  0.00    +0.000 A 
ATOM     11  C   UNL     1       0.312   9.447  22.732  0.00  0.00    +0.000 A 
ATOM     12  C   UNL     1       0.858   8.424  21.952  0.00  0.00    +0.000 A 
BRANCH  10  13
ATOM     13  O   UNL     1      -0.500  11.644  22.957  0.00  0.00    +0.000 OA
ATOM     14  H   UNL     1      -0.155  12.506  22.671  0.00  0.00    +0.000 HD
ENDBRANCH  10  13
ENDBRANCH   5   7
ENDBRANCH   1   2
BRANCH   1  15
ATOM     15  C   UNL     1       3.479   3.488  17.945  0.00  0.00    +0.000 C 
BRANCH  15  18
ATOM     16  C   UNL     1       6.492   4.642  15.873  0.00  0.00    +0.000 A 
ATOM     17  C   UNL     1       5.260   4.066  16.228  0.00  0.00    +0.000 A 
ATOM     18  C   UNL     1       4.827   4.077  17.566  0.00  0.00    +0.000 A 
ATOM     19  C   UNL     1       5.665   4.644  18.542  0.00  0.00    +0.000 A 
ATOM     20  C   UNL     1       6.895   5.222  18.175  0.00  0.00    +0.000 A 
ATOM     21  C   UNL     1       7.317   5.229  16.840  0.00  0.00    +0.000 A 
BRANCH  16  23
ATOM     22  O   UNL     1       6.314   3.900  13.682  0.00  0.00    +0.000 OA
ATOM     23  N   UNL     1       6.917   4.645  14.467  0.00  0.00    +0.000 N 
ATOM     24  O   UNL     1       7.848   5.397  14.147  0.00  0.00    +0.000 OA
ENDBRANCH  16  23
BRANCH  20  25
ATOM     25  N   UNL     1       7.740   5.848  19.204  0.00  0.00    +0.000 N 
ATOM     26  O   UNL     1       7.800   5.298  20.311  0.00  0.00    +0.000 OA
ATOM     27  O   UNL     1       8.334   6.892  18.900  0.00  0.00    +0.000 OA
ENDBRANCH  20  25
ENDBRANCH  15  18
ENDBRANCH   1  15
TORSDOF 7
ENDMDL
MODEL 9
REMARK VINA RESULT:      -8.1      0.980      3.222
REMARK  Name = 
REMARK  7 active torsions:
REMARK  status: ('A' for Active; 'I' for Inactive)
REMARK    1  A    between atoms: N_2  and  C_4
REMARK    2  A    between atoms: C_6  and  C_7
REMARK    3  A    between atoms: C_7  and  S_8
REMARK    4  A    between atoms: S_8  and  C_9
REMARK    5  A    between atoms: C_12  and  C_13
REMARK    6  A    between atoms: C_16  and  O_17
REMARK    7  A    between atoms: C_22  and  N_23
REMARK                            x       y       z     vdW  Elec       q    Type
REMARK                         _______ _______ _______ _____ _____    ______ ____
ROOT
ATOM      1  S   UNL     1       2.340   3.575  17.445  0.00  0.00    +0.000 S 
ENDROOT
BRANCH   1   2
ATOM      2  C   UNL     1       2.268   4.931  18.530  0.00  0.00    +0.000 A 
ATOM      3  N   UNL     1       2.491   4.898  19.827  0.00  0.00    +0.000 NA
ATOM      4  N   UNL     1       2.361   6.199  20.287  0.00  0.00    +0.000 NA
ATOM      5  C   UNL     1       2.052   6.938  19.239  0.00  0.00    +0.000 A 
ATOM      6  O   UNL     1       1.982   6.197  18.087  0.00  0.00    +0.000 OA
BRANCH   5   7
ATOM      7  C   UNL     1       1.763   8.365  19.126  0.00  0.00    +0.000 A 
ATOM      8  C   UNL     1       2.195   9.095  18.003  0.00  0.00    +0.000 A 
ATOM      9  C   UNL     1       1.952  10.473  17.904  0.00  0.00    +0.000 A 
ATOM     10  C   UNL     1       1.278  11.126  18.928  0.00  0.00    +0.000 A 
ATOM     11  C   UNL     1       0.832  10.425  20.040  0.00  0.00    +0.000 A 
ATOM     12  C   UNL     1       1.071   9.052  20.137  0.00  0.00    +0.000 A 
BRANCH  10  13
ATOM     13  O   UNL     1       1.036  12.467  18.889  0.00  0.00    +0.000 OA
ATOM     14  H   UNL     1       0.121  12.630  19.172  0.00  0.00    +0.000 HD
ENDBRANCH  10  13
ENDBRANCH   5   7
ENDBRANCH   1   2
BRANCH   1  15
ATOM     15  C   UNL     1       3.911   2.816  17.930  0.00  0.00    +0.000 C 
BRANCH  15  18
ATOM     16  C   UNL     1       6.540   4.606  15.788  0.00  0.00    +0.000 A 
ATOM     17  C   UNL     1       5.463   3.786  16.168  0.00  0.00    +0.000 A 
ATOM     18  C   UNL     1       5.097   3.672  17.522  0.00  0.00    +0.000 A 
ATOM     19  C   UNL     1       5.849   4.366  18.485  0.00  0.00    +0.000 A 
ATOM     20  C   UNL     1       6.923   5.188  18.094  0.00  0.00    +0.000 A 
ATOM     21  C   UNL     1       7.275   5.317  16.745  0.00  0.00    +0.000 A 
BRANCH  16  23
ATOM     22  O   UNL     1       7.797   5.525  14.068  0.00  0.00    +0.000 OA
ATOM     23  N   UNL     1       6.892   4.734  14.368  0.00  0.00    +0.000 N 
ATOM     24  O   UNL     1       6.267   4.038  13.555  0.00  0.00    +0.000 OA
ENDBRANCH  16  23
BRANCH  20  25
ATOM     25  N   UNL     1       7.673   5.940  19.112  0.00  0.00    +0.000 N 
ATOM     26  O   UNL     1       8.235   6.984  18.756  0.00  0.00    +0.000 OA
ATOM     27  O   UNL     1       7.704   5.476  20.260  0.00  0.00    +0.000 OA
ENDBRANCH  20  25
ENDBRANCH  15  18
ENDBRANCH   1  15
TORSDOF 7
ENDMDL
