MODEL 1
REMARK VINA RESULT:      -6.9      0.000      0.000
REMARK  Name = 
REMARK  6 active torsions:
REMARK  status: ('A' for Active; 'I' for Inactive)
REMARK    1  A    between atoms: C_1  and  C_2
REMARK    2  A    between atoms: C_3  and  C_4
REMARK    3  A    between atoms: C_13  and  S_14
REMARK    4  A    between atoms: S_14  and  C_15
REMARK    5  A    between atoms: C_15  and  C_16
REMARK    6  A    between atoms: C_16  and  O_18
REMARK                            x       y       z     vdW  Elec       q    Type
REMARK                         _______ _______ _______ _____ _____    ______ ____
ROOT
ATOM      1  C   UNL     1       4.191   2.951  18.533  0.00  0.00    +0.000 C 
ATOM      2  C   UNL     1       3.362   4.075  19.081  0.00  0.00    +0.000 A 
ATOM      3  C   UNL     1       2.493   3.962  20.168  0.00  0.00    +0.000 A 
ATOM      4  S   UNL     1       1.713   5.454  20.506  0.00  0.00    +0.000 S 
ATOM      5  C   UNL     1       2.515   6.256  19.248  0.00  0.00    +0.000 A 
ATOM      6  N   UNL     1       2.269   7.556  19.026  0.00  0.00    +0.000 NA
ATOM      7  C   UNL     1       2.975   8.057  18.015  0.00  0.00    +0.000 A 
ATOM      8  N   UNL     1       3.873   7.412  17.249  0.00  0.00    +0.000 NA
ATOM      9  C   UNL     1       4.065   6.092  17.488  0.00  0.00    +0.000 A 
ATOM     10  C   UNL     1       3.383   5.438  18.539  0.00  0.00    +0.000 A 
ENDROOT
BRANCH   3  11
ATOM     11  C   UNL     1       2.152   2.793  21.051  0.00  0.00    +0.000 C 
ATOM     12  F   UNL     1       3.216   2.296  21.729  0.00  0.00    +0.000 F 
ATOM     13  F   UNL     1       1.226   3.123  21.989  0.00  0.00    +0.000 F 
ATOM     14  F   UNL     1       1.642   1.755  20.338  0.00  0.00    +0.000 F 
ENDBRANCH   3  11
BRANCH   9  15
ATOM     15  S   UNL     1       5.142   5.189  16.411  0.00  0.00    +0.000 S 
BRANCH  15  16
ATOM     16  C   UNL     1       6.781   5.759  16.921  0.00  0.00    +0.000 C 
BRANCH  16  17
ATOM     17  C   UNL     1       7.345   4.945  18.060  0.00  0.00    +0.000 C 
ATOM     18  O   UNL     1       7.016   5.076  19.231  0.00  0.00    +0.000 OA
BRANCH  17  19
ATOM     19  O   UNL     1       8.271   4.035  17.671  0.00  0.00    +0.000 OA
ATOM     20  H   UNL     1       9.187   4.366  17.807  0.00  0.00    +0.000 HD
ENDBRANCH  17  19
ENDBRANCH  16  17
ENDBRANCH  15  16
ENDBRANCH   9  15
TORSDOF 5
ENDMDL
MODEL 2
REMARK VINA RESULT:      -6.6      3.752      5.159
REMARK  Name = 
REMARK  6 active torsions:
REMARK  status: ('A' for Active; 'I' for Inactive)
REMARK    1  A    between atoms: C_1  and  C_2
REMARK    2  A    between atoms: C_3  and  C_4
REMARK    3  A    between atoms: C_13  and  S_14
REMARK    4  A    between atoms: S_14  and  C_15
REMARK    5  A    between atoms: C_15  and  C_16
REMARK    6  A    between atoms: C_16  and  O_18
REMARK                            x       y       z     vdW  Elec       q    Type
REMARK                         _______ _______ _______ _____ _____    ______ ____
ROOT
ATOM      1  C   UNL     1       4.827   3.395  18.756  0.00  0.00    +0.000 C 
ATOM      2  C   UNL     1       4.708   4.727  18.077  0.00  0.00    +0.000 A 
ATOM      3  C   UNL     1       5.485   5.137  16.992  0.00  0.00    +0.000 A 
ATOM      4  S   UNL     1       5.070   6.723  16.484  0.00  0.00    +0.000 S 
ATOM      5  C   UNL     1       3.865   6.878  17.666  0.00  0.00    +0.000 A 
ATOM      6  N   UNL     1       3.155   8.013  17.745  0.00  0.00    +0.000 NA
ATOM      7  C   UNL     1       2.239   7.991  18.709  0.00  0.00    +0.000 A 
ATOM      8  N   UNL     1       1.970   6.980  19.556  0.00  0.00    +0.000 NA
ATOM      9  C   UNL     1       2.736   5.866  19.461  0.00  0.00    +0.000 A 
ATOM     10  C   UNL     1       3.740   5.756  18.473  0.00  0.00    +0.000 A 
ENDROOT
BRANCH   3  11
ATOM     11  C   UNL     1       6.577   4.436  16.231  0.00  0.00    +0.000 C 
ATOM     12  F   UNL     1       7.077   5.164  15.203  0.00  0.00    +0.000 F 
ATOM     13  F   UNL     1       7.634   4.135  17.030  0.00  0.00    +0.000 F 
ATOM     14  F   UNL     1       6.145   3.268  15.690  0.00  0.00    +0.000 F 
ENDBRANCH   3  11
BRANCH   9  15
ATOM     15  S   UNL     1       2.492   4.573  20.647  0.00  0.00    +0.000 S 
BRANCH  15  16
ATOM     16  C   UNL     1       0.987   3.768  20.051  0.00  0.00    +0.000 C 
BRANCH  16  17
ATOM     17  C   UNL     1       1.206   3.022  18.757  0.00  0.00    +0.000 C 
ATOM     18  O   UNL     1       1.109   3.525  17.647  0.00  0.00    +0.000 OA
BRANCH  17  19
ATOM     19  O   UNL     1       1.526   1.717  18.930  0.00  0.00    +0.000 OA
ATOM     20  H   UNL     1       2.169   1.406  18.254  0.00  0.00    +0.000 HD
ENDBRANCH  17  19
ENDBRANCH  16  17
ENDBRANCH  15  16
ENDBRANCH   9  15
TORSDOF 5
ENDMDL
MODEL 3
REMARK VINA RESULT:      -6.5      0.650      1.251
REMARK  Name = 
REMARK  6 active torsions:
REMARK  status: ('A' for Active; 'I' for Inactive)
REMARK    1  A    between atoms: C_1  and  C_2
REMARK    2  A    between atoms: C_3  and  C_4
REMARK    3  A    between atoms: C_13  and  S_14
REMARK    4  A    between atoms: S_14  and  C_15
REMARK    5  A    between atoms: C_15  and  C_16
REMARK    6  A    between atoms: C_16  and  O_18
REMARK                            x       y       z     vdW  Elec       q    Type
REMARK                         _______ _______ _______ _____ _____    ______ ____
ROOT
ATOM      1  C   UNL     1       4.261   3.365  18.403  0.00  0.00    +0.000 C 
ATOM      2  C   UNL     1       3.355   4.355  19.072  0.00  0.00    +0.000 A 
ATOM      3  C   UNL     1       2.541   4.068  20.170  0.00  0.00    +0.000 A 
ATOM      4  S   UNL     1       1.642   5.445  20.663  0.00  0.00    +0.000 S 
ATOM      5  C   UNL     1       2.321   6.425  19.458  0.00  0.00    +0.000 A 
ATOM      6  N   UNL     1       1.949   7.710  19.360  0.00  0.00    +0.000 NA
ATOM      7  C   UNL     1       2.568   8.360  18.379  0.00  0.00    +0.000 A 
ATOM      8  N   UNL     1       3.492   7.871  17.532  0.00  0.00    +0.000 NA
ATOM      9  C   UNL     1       3.812   6.559  17.646  0.00  0.00    +0.000 A 
ATOM     10  C   UNL     1       3.232   5.755  18.654  0.00  0.00    +0.000 A 
ENDROOT
BRANCH   3  11
ATOM     11  C   UNL     1       2.340   2.800  20.954  0.00  0.00    +0.000 C 
ATOM     12  F   UNL     1       1.523   2.948  22.026  0.00  0.00    +0.000 F 
ATOM     13  F   UNL     1       1.792   1.818  20.193  0.00  0.00    +0.000 F 
ATOM     14  F   UNL     1       3.514   2.317  21.439  0.00  0.00    +0.000 F 
ENDBRANCH   3  11
BRANCH   9  15
ATOM     15  S   UNL     1       4.926   5.857  16.462  0.00  0.00    +0.000 S 
BRANCH  15  16
ATOM     16  C   UNL     1       6.535   6.068  17.259  0.00  0.00    +0.000 C 
BRANCH  16  17
ATOM     17  C   UNL     1       7.443   4.880  17.048  0.00  0.00    +0.000 C 
ATOM     18  O   UNL     1       7.841   4.503  15.955  0.00  0.00    +0.000 OA
BRANCH  17  19
ATOM     19  O   UNL     1       7.787   4.249  18.196  0.00  0.00    +0.000 OA
ATOM     20  H   UNL     1       7.382   4.677  18.984  0.00  0.00    +0.000 HD
ENDBRANCH  17  19
ENDBRANCH  16  17
ENDBRANCH  15  16
ENDBRANCH   9  15
TORSDOF 5
ENDMDL
MODEL 4
REMARK VINA RESULT:      -6.5      0.577      1.024
REMARK  Name = 
REMARK  6 active torsions:
REMARK  status: ('A' for Active; 'I' for Inactive)
REMARK    1  A    between atoms: C_1  and  C_2
REMARK    2  A    between atoms: C_3  and  C_4
REMARK    3  A    between atoms: C_13  and  S_14
REMARK    4  A    between atoms: S_14  and  C_15
REMARK    5  A    between atoms: C_15  and  C_16
REMARK    6  A    between atoms: C_16  and  O_18
REMARK                            x       y       z     vdW  Elec       q    Type
REMARK                         _______ _______ _______ _____ _____    ______ ____
ROOT
ATOM      1  C   UNL     1       4.026   2.668  18.469  0.00  0.00    +0.000 C 
ATOM      2  C   UNL     1       3.310   3.873  19.004  0.00  0.00    +0.000 A 
ATOM      3  C   UNL     1       2.459   3.864  20.111  0.00  0.00    +0.000 A 
ATOM      4  S   UNL     1       1.820   5.425  20.425  0.00  0.00    +0.000 S 
ATOM      5  C   UNL     1       2.660   6.123  19.130  0.00  0.00    +0.000 A 
ATOM      6  N   UNL     1       2.522   7.434  18.879  0.00  0.00    +0.000 NA
ATOM      7  C   UNL     1       3.246   7.847  17.842  0.00  0.00    +0.000 A 
ATOM      8  N   UNL     1       4.068   7.107  17.075  0.00  0.00    +0.000 NA
ATOM      9  C   UNL     1       4.149   5.781  17.344  0.00  0.00    +0.000 A 
ATOM     10  C   UNL     1       3.437   5.215  18.425  0.00  0.00    +0.000 A 
ENDROOT
BRANCH   3  11
ATOM     11  C   UNL     1       2.038   2.750  21.031  0.00  0.00    +0.000 C 
ATOM     12  F   UNL     1       1.565   1.658  20.381  0.00  0.00    +0.000 F 
ATOM     13  F   UNL     1       3.069   2.316  21.801  0.00  0.00    +0.000 F 
ATOM     14  F   UNL     1       1.050   3.142  21.876  0.00  0.00    +0.000 F 
ENDBRANCH   3  11
BRANCH   9  15
ATOM     15  S   UNL     1       5.120   4.762  16.270  0.00  0.00    +0.000 S 
BRANCH  15  16
ATOM     16  C   UNL     1       6.763   5.508  16.393  0.00  0.00    +0.000 C 
BRANCH  16  17
ATOM     17  C   UNL     1       7.315   5.456  17.797  0.00  0.00    +0.000 C 
ATOM     18  O   UNL     1       7.753   6.425  18.402  0.00  0.00    +0.000 OA
BRANCH  17  19
ATOM     19  O   UNL     1       7.288   4.218  18.345  0.00  0.00    +0.000 OA
ATOM     20  H   UNL     1       6.398   3.806  18.275  0.00  0.00    +0.000 HD
ENDBRANCH  17  19
ENDBRANCH  16  17
ENDBRANCH  15  16
ENDBRANCH   9  15
TORSDOF 5
ENDMDL
MODEL 5
REMARK VINA RESULT:      -6.5      0.927      1.299
REMARK  Name = 
REMARK  6 active torsions:
REMARK  status: ('A' for Active; 'I' for Inactive)
REMARK    1  A    between atoms: C_1  and  C_2
REMARK    2  A    between atoms: C_3  and  C_4
REMARK    3  A    between atoms: C_13  and  S_14
REMARK    4  A    between atoms: S_14  and  C_15
REMARK    5  A    between atoms: C_15  and  C_16
REMARK    6  A    between atoms: C_16  and  O_18
REMARK                            x       y       z     vdW  Elec       q    Type
REMARK                         _______ _______ _______ _____ _____    ______ ____
ROOT
ATOM      1  C   UNL     1       4.209   2.677  18.720  0.00  0.00    +0.000 C 
ATOM      2  C   UNL     1       3.414   3.874  19.150  0.00  0.00    +0.000 A 
ATOM      3  C   UNL     1       2.479   3.875  20.187  0.00  0.00    +0.000 A 
ATOM      4  S   UNL     1       1.765   5.423  20.389  0.00  0.00    +0.000 S 
ATOM      5  C   UNL     1       2.682   6.103  19.137  0.00  0.00    +0.000 A 
ATOM      6  N   UNL     1       2.522   7.397  18.824  0.00  0.00    +0.000 NA
ATOM      7  C   UNL     1       3.311   7.798  17.831  0.00  0.00    +0.000 A 
ATOM      8  N   UNL     1       4.214   7.061  17.160  0.00  0.00    +0.000 NA
ATOM      9  C   UNL     1       4.318   5.749  17.487  0.00  0.00    +0.000 A 
ATOM     10  C   UNL     1       3.542   5.198  18.531  0.00  0.00    +0.000 A 
ENDROOT
BRANCH   3  11
ATOM     11  C   UNL     1       2.023   2.782  21.115  0.00  0.00    +0.000 C 
ATOM     12  F   UNL     1       1.052   3.171  21.978  0.00  0.00    +0.000 F 
ATOM     13  F   UNL     1       1.519   1.720  20.433  0.00  0.00    +0.000 F 
ATOM     14  F   UNL     1       3.042   2.313  21.881  0.00  0.00    +0.000 F 
ENDBRANCH   3  11
BRANCH   9  15
ATOM     15  S   UNL     1       5.404   4.727  16.532  0.00  0.00    +0.000 S 
BRANCH  15  16
ATOM     16  C   UNL     1       6.918   4.727  17.519  0.00  0.00    +0.000 C 
BRANCH  16  17
ATOM     17  C   UNL     1       7.504   6.109  17.676  0.00  0.00    +0.000 C 
ATOM     18  O   UNL     1       7.950   6.554  18.724  0.00  0.00    +0.000 OA
BRANCH  17  19
ATOM     19  O   UNL     1       7.495   6.835  16.532  0.00  0.00    +0.000 OA
ATOM     20  H   UNL     1       8.371   6.823  16.084  0.00  0.00    +0.000 HD
ENDBRANCH  17  19
ENDBRANCH  16  17
ENDBRANCH  15  16
ENDBRANCH   9  15
TORSDOF 5
ENDMDL
MODEL 6
REMARK VINA RESULT:      -6.5      2.276      2.796
REMARK  Name = 
REMARK  6 active torsions:
REMARK  status: ('A' for Active; 'I' for Inactive)
REMARK    1  A    between atoms: C_1  and  C_2
REMARK    2  A    between atoms: C_3  and  C_4
REMARK    3  A    between atoms: C_13  and  S_14
REMARK    4  A    between atoms: S_14  and  C_15
REMARK    5  A    between atoms: C_15  and  C_16
REMARK    6  A    between atoms: C_16  and  O_18
REMARK                            x       y       z     vdW  Elec       q    Type
REMARK                         _______ _______ _______ _____ _____    ______ ____
ROOT
ATOM      1  C   UNL     1       3.578   2.136  17.589  0.00  0.00    +0.000 C 
ATOM      2  C   UNL     1       3.215   3.534  17.995  0.00  0.00    +0.000 A 
ATOM      3  C   UNL     1       2.182   3.861  18.876  0.00  0.00    +0.000 A 
ATOM      4  S   UNL     1       2.061   5.558  19.102  0.00  0.00    +0.000 S 
ATOM      5  C   UNL     1       3.363   5.874  18.065  0.00  0.00    +0.000 A 
ATOM      6  N   UNL     1       3.744   7.141  17.845  0.00  0.00    +0.000 NA
ATOM      7  C   UNL     1       4.783   7.240  17.020  0.00  0.00    +0.000 A 
ATOM      8  N   UNL     1       5.455   6.234  16.432  0.00  0.00    +0.000 NA
ATOM      9  C   UNL     1       5.014   4.972  16.656  0.00  0.00    +0.000 A 
ATOM     10  C   UNL     1       3.923   4.727  17.519  0.00  0.00    +0.000 A 
ENDROOT
BRANCH   3  11
ATOM     11  C   UNL     1       1.206   2.996  19.627  0.00  0.00    +0.000 C 
ATOM     12  F   UNL     1       0.399   3.691  20.467  0.00  0.00    +0.000 F 
ATOM     13  F   UNL     1       0.382   2.320  18.785  0.00  0.00    +0.000 F 
ATOM     14  F   UNL     1       1.838   2.070  20.393  0.00  0.00    +0.000 F 
ENDBRANCH   3  11
BRANCH   9  15
ATOM     15  S   UNL     1       5.797   3.640  15.790  0.00  0.00    +0.000 S 
BRANCH  15  16
ATOM     16  C   UNL     1       5.695   4.173  14.066  0.00  0.00    +0.000 C 
BRANCH  16  17
ATOM     17  C   UNL     1       7.005   4.720  13.553  0.00  0.00    +0.000 C 
ATOM     18  O   UNL     1       7.421   4.559  12.414  0.00  0.00    +0.000 OA
BRANCH  17  19
ATOM     19  O   UNL     1       7.702   5.419  14.481  0.00  0.00    +0.000 OA
ATOM     20  H   UNL     1       8.647   5.521  14.229  0.00  0.00    +0.000 HD
ENDBRANCH  17  19
ENDBRANCH  16  17
ENDBRANCH  15  16
ENDBRANCH   9  15
TORSDOF 5
ENDMDL
MODEL 7
REMARK VINA RESULT:      -6.4      0.967      1.120
REMARK  Name = 
REMARK  6 active torsions:
REMARK  status: ('A' for Active; 'I' for Inactive)
REMARK    1  A    between atoms: C_1  and  C_2
REMARK    2  A    between atoms: C_3  and  C_4
REMARK    3  A    between atoms: C_13  and  S_14
REMARK    4  A    between atoms: S_14  and  C_15
REMARK    5  A    between atoms: C_15  and  C_16
REMARK    6  A    between atoms: C_16  and  O_18
REMARK                            x       y       z     vdW  Elec       q    Type
REMARK                         _______ _______ _______ _____ _____    ______ ____
ROOT
ATOM      1  C   UNL     1       4.296   2.877  18.694  0.00  0.00    +0.000 C 
ATOM      2  C   UNL     1       3.414   4.002  19.148  0.00  0.00    +0.000 A 
ATOM      3  C   UNL     1       2.451   3.900  20.154  0.00  0.00    +0.000 A 
ATOM      4  S   UNL     1       1.635   5.389  20.398  0.00  0.00    +0.000 S 
ATOM      5  C   UNL     1       2.542   6.180  19.204  0.00  0.00    +0.000 A 
ATOM      6  N   UNL     1       2.308   7.474  18.940  0.00  0.00    +0.000 NA
ATOM      7  C   UNL     1       3.099   7.966  17.990  0.00  0.00    +0.000 A 
ATOM      8  N   UNL     1       4.067   7.317  17.318  0.00  0.00    +0.000 NA
ATOM      9  C   UNL     1       4.244   6.001  17.594  0.00  0.00    +0.000 A 
ATOM     10  C   UNL     1       3.475   5.357  18.589  0.00  0.00    +0.000 A 
ENDROOT
BRANCH   3  11
ATOM     11  C   UNL     1       2.040   2.741  21.020  0.00  0.00    +0.000 C 
ATOM     12  F   UNL     1       3.018   2.311  21.855  0.00  0.00    +0.000 F 
ATOM     13  F   UNL     1       0.980   3.054  21.811  0.00  0.00    +0.000 F 
ATOM     14  F   UNL     1       1.676   1.662  20.280  0.00  0.00    +0.000 F 
ENDBRANCH   3  11
BRANCH   9  15
ATOM     15  S   UNL     1       5.421   5.091  16.632  0.00  0.00    +0.000 S 
BRANCH  15  16
ATOM     16  C   UNL     1       6.894   5.117  17.680  0.00  0.00    +0.000 C 
BRANCH  16  17
ATOM     17  C   UNL     1       7.528   6.485  17.748  0.00  0.00    +0.000 C 
ATOM     18  O   UNL     1       7.494   7.307  16.843  0.00  0.00    +0.000 OA
BRANCH  17  19
ATOM     19  O   UNL     1       8.156   6.735  18.922  0.00  0.00    +0.000 OA
ATOM     20  H   UNL     1       8.149   7.693  19.144  0.00  0.00    +0.000 HD
ENDBRANCH  17  19
ENDBRANCH  16  17
ENDBRANCH  15  16
ENDBRANCH   9  15
TORSDOF 5
ENDMDL
MODEL 8
REMARK VINA RESULT:      -6.4      1.348      1.876
REMARK  Name = 
REMARK  6 active torsions:
REMARK  status: ('A' for Active; 'I' for Inactive)
REMARK    1  A    between atoms: C_1  and  C_2
REMARK    2  A    between atoms: C_3  and  C_4
REMARK    3  A    between atoms: C_13  and  S_14
REMARK    4  A    between atoms: S_14  and  C_15
REMARK    5  A    between atoms: C_15  and  C_16
REMARK    6  A    between atoms: C_16  and  O_18
REMARK                            x       y       z     vdW  Elec       q    Type
REMARK                         _______ _______ _______ _____ _____    ______ ____
ROOT
ATOM      1  C   UNL     1       3.878   2.346  18.607  0.00  0.00    +0.000 C 
ATOM      2  C   UNL     1       3.264   3.623  19.100  0.00  0.00    +0.000 A 
ATOM      3  C   UNL     1       2.454   3.727  20.232  0.00  0.00    +0.000 A 
ATOM      4  S   UNL     1       1.932   5.343  20.485  0.00  0.00    +0.000 S 
ATOM      5  C   UNL     1       2.770   5.916  19.128  0.00  0.00    +0.000 A 
ATOM      6  N   UNL     1       2.711   7.218  18.812  0.00  0.00    +0.000 NA
ATOM      7  C   UNL     1       3.423   7.528  17.732  0.00  0.00    +0.000 A 
ATOM      8  N   UNL     1       4.166   6.696  16.979  0.00  0.00    +0.000 NA
ATOM      9  C   UNL     1       4.168   5.383  17.316  0.00  0.00    +0.000 A 
ATOM     10  C   UNL     1       3.459   4.922  18.447  0.00  0.00    +0.000 A 
ENDROOT
BRANCH   3  11
ATOM     11  C   UNL     1       1.993   2.694  21.223  0.00  0.00    +0.000 C 
ATOM     12  F   UNL     1       1.394   1.621  20.649  0.00  0.00    +0.000 F 
ATOM     13  F   UNL     1       3.025   2.202  21.956  0.00  0.00    +0.000 F 
ATOM     14  F   UNL     1       1.091   3.204  22.101  0.00  0.00    +0.000 F 
ENDBRANCH   3  11
BRANCH   9  15
ATOM     15  S   UNL     1       5.030   4.247  16.266  0.00  0.00    +0.000 S 
BRANCH  15  16
ATOM     16  C   UNL     1       5.756   5.334  15.017  0.00  0.00    +0.000 C 
BRANCH  16  17
ATOM     17  C   UNL     1       7.246   5.138  14.878  0.00  0.00    +0.000 C 
ATOM     18  O   UNL     1       7.890   5.428  13.879  0.00  0.00    +0.000 OA
BRANCH  17  19
ATOM     19  O   UNL     1       7.827   4.599  15.976  0.00  0.00    +0.000 OA
ATOM     20  H   UNL     1       8.049   5.284  16.646  0.00  0.00    +0.000 HD
ENDBRANCH  17  19
ENDBRANCH  16  17
ENDBRANCH  15  16
ENDBRANCH   9  15
TORSDOF 5
ENDMDL
MODEL 9
REMARK VINA RESULT:      -6.4      1.664      1.892
REMARK  Name = 
REMARK  6 active torsions:
REMARK  status: ('A' for Active; 'I' for Inactive)
REMARK    1  A    between atoms: C_1  and  C_2
REMARK    2  A    between atoms: C_3  and  C_4
REMARK    3  A    between atoms: C_13  and  S_14
REMARK    4  A    between atoms: S_14  and  C_15
REMARK    5  A    between atoms: C_15  and  C_16
REMARK    6  A    between atoms: C_16  and  O_18
REMARK                            x       y       z     vdW  Elec       q    Type
REMARK                         _______ _______ _______ _____ _____    ______ ____
ROOT
ATOM      1  C   UNL     1       4.763   2.774  19.337  0.00  0.00    +0.000 C 
ATOM      2  C   UNL     1       3.745   3.874  19.397  0.00  0.00    +0.000 A 
ATOM      3  C   UNL     1       2.562   3.820  20.138  0.00  0.00    +0.000 A 
ATOM      4  S   UNL     1       1.645   5.260  19.963  0.00  0.00    +0.000 S 
ATOM      5  C   UNL     1       2.792   5.967  18.935  0.00  0.00    +0.000 A 
ATOM      6  N   UNL     1       2.576   7.197  18.446  0.00  0.00    +0.000 NA
ATOM      7  C   UNL     1       3.561   7.629  17.663  0.00  0.00    +0.000 A 
ATOM      8  N   UNL     1       4.697   6.981  17.349  0.00  0.00    +0.000 NA
ATOM      9  C   UNL     1       4.856   5.727  17.838  0.00  0.00    +0.000 A 
ATOM     10  C   UNL     1       3.887   5.151  18.690  0.00  0.00    +0.000 A 
ENDROOT
BRANCH   3  11
ATOM     11  C   UNL     1       1.994   2.747  21.026  0.00  0.00    +0.000 C 
ATOM     12  F   UNL     1       2.856   2.321  21.983  0.00  0.00    +0.000 F 
ATOM     13  F   UNL     1       0.882   3.171  21.680  0.00  0.00    +0.000 F 
ATOM     14  F   UNL     1       1.641   1.642  20.319  0.00  0.00    +0.000 F 
ENDBRANCH   3  11
BRANCH   9  15
ATOM     15  S   UNL     1       6.279   4.801  17.333  0.00  0.00    +0.000 S 
BRANCH  15  16
ATOM     16  C   UNL     1       5.718   4.013  15.806  0.00  0.00    +0.000 C 
BRANCH  16  17
ATOM     17  C   UNL     1       6.620   4.319  14.635  0.00  0.00    +0.000 C 
ATOM     18  O   UNL     1       7.455   5.212  14.623  0.00  0.00    +0.000 OA
BRANCH  17  19
ATOM     19  O   UNL     1       6.422   3.505  13.570  0.00  0.00    +0.000 OA
ATOM     20  H   UNL     1       5.572   3.014  13.638  0.00  0.00    +0.000 HD
ENDBRANCH  17  19
ENDBRANCH  16  17
ENDBRANCH  15  16
ENDBRANCH   9  15
TORSDOF 5
ENDMDL
