MODEL 1
REMARK VINA RESULT:      -7.5      0.000      0.000
REMARK  Name = 
REMARK  9 active torsions:
REMARK  status: ('A' for Active; 'I' for Inactive)
REMARK    1  A    between atoms: C_1  and  C_2
REMARK    2  A    between atoms: C_2  and  O_3
REMARK    3  A    between atoms: O_3  and  C_4
REMARK    4  A    between atoms: C_4  and  C_6
REMARK    5  A    between atoms: N_11  and  C_12
REMARK    6  A    between atoms: C_18  and  C_19
REMARK    7  A    between atoms: C_19  and  O_21
REMARK    8  A    between atoms: O_21  and  C_22
REMARK    9  A    between atoms: C_22  and  C_23
REMARK                            x       y       z     vdW  Elec       q    Type
REMARK                         _______ _______ _______ _____ _____    ______ ____
ROOT
ATOM      1  C   UNL     1       6.345   5.722  15.823  0.00  0.00    +0.000 C 
ATOM      2  C   UNL     1       5.110   6.542  15.788  0.00  0.00    +0.000 C 
ATOM      3  O   UNL     1       4.800   7.358  14.938  0.00  0.00    +0.000 OA
ATOM      4  C   UNL     1       4.275   6.236  17.012  0.00  0.00    +0.000 C 
ATOM      5  O   UNL     1       3.303   6.877  17.350  0.00  0.00    +0.000 OA
ATOM      6  N   UNL     1       4.827   5.115  17.604  0.00  0.00    +0.000 N 
ATOM      7  C   UNL     1       6.073   4.706  16.934  0.00  0.00    +0.000 C 
ENDROOT
BRANCH   6   8
ATOM      8  C   UNL     1       4.213   4.498  18.795  0.00  0.00    +0.000 C 
ATOM      9  C   UNL     1       2.685   4.713  18.821  0.00  0.00    +0.000 C 
ATOM     10  C   UNL     1       1.950   3.791  17.853  0.00  0.00    +0.000 C 
ATOM     11  C   UNL     1       2.259   2.325  18.126  0.00  0.00    +0.000 C 
ATOM     12  C   UNL     1       3.757   2.044  18.157  0.00  0.00    +0.000 C 
ATOM     13  C   UNL     1       4.513   3.013  19.066  0.00  0.00    +0.000 C 
ENDBRANCH   6   8
BRANCH   1  14
ATOM     14  C   UNL     1       6.718   5.032  14.560  0.00  0.00    +0.000 C 
ATOM     15  O   UNL     1       7.758   5.279  13.964  0.00  0.00    +0.000 OA
BRANCH  14  16
ATOM     16  O   UNL     1       5.805   4.106  14.181  0.00  0.00    +0.000 OA
BRANCH  16  18
ATOM     17  C   UNL     1       4.817   3.502  12.085  0.00  0.00    +0.000 C 
ATOM     18  C   UNL     1       6.080   3.459  12.927  0.00  0.00    +0.000 C 
ENDBRANCH  16  18
ENDBRANCH  14  16
ENDBRANCH   1  14
BRANCH   7  19
ATOM     19  C   UNL     1       7.315   4.764  17.820  0.00  0.00    +0.000 C 
ATOM     20  O   UNL     1       8.274   4.012  17.723  0.00  0.00    +0.000 OA
BRANCH  19  21
ATOM     21  O   UNL     1       7.145   5.713  18.781  0.00  0.00    +0.000 OA
BRANCH  21  22
ATOM     22  C   UNL     1       8.175   6.708  18.878  0.00  0.00    +0.000 C 
ATOM     23  C   UNL     1       7.893   7.866  17.939  0.00  0.00    +0.000 C 
ENDBRANCH  21  22
ENDBRANCH  19  21
ENDBRANCH   7  19
TORSDOF 7
ENDMDL
MODEL 2
REMARK VINA RESULT:      -7.5      1.796      4.485
REMARK  Name = 
REMARK  9 active torsions:
REMARK  status: ('A' for Active; 'I' for Inactive)
REMARK    1  A    between atoms: C_1  and  C_2
REMARK    2  A    between atoms: C_2  and  O_3
REMARK    3  A    between atoms: O_3  and  C_4
REMARK    4  A    between atoms: C_4  and  C_6
REMARK    5  A    between atoms: N_11  and  C_12
REMARK    6  A    between atoms: C_18  and  C_19
REMARK    7  A    between atoms: C_19  and  O_21
REMARK    8  A    between atoms: O_21  and  C_22
REMARK    9  A    between atoms: C_22  and  C_23
REMARK                            x       y       z     vdW  Elec       q    Type
REMARK                         _______ _______ _______ _____ _____    ______ ____
ROOT
ATOM      1  C   UNL     1       6.336   5.785  17.670  0.00  0.00    +0.000 C 
ATOM      2  C   UNL     1       6.770   4.723  16.729  0.00  0.00    +0.000 C 
ATOM      3  O   UNL     1       7.895   4.550  16.293  0.00  0.00    +0.000 OA
ATOM      4  C   UNL     1       5.575   3.878  16.348  0.00  0.00    +0.000 C 
ATOM      5  O   UNL     1       5.581   3.051  15.461  0.00  0.00    +0.000 OA
ATOM      6  N   UNL     1       4.547   4.227  17.206  0.00  0.00    +0.000 N 
ATOM      7  C   UNL     1       4.924   5.357  18.071  0.00  0.00    +0.000 C 
ENDROOT
BRANCH   6   8
ATOM      8  C   UNL     1       3.242   3.540  17.156  0.00  0.00    +0.000 C 
ATOM      9  C   UNL     1       3.367   2.057  17.567  0.00  0.00    +0.000 C 
ATOM     10  C   UNL     1       3.506   1.879  19.076  0.00  0.00    +0.000 C 
ATOM     11  C   UNL     1       2.345   2.516  19.827  0.00  0.00    +0.000 C 
ATOM     12  C   UNL     1       2.134   3.975  19.440  0.00  0.00    +0.000 C 
ATOM     13  C   UNL     1       2.071   4.175  17.926  0.00  0.00    +0.000 C 
ENDBRANCH   6   8
BRANCH   1  14
ATOM     14  C   UNL     1       7.186   5.991  18.873  0.00  0.00    +0.000 C 
ATOM     15  O   UNL     1       7.040   5.333  19.894  0.00  0.00    +0.000 OA
BRANCH  14  16
ATOM     16  O   UNL     1       8.128   6.947  18.690  0.00  0.00    +0.000 OA
BRANCH  16  18
ATOM     17  C   UNL     1       8.398   9.269  18.171  0.00  0.00    +0.000 C 
ATOM     18  C   UNL     1       7.791   7.952  17.718  0.00  0.00    +0.000 C 
ENDBRANCH  16  18
ENDBRANCH  14  16
ENDBRANCH   1  14
BRANCH   7  19
ATOM     19  C   UNL     1       4.074   6.611  17.879  0.00  0.00    +0.000 C 
ATOM     20  O   UNL     1       3.981   7.235  16.831  0.00  0.00    +0.000 OA
BRANCH  19  21
ATOM     21  O   UNL     1       3.518   6.971  19.068  0.00  0.00    +0.000 OA
BRANCH  21  22
ATOM     22  C   UNL     1       2.294   7.717  18.996  0.00  0.00    +0.000 C 
ATOM     23  C   UNL     1       1.670   7.858  20.372  0.00  0.00    +0.000 C 
ENDBRANCH  21  22
ENDBRANCH  19  21
ENDBRANCH   7  19
TORSDOF 7
ENDMDL
MODEL 3
REMARK VINA RESULT:      -7.2      2.408      4.643
REMARK  Name = 
REMARK  9 active torsions:
REMARK  status: ('A' for Active; 'I' for Inactive)
REMARK    1  A    between atoms: C_1  and  C_2
REMARK    2  A    between atoms: C_2  and  O_3
REMARK    3  A    between atoms: O_3  and  C_4
REMARK    4  A    between atoms: C_4  and  C_6
REMARK    5  A    between atoms: N_11  and  C_12
REMARK    6  A    between atoms: C_18  and  C_19
REMARK    7  A    between atoms: C_19  and  O_21
REMARK    8  A    between atoms: O_21  and  C_22
REMARK    9  A    between atoms: C_22  and  C_23
REMARK                            x       y       z     vdW  Elec       q    Type
REMARK                         _______ _______ _______ _____ _____    ______ ____
ROOT
ATOM      1  C   UNL     1       4.826   5.496  17.769  0.00  0.00    +0.000 C 
ATOM      2  C   UNL     1       4.555   4.275  16.971  0.00  0.00    +0.000 C 
ATOM      3  O   UNL     1       5.304   3.748  16.167  0.00  0.00    +0.000 OA
ATOM      4  C   UNL     1       3.161   3.777  17.281  0.00  0.00    +0.000 C 
ATOM      5  O   UNL     1       2.594   2.907  16.655  0.00  0.00    +0.000 OA
ATOM      6  N   UNL     1       2.721   4.481  18.388  0.00  0.00    +0.000 N 
ATOM      7  C   UNL     1       3.679   5.529  18.779  0.00  0.00    +0.000 C 
ENDROOT
BRANCH   6   8
ATOM      8  C   UNL     1       1.412   4.195  19.006  0.00  0.00    +0.000 C 
ATOM      9  C   UNL     1       1.073   2.690  18.943  0.00  0.00    +0.000 C 
ATOM     10  C   UNL     1       1.842   1.875  19.978  0.00  0.00    +0.000 C 
ATOM     11  C   UNL     1       1.601   2.390  21.391  0.00  0.00    +0.000 C 
ATOM     12  C   UNL     1       1.878   3.883  21.520  0.00  0.00    +0.000 C 
ATOM     13  C   UNL     1       1.173   4.702  20.439  0.00  0.00    +0.000 C 
ENDBRANCH   6   8
BRANCH   1  14
ATOM     14  C   UNL     1       6.140   5.556  18.462  0.00  0.00    +0.000 C 
ATOM     15  O   UNL     1       6.296   5.142  19.603  0.00  0.00    +0.000 OA
BRANCH  14  16
ATOM     16  O   UNL     1       7.117   6.083  17.684  0.00  0.00    +0.000 OA
BRANCH  16  18
ATOM     17  C   UNL     1       7.994   8.309  17.791  0.00  0.00    +0.000 C 
ATOM     18  C   UNL     1       6.881   7.431  17.244  0.00  0.00    +0.000 C 
ENDBRANCH  16  18
ENDBRANCH  14  16
ENDBRANCH   1  14
BRANCH   7  19
ATOM     19  C   UNL     1       3.130   6.951  18.692  0.00  0.00    +0.000 C 
ATOM     20  O   UNL     1       3.215   7.670  17.707  0.00  0.00    +0.000 OA
BRANCH  19  21
ATOM     21  O   UNL     1       2.623   7.318  19.901  0.00  0.00    +0.000 OA
BRANCH  21  22
ATOM     22  C   UNL     1       1.621   8.345  19.882  0.00  0.00    +0.000 C 
ATOM     23  C   UNL     1       0.991   8.506  21.253  0.00  0.00    +0.000 C 
ENDBRANCH  21  22
ENDBRANCH  19  21
ENDBRANCH   7  19
TORSDOF 7
ENDMDL
MODEL 4
REMARK VINA RESULT:      -7.1      2.498      5.942
REMARK  Name = 
REMARK  9 active torsions:
REMARK  status: ('A' for Active; 'I' for Inactive)
REMARK    1  A    between atoms: C_1  and  C_2
REMARK    2  A    between atoms: C_2  and  O_3
REMARK    3  A    between atoms: O_3  and  C_4
REMARK    4  A    between atoms: C_4  and  C_6
REMARK    5  A    between atoms: N_11  and  C_12
REMARK    6  A    between atoms: C_18  and  C_19
REMARK    7  A    between atoms: C_19  and  O_21
REMARK    8  A    between atoms: O_21  and  C_22
REMARK    9  A    between atoms: C_22  and  C_23
REMARK                            x       y       z     vdW  Elec       q    Type
REMARK                         _______ _______ _______ _____ _____    ______ ____
ROOT
ATOM      1  C   UNL     1       3.136   3.982  19.171  0.00  0.00    +0.000 C 
ATOM      2  C   UNL     1       4.477   3.416  19.460  0.00  0.00    +0.000 C 
ATOM      3  O   UNL     1       4.719   2.392  20.074  0.00  0.00    +0.000 OA
ATOM      4  C   UNL     1       5.537   4.334  18.893  0.00  0.00    +0.000 C 
ATOM      5  O   UNL     1       6.722   4.230  19.127  0.00  0.00    +0.000 OA
ATOM      6  N   UNL     1       4.886   5.245  18.082  0.00  0.00    +0.000 N 
ATOM      7  C   UNL     1       3.424   5.091  18.158  0.00  0.00    +0.000 C 
ENDROOT
BRANCH   6   8
ATOM      8  C   UNL     1       5.636   6.255  17.310  0.00  0.00    +0.000 C 
ATOM      9  C   UNL     1       7.127   5.877  17.181  0.00  0.00    +0.000 C 
ATOM     10  C   UNL     1       7.363   4.780  16.147  0.00  0.00    +0.000 C 
ATOM     11  C   UNL     1       6.819   5.169  14.779  0.00  0.00    +0.000 C 
ATOM     12  C   UNL     1       5.357   5.596  14.836  0.00  0.00    +0.000 C 
ATOM     13  C   UNL     1       5.095   6.639  15.921  0.00  0.00    +0.000 C 
ENDBRANCH   6   8
BRANCH   1  14
ATOM     14  C   UNL     1       2.118   3.036  18.640  0.00  0.00    +0.000 C 
ATOM     15  O   UNL     1       1.959   2.854  17.440  0.00  0.00    +0.000 OA
BRANCH  14  16
ATOM     16  O   UNL     1       1.433   2.402  19.622  0.00  0.00    +0.000 OA
BRANCH  16  18
ATOM     17  C   UNL     1       1.579   2.583  22.005  0.00  0.00    +0.000 C 
ATOM     18  C   UNL     1       1.058   3.233  20.734  0.00  0.00    +0.000 C 
ENDBRANCH  16  18
ENDBRANCH  14  16
ENDBRANCH   1  14
BRANCH   7  19
ATOM     19  C   UNL     1       2.688   6.311  18.707  0.00  0.00    +0.000 C 
ATOM     20  O   UNL     1       2.466   6.516  19.892  0.00  0.00    +0.000 OA
BRANCH  19  21
ATOM     21  O   UNL     1       2.243   7.077  17.673  0.00  0.00    +0.000 OA
BRANCH  21  22
ATOM     22  C   UNL     1       2.538   8.480  17.750  0.00  0.00    +0.000 C 
ATOM     23  C   UNL     1       1.268   9.284  17.963  0.00  0.00    +0.000 C 
ENDBRANCH  21  22
ENDBRANCH  19  21
ENDBRANCH   7  19
TORSDOF 7
ENDMDL
MODEL 5
REMARK VINA RESULT:      -7.0      2.454      4.555
REMARK  Name = 
REMARK  9 active torsions:
REMARK  status: ('A' for Active; 'I' for Inactive)
REMARK    1  A    between atoms: C_1  and  C_2
REMARK    2  A    between atoms: C_2  and  O_3
REMARK    3  A    between atoms: O_3  and  C_4
REMARK    4  A    between atoms: C_4  and  C_6
REMARK    5  A    between atoms: N_11  and  C_12
REMARK    6  A    between atoms: C_18  and  C_19
REMARK    7  A    between atoms: C_19  and  O_21
REMARK    8  A    between atoms: O_21  and  C_22
REMARK    9  A    between atoms: C_22  and  C_23
REMARK                            x       y       z     vdW  Elec       q    Type
REMARK                         _______ _______ _______ _____ _____    ______ ____
ROOT
ATOM      1  C   UNL     1       4.697   5.630  17.930  0.00  0.00    +0.000 C 
ATOM      2  C   UNL     1       4.394   4.541  16.970  0.00  0.00    +0.000 C 
ATOM      3  O   UNL     1       5.099   4.162  16.050  0.00  0.00    +0.000 OA
ATOM      4  C   UNL     1       3.029   3.969  17.282  0.00  0.00    +0.000 C 
ATOM      5  O   UNL     1       2.436   3.193  16.563  0.00  0.00    +0.000 OA
ATOM      6  N   UNL     1       2.650   4.483  18.508  0.00  0.00    +0.000 N 
ATOM      7  C   UNL     1       3.615   5.480  19.000  0.00  0.00    +0.000 C 
ENDROOT
BRANCH   6   8
ATOM      8  C   UNL     1       1.386   4.074  19.152  0.00  0.00    +0.000 C 
ATOM      9  C   UNL     1       1.172   2.548  19.062  0.00  0.00    +0.000 C 
ATOM     10  C   UNL     1       2.034   1.779  20.058  0.00  0.00    +0.000 C 
ATOM     11  C   UNL     1       1.789   2.241  21.488  0.00  0.00    +0.000 C 
ATOM     12  C   UNL     1       1.942   3.749  21.645  0.00  0.00    +0.000 C 
ATOM     13  C   UNL     1       1.143   4.529  20.602  0.00  0.00    +0.000 C 
ENDBRANCH   6   8
BRANCH   1  14
ATOM     14  C   UNL     1       6.052   5.613  18.544  0.00  0.00    +0.000 C 
ATOM     15  O   UNL     1       6.248   5.201  19.680  0.00  0.00    +0.000 OA
BRANCH  14  16
ATOM     16  O   UNL     1       7.012   6.070  17.704  0.00  0.00    +0.000 OA
BRANCH  16  18
ATOM     17  C   UNL     1       7.957   8.269  17.778  0.00  0.00    +0.000 C 
ATOM     18  C   UNL     1       6.820   7.417  17.239  0.00  0.00    +0.000 C 
ENDBRANCH  16  18
ENDBRANCH  14  16
ENDBRANCH   1  14
BRANCH   7  19
ATOM     19  C   UNL     1       3.043   6.885  19.168  0.00  0.00    +0.000 C 
ATOM     20  O   UNL     1       2.509   7.301  20.186  0.00  0.00    +0.000 OA
BRANCH  19  21
ATOM     21  O   UNL     1       3.139   7.559  17.989  0.00  0.00    +0.000 OA
BRANCH  21  22
ATOM     22  C   UNL     1       1.967   8.275  17.571  0.00  0.00    +0.000 C 
ATOM     23  C   UNL     1       2.083   9.746  17.921  0.00  0.00    +0.000 C 
ENDBRANCH  21  22
ENDBRANCH  19  21
ENDBRANCH   7  19
TORSDOF 7
ENDMDL
MODEL 6
REMARK VINA RESULT:      -6.9      0.872      1.219
REMARK  Name = 
REMARK  9 active torsions:
REMARK  status: ('A' for Active; 'I' for Inactive)
REMARK    1  A    between atoms: C_1  and  C_2
REMARK    2  A    between atoms: C_2  and  O_3
REMARK    3  A    between atoms: O_3  and  C_4
REMARK    4  A    between atoms: C_4  and  C_6
REMARK    5  A    between atoms: N_11  and  C_12
REMARK    6  A    between atoms: C_18  and  C_19
REMARK    7  A    between atoms: C_19  and  O_21
REMARK    8  A    between atoms: O_21  and  C_22
REMARK    9  A    between atoms: C_22  and  C_23
REMARK                            x       y       z     vdW  Elec       q    Type
REMARK                         _______ _______ _______ _____ _____    ______ ____
ROOT
ATOM      1  C   UNL     1       6.266   5.669  15.901  0.00  0.00    +0.000 C 
ATOM      2  C   UNL     1       5.064   6.538  15.879  0.00  0.00    +0.000 C 
ATOM      3  O   UNL     1       4.743   7.316  14.998  0.00  0.00    +0.000 OA
ATOM      4  C   UNL     1       4.284   6.340  17.159  0.00  0.00    +0.000 C 
ATOM      5  O   UNL     1       3.357   7.040  17.507  0.00  0.00    +0.000 OA
ATOM      6  N   UNL     1       4.822   5.232  17.789  0.00  0.00    +0.000 N 
ATOM      7  C   UNL     1       6.013   4.732  17.083  0.00  0.00    +0.000 C 
ENDROOT
BRANCH   6   8
ATOM      8  C   UNL     1       4.248   4.711  19.045  0.00  0.00    +0.000 C 
ATOM      9  C   UNL     1       2.720   4.924  19.100  0.00  0.00    +0.000 C 
ATOM     10  C   UNL     1       1.960   3.926  18.233  0.00  0.00    +0.000 C 
ATOM     11  C   UNL     1       2.285   2.488  18.614  0.00  0.00    +0.000 C 
ATOM     12  C   UNL     1       3.784   2.213  18.621  0.00  0.00    +0.000 C 
ATOM     13  C   UNL     1       4.563   3.254  19.425  0.00  0.00    +0.000 C 
ENDBRANCH   6   8
BRANCH   1  14
ATOM     14  C   UNL     1       6.544   4.892  14.663  0.00  0.00    +0.000 C 
ATOM     15  O   UNL     1       5.799   4.004  14.269  0.00  0.00    +0.000 OA
BRANCH  14  16
ATOM     16  O   UNL     1       7.673   5.298  14.034  0.00  0.00    +0.000 OA
BRANCH  16  18
ATOM     17  C   UNL     1       8.003   6.157  11.823  0.00  0.00    +0.000 C 
ATOM     18  C   UNL     1       7.773   4.906  12.654  0.00  0.00    +0.000 C 
ENDBRANCH  16  18
ENDBRANCH  14  16
ENDBRANCH   1  14
BRANCH   7  19
ATOM     19  C   UNL     1       7.302   4.787  17.899  0.00  0.00    +0.000 C 
ATOM     20  O   UNL     1       8.255   4.037  17.746  0.00  0.00    +0.000 OA
BRANCH  19  21
ATOM     21  O   UNL     1       7.183   5.731  18.873  0.00  0.00    +0.000 OA
BRANCH  21  22
ATOM     22  C   UNL     1       8.216   6.726  18.920  0.00  0.00    +0.000 C 
ATOM     23  C   UNL     1       7.911   7.862  17.961  0.00  0.00    +0.000 C 
ENDBRANCH  21  22
ENDBRANCH  19  21
ENDBRANCH   7  19
TORSDOF 7
ENDMDL
MODEL 7
REMARK VINA RESULT:      -6.9      1.426      2.034
REMARK  Name = 
REMARK  9 active torsions:
REMARK  status: ('A' for Active; 'I' for Inactive)
REMARK    1  A    between atoms: C_1  and  C_2
REMARK    2  A    between atoms: C_2  and  O_3
REMARK    3  A    between atoms: O_3  and  C_4
REMARK    4  A    between atoms: C_4  and  C_6
REMARK    5  A    between atoms: N_11  and  C_12
REMARK    6  A    between atoms: C_18  and  C_19
REMARK    7  A    between atoms: C_19  and  O_21
REMARK    8  A    between atoms: O_21  and  C_22
REMARK    9  A    between atoms: C_22  and  C_23
REMARK                            x       y       z     vdW  Elec       q    Type
REMARK                         _______ _______ _______ _____ _____    ______ ____
ROOT
ATOM      1  C   UNL     1       4.851   6.537  17.394  0.00  0.00    +0.000 C 
ATOM      2  C   UNL     1       3.532   7.092  17.788  0.00  0.00    +0.000 C 
ATOM      3  O   UNL     1       2.954   8.033  17.274  0.00  0.00    +0.000 OA
ATOM      4  C   UNL     1       3.004   6.320  18.976  0.00  0.00    +0.000 C 
ATOM      5  O   UNL     1       2.038   6.655  19.630  0.00  0.00    +0.000 OA
ATOM      6  N   UNL     1       3.808   5.205  19.120  0.00  0.00    +0.000 N 
ATOM      7  C   UNL     1       4.942   5.230  18.181  0.00  0.00    +0.000 C 
ENDROOT
BRANCH   6   8
ATOM      8  C   UNL     1       3.530   4.188  20.153  0.00  0.00    +0.000 C 
ATOM      9  C   UNL     1       2.025   4.124  20.493  0.00  0.00    +0.000 C 
ATOM     10  C   UNL     1       1.218   3.392  19.426  0.00  0.00    +0.000 C 
ATOM     11  C   UNL     1       1.744   1.983  19.189  0.00  0.00    +0.000 C 
ATOM     12  C   UNL     1       3.238   1.964  18.887  0.00  0.00    +0.000 C 
ATOM     13  C   UNL     1       4.049   2.761  19.908  0.00  0.00    +0.000 C 
ENDBRANCH   6   8
BRANCH   1  14
ATOM     14  C   UNL     1       5.059   6.293  15.942  0.00  0.00    +0.000 C 
ATOM     15  O   UNL     1       5.154   7.206  15.133  0.00  0.00    +0.000 OA
BRANCH  14  16
ATOM     16  O   UNL     1       5.156   4.975  15.643  0.00  0.00    +0.000 OA
BRANCH  16  18
ATOM     17  C   UNL     1       5.829   3.875  13.625  0.00  0.00    +0.000 C 
ATOM     18  C   UNL     1       6.308   4.612  14.864  0.00  0.00    +0.000 C 
ENDBRANCH  16  18
ENDBRANCH  14  16
ENDBRANCH   1  14
BRANCH   7  19
ATOM     19  C   UNL     1       6.315   5.279  18.849  0.00  0.00    +0.000 C 
ATOM     20  O   UNL     1       6.537   4.955  20.007  0.00  0.00    +0.000 OA
BRANCH  19  21
ATOM     21  O   UNL     1       7.220   5.822  17.989  0.00  0.00    +0.000 OA
BRANCH  21  22
ATOM     22  C   UNL     1       8.075   6.841  18.529  0.00  0.00    +0.000 C 
ATOM     23  C   UNL     1       7.926   8.135  17.751  0.00  0.00    +0.000 C 
ENDBRANCH  21  22
ENDBRANCH  19  21
ENDBRANCH   7  19
TORSDOF 7
ENDMDL
MODEL 8
REMARK VINA RESULT:      -6.9      2.438      5.959
REMARK  Name = 
REMARK  9 active torsions:
REMARK  status: ('A' for Active; 'I' for Inactive)
REMARK    1  A    between atoms: C_1  and  C_2
REMARK    2  A    between atoms: C_2  and  O_3
REMARK    3  A    between atoms: O_3  and  C_4
REMARK    4  A    between atoms: C_4  and  C_6
REMARK    5  A    between atoms: N_11  and  C_12
REMARK    6  A    between atoms: C_18  and  C_19
REMARK    7  A    between atoms: C_19  and  O_21
REMARK    8  A    between atoms: O_21  and  C_22
REMARK    9  A    between atoms: C_22  and  C_23
REMARK                            x       y       z     vdW  Elec       q    Type
REMARK                         _______ _______ _______ _____ _____    ______ ____
ROOT
ATOM      1  C   UNL     1       2.905   4.321  19.007  0.00  0.00    +0.000 C 
ATOM      2  C   UNL     1       4.191   3.754  19.481  0.00  0.00    +0.000 C 
ATOM      3  O   UNL     1       4.337   2.800  20.225  0.00  0.00    +0.000 OA
ATOM      4  C   UNL     1       5.332   4.571  18.918  0.00  0.00    +0.000 C 
ATOM      5  O   UNL     1       6.487   4.460  19.271  0.00  0.00    +0.000 OA
ATOM      6  N   UNL     1       4.793   5.403  17.954  0.00  0.00    +0.000 N 
ATOM      7  C   UNL     1       3.325   5.301  17.910  0.00  0.00    +0.000 C 
ENDROOT
BRANCH   6   8
ATOM      8  C   UNL     1       5.648   6.297  17.149  0.00  0.00    +0.000 C 
ATOM      9  C   UNL     1       7.112   5.810  17.125  0.00  0.00    +0.000 C 
ATOM     10  C   UNL     1       7.317   4.623  16.189  0.00  0.00    +0.000 C 
ATOM     11  C   UNL     1       6.865   4.941  14.770  0.00  0.00    +0.000 C 
ATOM     12  C   UNL     1       5.437   5.468  14.719  0.00  0.00    +0.000 C 
ATOM     13  C   UNL     1       5.200   6.608  15.710  0.00  0.00    +0.000 C 
ENDBRANCH   6   8
BRANCH   1  14
ATOM     14  C   UNL     1       1.903   3.351  18.491  0.00  0.00    +0.000 C 
ATOM     15  O   UNL     1       2.070   2.732  17.449  0.00  0.00    +0.000 OA
BRANCH  14  16
ATOM     16  O   UNL     1       0.831   3.223  19.310  0.00  0.00    +0.000 OA
BRANCH  16  18
ATOM     17  C   UNL     1       1.282   2.694  21.602  0.00  0.00    +0.000 C 
ATOM     18  C   UNL     1       0.989   3.810  20.613  0.00  0.00    +0.000 C 
ENDBRANCH  16  18
ENDBRANCH  14  16
ENDBRANCH   1  14
BRANCH   7  19
ATOM     19  C   UNL     1       2.591   6.595  18.249  0.00  0.00    +0.000 C 
ATOM     20  O   UNL     1       2.263   7.444  17.432  0.00  0.00    +0.000 OA
BRANCH  19  21
ATOM     21  O   UNL     1       2.444   6.695  19.599  0.00  0.00    +0.000 OA
BRANCH  21  22
ATOM     22  C   UNL     1       1.937   7.945  20.091  0.00  0.00    +0.000 C 
ATOM     23  C   UNL     1       1.014   7.722  21.274  0.00  0.00    +0.000 C 
ENDBRANCH  21  22
ENDBRANCH  19  21
ENDBRANCH   7  19
TORSDOF 7
ENDMDL
MODEL 9
REMARK VINA RESULT:      -6.8      2.467      4.648
REMARK  Name = 
REMARK  9 active torsions:
REMARK  status: ('A' for Active; 'I' for Inactive)
REMARK    1  A    between atoms: C_1  and  C_2
REMARK    2  A    between atoms: C_2  and  O_3
REMARK    3  A    between atoms: O_3  and  C_4
REMARK    4  A    between atoms: C_4  and  C_6
REMARK    5  A    between atoms: N_11  and  C_12
REMARK    6  A    between atoms: C_18  and  C_19
REMARK    7  A    between atoms: C_19  and  O_21
REMARK    8  A    between atoms: O_21  and  C_22
REMARK    9  A    between atoms: C_22  and  C_23
REMARK                            x       y       z     vdW  Elec       q    Type
REMARK                         _______ _______ _______ _____ _____    ______ ____
ROOT
ATOM      1  C   UNL     1       4.297   6.126  17.397  0.00  0.00    +0.000 C 
ATOM      2  C   UNL     1       4.143   4.827  16.697  0.00  0.00    +0.000 C 
ATOM      3  O   UNL     1       4.847   4.393  15.801  0.00  0.00    +0.000 OA
ATOM      4  C   UNL     1       2.931   4.107  17.245  0.00  0.00    +0.000 C 
ATOM      5  O   UNL     1       2.449   3.110  16.750  0.00  0.00    +0.000 OA
ATOM      6  N   UNL     1       2.541   4.790  18.383  0.00  0.00    +0.000 N 
ATOM      7  C   UNL     1       3.332   6.016  18.578  0.00  0.00    +0.000 C 
ENDROOT
BRANCH   6   8
ATOM      8  C   UNL     1       1.419   4.312  19.214  0.00  0.00    +0.000 C 
ATOM      9  C   UNL     1       1.324   2.772  19.208  0.00  0.00    +0.000 C 
ATOM     10  C   UNL     1       2.379   2.119  20.096  0.00  0.00    +0.000 C 
ATOM     11  C   UNL     1       2.298   2.626  21.530  0.00  0.00    +0.000 C 
ATOM     12  C   UNL     1       2.344   4.146  21.612  0.00  0.00    +0.000 C 
ATOM     13  C   UNL     1       1.344   4.812  20.668  0.00  0.00    +0.000 C 
ENDBRANCH   6   8
BRANCH   1  14
ATOM     14  C   UNL     1       5.666   6.467  17.866  0.00  0.00    +0.000 C 
ATOM     15  O   UNL     1       6.310   7.390  17.386  0.00  0.00    +0.000 OA
BRANCH  14  16
ATOM     16  O   UNL     1       6.084   5.670  18.879  0.00  0.00    +0.000 OA
BRANCH  16  18
ATOM     17  C   UNL     1       7.796   4.472  17.709  0.00  0.00    +0.000 C 
ATOM     18  C   UNL     1       7.494   5.385  18.885  0.00  0.00    +0.000 C 
ENDBRANCH  16  18
ENDBRANCH  14  16
ENDBRANCH   1  14
BRANCH   7  19
ATOM     19  C   UNL     1       2.519   7.307  18.531  0.00  0.00    +0.000 C 
ATOM     20  O   UNL     1       2.250   7.923  17.509  0.00  0.00    +0.000 OA
BRANCH  19  21
ATOM     21  O   UNL     1       2.224   7.706  19.798  0.00  0.00    +0.000 OA
BRANCH  21  22
ATOM     22  C   UNL     1       1.291   8.789  19.921  0.00  0.00    +0.000 C 
ATOM     23  C   UNL     1       0.568   8.726  21.254  0.00  0.00    +0.000 C 
ENDBRANCH  21  22
ENDBRANCH  19  21
ENDBRANCH   7  19
TORSDOF 7
ENDMDL
