MODEL 1
REMARK VINA RESULT:      -7.0      0.000      0.000
REMARK  Name = 
REMARK  7 active torsions:
REMARK  status: ('A' for Active; 'I' for Inactive)
REMARK    1  A    between atoms: C_1  and  N_2
REMARK    2  A    between atoms: N_2  and  C_3
REMARK    3  A    between atoms: C_3  and  C_4
REMARK    4  A    between atoms: C_4  and  C_6
REMARK    5  A    between atoms: C_14  and  N_15
REMARK    6  A    between atoms: C_17  and  C_18
REMARK    7  A    between atoms: C_17  and  C_24
REMARK                            x       y       z     vdW  Elec       q    Type
REMARK                         _______ _______ _______ _____ _____    ______ ____
ROOT
ATOM      1  N   UNL     1       0.909  13.573  18.957  0.00  0.00    +0.000 N 
ATOM      2  C   UNL     1      -0.494  13.199  19.176  0.00  0.00    +0.000 C 
ATOM      3  C   UNL     1      -0.538  11.639  19.125  0.00  0.00    +0.000 C 
ATOM      4  N   UNL     1       0.679  11.406  18.353  0.00  0.00    +0.000 N 
ATOM      5  C   UNL     1       1.572  12.443  18.458  0.00  0.00    +0.000 C 
ATOM      6  O   UNL     1       2.759  12.370  18.190  0.00  0.00    +0.000 OA
ATOM      7  H   UNL     1       1.006  10.485  18.097  0.00  0.00    +0.000 HD
ENDROOT
BRANCH   1  12
ATOM      8  C   UNL     1       1.165  16.805  22.429  0.00  0.00    +0.000 C 
ATOM      9  N   UNL     1       0.369  15.834  21.560  0.00  0.00    +0.000 N 
ATOM     10  C   UNL     1       0.578  14.393  22.014  0.00  0.00    +0.000 C 
ATOM     11  C   UNL     1       1.813  13.945  21.261  0.00  0.00    +0.000 C 
ATOM     12  C   UNL     1       1.612  14.501  19.854  0.00  0.00    +0.000 C 
ATOM     13  C   UNL     1       0.902  15.862  20.102  0.00  0.00    +0.000 C 
BRANCH   9  14
ATOM     14  C   UNL     1      -1.144  16.214  21.588  0.00  0.00    +0.000 C 
BRANCH  14  15
ATOM     15  C   UNL     1      -1.912  15.760  22.831  0.00  0.00    +0.000 C 
ATOM     16  O   UNL     1      -1.715  16.249  23.942  0.00  0.00    +0.000 OA
BRANCH  15  17
ATOM     17  C   UNL     1      -2.876  14.635  22.682  0.00  0.00    +0.000 A 
ATOM     18  C   UNL     1      -3.498  14.461  21.438  0.00  0.00    +0.000 A 
ATOM     19  C   UNL     1      -4.485  13.487  21.278  0.00  0.00    +0.000 A 
ATOM     20  C   UNL     1      -4.840  12.674  22.352  0.00  0.00    +0.000 A 
ATOM     21  C   UNL     1      -4.194  12.812  23.579  0.00  0.00    +0.000 A 
ATOM     22  C   UNL     1      -3.208  13.790  23.748  0.00  0.00    +0.000 A 
ENDBRANCH  15  17
ENDBRANCH  14  15
ENDBRANCH   9  14
ENDBRANCH   1  12
BRANCH   3  23
ATOM     23  C   UNL     1      -1.785  11.179  18.356  0.00  0.00    +0.000 A 
ATOM     24  C   UNL     1      -1.694  10.195  17.348  0.00  0.00    +0.000 A 
ATOM     25  C   UNL     1      -2.794   9.857  16.556  0.00  0.00    +0.000 A 
ATOM     26  C   UNL     1      -4.013  10.494  16.750  0.00  0.00    +0.000 A 
ATOM     27  C   UNL     1      -4.136  11.455  17.749  0.00  0.00    +0.000 A 
ATOM     28  C   UNL     1      -3.036  11.794  18.544  0.00  0.00    +0.000 A 
ENDBRANCH   3  23
BRANCH   3  29
ATOM     29  C   UNL     1      -0.386  11.019  20.541  0.00  0.00    +0.000 A 
ATOM     30  C   UNL     1       0.521   9.969  20.804  0.00  0.00    +0.000 A 
ATOM     31  C   UNL     1       0.596   9.354  22.057  0.00  0.00    +0.000 A 
ATOM     32  C   UNL     1      -0.217   9.792  23.090  0.00  0.00    +0.000 A 
ATOM     33  C   UNL     1      -1.069  10.871  22.886  0.00  0.00    +0.000 A 
ATOM     34  C   UNL     1      -1.148  11.487  21.632  0.00  0.00    +0.000 A 
ENDBRANCH   3  29
TORSDOF 6
ENDMDL
MODEL 2
REMARK VINA RESULT:      -6.9      0.586      1.030
REMARK  Name = 
REMARK  7 active torsions:
REMARK  status: ('A' for Active; 'I' for Inactive)
REMARK    1  A    between atoms: C_1  and  N_2
REMARK    2  A    between atoms: N_2  and  C_3
REMARK    3  A    between atoms: C_3  and  C_4
REMARK    4  A    between atoms: C_4  and  C_6
REMARK    5  A    between atoms: C_14  and  N_15
REMARK    6  A    between atoms: C_17  and  C_18
REMARK    7  A    between atoms: C_17  and  C_24
REMARK                            x       y       z     vdW  Elec       q    Type
REMARK                         _______ _______ _______ _____ _____    ______ ____
ROOT
ATOM      1  N   UNL     1       1.169  13.170  18.635  0.00  0.00    +0.000 N 
ATOM      2  C   UNL     1      -0.250  12.961  18.955  0.00  0.00    +0.000 C 
ATOM      3  C   UNL     1      -0.460  11.414  18.993  0.00  0.00    +0.000 C 
ATOM      4  N   UNL     1       0.675  11.012  18.168  0.00  0.00    +0.000 N 
ATOM      5  C   UNL     1       1.676  11.951  18.163  0.00  0.00    +0.000 C 
ATOM      6  O   UNL     1       2.830  11.737  17.832  0.00  0.00    +0.000 OA
ATOM      7  H   UNL     1       0.887  10.050  17.945  0.00  0.00    +0.000 HD
ENDROOT
BRANCH   1  12
ATOM      8  C   UNL     1       2.013  16.328  22.082  0.00  0.00    +0.000 C 
ATOM      9  N   UNL     1       1.072  15.398  21.320  0.00  0.00    +0.000 N 
ATOM     10  C   UNL     1       1.296  13.943  21.719  0.00  0.00    +0.000 C 
ATOM     11  C   UNL     1       2.398  13.471  20.794  0.00  0.00    +0.000 C 
ATOM     12  C   UNL     1       2.019  14.060  19.437  0.00  0.00    +0.000 C 
ATOM     13  C   UNL     1       1.396  15.436  19.801  0.00  0.00    +0.000 C 
BRANCH   9  14
ATOM     14  C   UNL     1      -0.410  15.822  21.566  0.00  0.00    +0.000 C 
BRANCH  14  15
ATOM     15  C   UNL     1      -1.043  15.280  22.849  0.00  0.00    +0.000 C 
ATOM     16  O   UNL     1      -0.514  15.411  23.951  0.00  0.00    +0.000 OA
BRANCH  15  17
ATOM     17  C   UNL     1      -2.310  14.507  22.727  0.00  0.00    +0.000 A 
ATOM     18  C   UNL     1      -2.781  13.831  23.862  0.00  0.00    +0.000 A 
ATOM     19  C   UNL     1      -3.904  13.010  23.772  0.00  0.00    +0.000 A 
ATOM     20  C   UNL     1      -4.572  12.874  22.557  0.00  0.00    +0.000 A 
ATOM     21  C   UNL     1      -4.136  13.578  21.437  0.00  0.00    +0.000 A 
ATOM     22  C   UNL     1      -3.007  14.399  21.518  0.00  0.00    +0.000 A 
ENDBRANCH  15  17
ENDBRANCH  14  15
ENDBRANCH   9  14
ENDBRANCH   1  12
BRANCH   3  23
ATOM     23  C   UNL     1      -1.794  11.054  18.324  0.00  0.00    +0.000 A 
ATOM     24  C   UNL     1      -1.852  10.089  17.295  0.00  0.00    +0.000 A 
ATOM     25  C   UNL     1      -3.035   9.841  16.593  0.00  0.00    +0.000 A 
ATOM     26  C   UNL     1      -4.188  10.552  16.899  0.00  0.00    +0.000 A 
ATOM     27  C   UNL     1      -4.164  11.496  17.921  0.00  0.00    +0.000 A 
ATOM     28  C   UNL     1      -2.981  11.744  18.627  0.00  0.00    +0.000 A 
ENDBRANCH   3  23
BRANCH   3  29
ATOM     29  C   UNL     1      -0.286  10.852  20.431  0.00  0.00    +0.000 A 
ATOM     30  C   UNL     1       0.551   9.748  20.705  0.00  0.00    +0.000 A 
ATOM     31  C   UNL     1       0.641   9.188  21.983  0.00  0.00    +0.000 A 
ATOM     32  C   UNL     1      -0.083   9.738  23.029  0.00  0.00    +0.000 A 
ATOM     33  C   UNL     1      -0.860  10.869  22.810  0.00  0.00    +0.000 A 
ATOM     34  C   UNL     1      -0.954  11.430  21.531  0.00  0.00    +0.000 A 
ENDBRANCH   3  29
TORSDOF 6
ENDMDL
MODEL 3
REMARK VINA RESULT:      -6.9      0.268      1.215
REMARK  Name = 
REMARK  7 active torsions:
REMARK  status: ('A' for Active; 'I' for Inactive)
REMARK    1  A    between atoms: C_1  and  N_2
REMARK    2  A    between atoms: N_2  and  C_3
REMARK    3  A    between atoms: C_3  and  C_4
REMARK    4  A    between atoms: C_4  and  C_6
REMARK    5  A    between atoms: C_14  and  N_15
REMARK    6  A    between atoms: C_17  and  C_18
REMARK    7  A    between atoms: C_17  and  C_24
REMARK                            x       y       z     vdW  Elec       q    Type
REMARK                         _______ _______ _______ _____ _____    ______ ____
ROOT
ATOM      1  N   UNL     1       0.963  13.369  18.819  0.00  0.00    +0.000 N 
ATOM      2  C   UNL     1      -0.464  13.075  19.007  0.00  0.00    +0.000 C 
ATOM      3  C   UNL     1      -0.589  11.519  18.995  0.00  0.00    +0.000 C 
ATOM      4  N   UNL     1       0.634  11.200  18.265  0.00  0.00    +0.000 N 
ATOM      5  C   UNL     1       1.578  12.192  18.369  0.00  0.00    +0.000 C 
ATOM      6  O   UNL     1       2.766  12.049  18.138  0.00  0.00    +0.000 OA
ATOM      7  H   UNL     1       0.919  10.257  18.042  0.00  0.00    +0.000 HD
ENDROOT
BRANCH   1  12
ATOM      8  C   UNL     1       1.295  16.672  22.216  0.00  0.00    +0.000 C 
ATOM      9  N   UNL     1       0.473  15.721  21.350  0.00  0.00    +0.000 N 
ATOM     10  C   UNL     1       0.595  14.284  21.845  0.00  0.00    +0.000 C 
ATOM     11  C   UNL     1       1.824  13.753  21.137  0.00  0.00    +0.000 C 
ATOM     12  C   UNL     1       1.689  14.283  19.712  0.00  0.00    +0.000 C 
ATOM     13  C   UNL     1       1.045  15.684  19.907  0.00  0.00    +0.000 C 
BRANCH   9  14
ATOM     14  C   UNL     1      -1.019  16.178  21.327  0.00  0.00    +0.000 C 
BRANCH  14  15
ATOM     15  C   UNL     1      -1.854  15.758  22.538  0.00  0.00    +0.000 C 
ATOM     16  O   UNL     1      -1.619  16.167  23.674  0.00  0.00    +0.000 OA
BRANCH  15  17
ATOM     17  C   UNL     1      -2.938  14.760  22.325  0.00  0.00    +0.000 A 
ATOM     18  C   UNL     1      -3.328  13.968  23.414  0.00  0.00    +0.000 A 
ATOM     19  C   UNL     1      -4.264  12.949  23.240  0.00  0.00    +0.000 A 
ATOM     20  C   UNL     1      -4.827  12.728  21.984  0.00  0.00    +0.000 A 
ATOM     21  C   UNL     1      -4.477  13.541  20.908  0.00  0.00    +0.000 A 
ATOM     22  C   UNL     1      -3.535  14.561  21.074  0.00  0.00    +0.000 A 
ENDBRANCH  15  17
ENDBRANCH  14  15
ENDBRANCH   9  14
ENDBRANCH   1  12
BRANCH   3  23
ATOM     23  C   UNL     1      -1.837  11.104  18.201  0.00  0.00    +0.000 A 
ATOM     24  C   UNL     1      -1.761  10.123  17.189  0.00  0.00    +0.000 A 
ATOM     25  C   UNL     1      -2.858   9.826  16.377  0.00  0.00    +0.000 A 
ATOM     26  C   UNL     1      -4.059  10.502  16.553  0.00  0.00    +0.000 A 
ATOM     27  C   UNL     1      -4.168  11.460  17.556  0.00  0.00    +0.000 A 
ATOM     28  C   UNL     1      -3.070  11.758  18.372  0.00  0.00    +0.000 A 
ENDBRANCH   3  23
BRANCH   3  29
ATOM     29  C   UNL     1      -0.511  10.931  20.430  0.00  0.00    +0.000 A 
ATOM     30  C   UNL     1      -1.224  11.496  21.510  0.00  0.00    +0.000 A 
ATOM     31  C   UNL     1      -1.087  11.020  22.817  0.00  0.00    +0.000 A 
ATOM     32  C   UNL     1      -0.252   9.945  23.074  0.00  0.00    +0.000 A 
ATOM     33  C   UNL     1       0.408   9.318  22.025  0.00  0.00    +0.000 A 
ATOM     34  C   UNL     1       0.274   9.794  20.715  0.00  0.00    +0.000 A 
ENDBRANCH   3  29
TORSDOF 6
ENDMDL
MODEL 4
REMARK VINA RESULT:      -6.8      7.988     10.972
REMARK  Name = 
REMARK  7 active torsions:
REMARK  status: ('A' for Active; 'I' for Inactive)
REMARK    1  A    between atoms: C_1  and  N_2
REMARK    2  A    between atoms: N_2  and  C_3
REMARK    3  A    between atoms: C_3  and  C_4
REMARK    4  A    between atoms: C_4  and  C_6
REMARK    5  A    between atoms: C_14  and  N_15
REMARK    6  A    between atoms: C_17  and  C_18
REMARK    7  A    between atoms: C_17  and  C_24
REMARK                            x       y       z     vdW  Elec       q    Type
REMARK                         _______ _______ _______ _____ _____    ______ ____
ROOT
ATOM      1  N   UNL     1       4.205   2.921  17.155  0.00  0.00    +0.000 N 
ATOM      2  C   UNL     1       5.476   2.975  16.420  0.00  0.00    +0.000 C 
ATOM      3  C   UNL     1       5.611   4.442  15.900  0.00  0.00    +0.000 C 
ATOM      4  N   UNL     1       4.202   4.820  15.925  0.00  0.00    +0.000 N 
ATOM      5  C   UNL     1       3.474   4.068  16.814  0.00  0.00    +0.000 C 
ATOM      6  O   UNL     1       2.382   4.379  17.257  0.00  0.00    +0.000 OA
ATOM      7  H   UNL     1       3.866   5.730  15.643  0.00  0.00    +0.000 HD
ENDROOT
BRANCH   1  12
ATOM      8  C   UNL     1       2.622   2.795  21.631  0.00  0.00    +0.000 C 
ATOM      9  N   UNL     1       2.626   3.401  20.230  0.00  0.00    +0.000 N 
ATOM     10  C   UNL     1       1.845   2.528  19.253  0.00  0.00    +0.000 C 
ATOM     11  C   UNL     1       2.867   1.532  18.749  0.00  0.00    +0.000 C 
ATOM     12  C   UNL     1       4.120   2.372  18.515  0.00  0.00    +0.000 C 
ATOM     13  C   UNL     1       4.071   3.421  19.661  0.00  0.00    +0.000 C 
BRANCH   9  14
ATOM     14  C   UNL     1       2.044   4.848  20.274  0.00  0.00    +0.000 C 
BRANCH  14  15
ATOM     15  C   UNL     1       2.991   5.951  19.797  0.00  0.00    +0.000 C 
ATOM     16  O   UNL     1       4.212   5.805  19.769  0.00  0.00    +0.000 OA
BRANCH  15  17
ATOM     17  C   UNL     1       2.397   7.266  19.426  0.00  0.00    +0.000 A 
ATOM     18  C   UNL     1       1.673   7.961  20.405  0.00  0.00    +0.000 A 
ATOM     19  C   UNL     1       1.012   9.144  20.078  0.00  0.00    +0.000 A 
ATOM     20  C   UNL     1       1.085   9.647  18.781  0.00  0.00    +0.000 A 
ATOM     21  C   UNL     1       1.840   8.985  17.815  0.00  0.00    +0.000 A 
ATOM     22  C   UNL     1       2.501   7.794  18.134  0.00  0.00    +0.000 A 
ENDBRANCH  15  17
ENDBRANCH  14  15
ENDBRANCH   9  14
ENDBRANCH   1  12
BRANCH   3  23
ATOM     23  C   UNL     1       6.164   4.435  14.467  0.00  0.00    +0.000 A 
ATOM     24  C   UNL     1       5.601   3.603  13.476  0.00  0.00    +0.000 A 
ATOM     25  C   UNL     1       6.169   3.494  12.205  0.00  0.00    +0.000 A 
ATOM     26  C   UNL     1       7.316   4.213  11.891  0.00  0.00    +0.000 A 
ATOM     27  C   UNL     1       7.881   5.056  12.843  0.00  0.00    +0.000 A 
ATOM     28  C   UNL     1       7.312   5.168  14.116  0.00  0.00    +0.000 A 
ENDBRANCH   3  23
BRANCH   3  29
ATOM     29  C   UNL     1       6.408   5.327  16.896  0.00  0.00    +0.000 A 
ATOM     30  C   UNL     1       6.424   6.736  16.796  0.00  0.00    +0.000 A 
ATOM     31  C   UNL     1       7.209   7.528  17.639  0.00  0.00    +0.000 A 
ATOM     32  C   UNL     1       7.979   6.932  18.625  0.00  0.00    +0.000 A 
ATOM     33  C   UNL     1       7.931   5.554  18.798  0.00  0.00    +0.000 A 
ATOM     34  C   UNL     1       7.147   4.759  17.955  0.00  0.00    +0.000 A 
ENDBRANCH   3  29
TORSDOF 6
ENDMDL
MODEL 5
REMARK VINA RESULT:      -6.6      1.922      2.664
REMARK  Name = 
REMARK  7 active torsions:
REMARK  status: ('A' for Active; 'I' for Inactive)
REMARK    1  A    between atoms: C_1  and  N_2
REMARK    2  A    between atoms: N_2  and  C_3
REMARK    3  A    between atoms: C_3  and  C_4
REMARK    4  A    between atoms: C_4  and  C_6
REMARK    5  A    between atoms: C_14  and  N_15
REMARK    6  A    between atoms: C_17  and  C_18
REMARK    7  A    between atoms: C_17  and  C_24
REMARK                            x       y       z     vdW  Elec       q    Type
REMARK                         _______ _______ _______ _____ _____    ______ ____
ROOT
ATOM      1  N   UNL     1      -1.001  13.542  20.223  0.00  0.00    +0.000 N 
ATOM      2  C   UNL     1      -1.850  12.376  19.943  0.00  0.00    +0.000 C 
ATOM      3  C   UNL     1      -1.156  11.609  18.773  0.00  0.00    +0.000 C 
ATOM      4  N   UNL     1      -0.373  12.708  18.216  0.00  0.00    +0.000 N 
ATOM      5  C   UNL     1      -0.124  13.693  19.140  0.00  0.00    +0.000 C 
ATOM      6  O   UNL     1       0.750  14.537  19.038  0.00  0.00    +0.000 OA
ATOM      7  H   UNL     1       0.230  12.609  17.412  0.00  0.00    +0.000 HD
ENDROOT
BRANCH   1  12
ATOM      8  C   UNL     1      -1.612  14.949  24.719  0.00  0.00    +0.000 C 
ATOM      9  N   UNL     1      -2.164  14.600  23.339  0.00  0.00    +0.000 N 
ATOM     10  C   UNL     1      -2.210  13.090  23.132  0.00  0.00    +0.000 C 
ATOM     11  C   UNL     1      -0.837  12.750  22.591  0.00  0.00    +0.000 C 
ATOM     12  C   UNL     1      -0.549  13.861  21.585  0.00  0.00    +0.000 C 
ATOM     13  C   UNL     1      -1.202  15.114  22.233  0.00  0.00    +0.000 C 
BRANCH   9  14
ATOM     14  C   UNL     1      -3.580  15.232  23.156  0.00  0.00    +0.000 C 
BRANCH  14  15
ATOM     15  C   UNL     1      -4.443  14.603  22.061  0.00  0.00    +0.000 C 
ATOM     16  O   UNL     1      -4.242  14.806  20.865  0.00  0.00    +0.000 OA
BRANCH  15  17
ATOM     17  C   UNL     1      -5.609  13.777  22.482  0.00  0.00    +0.000 A 
ATOM     18  C   UNL     1      -6.160  12.891  21.546  0.00  0.00    +0.000 A 
ATOM     19  C   UNL     1      -7.315  12.173  21.856  0.00  0.00    +0.000 A 
ATOM     20  C   UNL     1      -7.914  12.324  23.106  0.00  0.00    +0.000 A 
ATOM     21  C   UNL     1      -7.346  13.170  24.056  0.00  0.00    +0.000 A 
ATOM     22  C   UNL     1      -6.191  13.897  23.749  0.00  0.00    +0.000 A 
ENDBRANCH  15  17
ENDBRANCH  14  15
ENDBRANCH   9  14
ENDBRANCH   1  12
BRANCH   3  23
ATOM     23  C   UNL     1      -2.215  11.115  17.776  0.00  0.00    +0.000 A 
ATOM     24  C   UNL     1      -1.878  10.203  16.753  0.00  0.00    +0.000 A 
ATOM     25  C   UNL     1      -2.798   9.842  15.765  0.00  0.00    +0.000 A 
ATOM     26  C   UNL     1      -4.078  10.384  15.774  0.00  0.00    +0.000 A 
ATOM     27  C   UNL     1      -4.443  11.270  16.782  0.00  0.00    +0.000 A 
ATOM     28  C   UNL     1      -3.523  11.632  17.773  0.00  0.00    +0.000 A 
ENDBRANCH   3  23
BRANCH   3  29
ATOM     29  C   UNL     1      -0.203  10.504  19.304  0.00  0.00    +0.000 A 
ATOM     30  C   UNL     1       0.906  10.050  18.556  0.00  0.00    +0.000 A 
ATOM     31  C   UNL     1       1.712   8.996  18.995  0.00  0.00    +0.000 A 
ATOM     32  C   UNL     1       1.448   8.387  20.211  0.00  0.00    +0.000 A 
ATOM     33  C   UNL     1       0.410   8.856  21.006  0.00  0.00    +0.000 A 
ATOM     34  C   UNL     1      -0.401   9.909  20.568  0.00  0.00    +0.000 A 
ENDBRANCH   3  29
TORSDOF 6
ENDMDL
MODEL 6
REMARK VINA RESULT:      -6.5      7.988     10.927
REMARK  Name = 
REMARK  7 active torsions:
REMARK  status: ('A' for Active; 'I' for Inactive)
REMARK    1  A    between atoms: C_1  and  N_2
REMARK    2  A    between atoms: N_2  and  C_3
REMARK    3  A    between atoms: C_3  and  C_4
REMARK    4  A    between atoms: C_4  and  C_6
REMARK    5  A    between atoms: C_14  and  N_15
REMARK    6  A    between atoms: C_17  and  C_18
REMARK    7  A    between atoms: C_17  and  C_24
REMARK                            x       y       z     vdW  Elec       q    Type
REMARK                         _______ _______ _______ _____ _____    ______ ____
ROOT
ATOM      1  N   UNL     1       4.170   2.923  17.209  0.00  0.00    +0.000 N 
ATOM      2  C   UNL     1       5.449   2.880  16.487  0.00  0.00    +0.000 C 
ATOM      3  C   UNL     1       5.671   4.317  15.917  0.00  0.00    +0.000 C 
ATOM      4  N   UNL     1       4.285   4.773  15.913  0.00  0.00    +0.000 N 
ATOM      5  C   UNL     1       3.508   4.096  16.819  0.00  0.00    +0.000 C 
ATOM      6  O   UNL     1       2.430   4.482  17.239  0.00  0.00    +0.000 OA
ATOM      7  H   UNL     1       4.002   5.690  15.595  0.00  0.00    +0.000 HD
ENDROOT
BRANCH   1  12
ATOM      8  C   UNL     1       2.446   2.973  21.634  0.00  0.00    +0.000 C 
ATOM      9  N   UNL     1       2.494   3.522  20.211  0.00  0.00    +0.000 N 
ATOM     10  C   UNL     1       1.745   2.611  19.245  0.00  0.00    +0.000 C 
ATOM     11  C   UNL     1       2.783   1.596  18.814  0.00  0.00    +0.000 C 
ATOM     12  C   UNL     1       4.042   2.428  18.586  0.00  0.00    +0.000 C 
ATOM     13  C   UNL     1       3.957   3.522  19.687  0.00  0.00    +0.000 C 
BRANCH   9  14
ATOM     14  C   UNL     1       1.911   4.969  20.178  0.00  0.00    +0.000 C 
BRANCH  14  15
ATOM     15  C   UNL     1       2.894   6.064  19.759  0.00  0.00    +0.000 C 
ATOM     16  O   UNL     1       4.113   5.899  19.780  0.00  0.00    +0.000 OA
BRANCH  15  17
ATOM     17  C   UNL     1       2.338   7.395  19.387  0.00  0.00    +0.000 A 
ATOM     18  C   UNL     1       1.595   8.091  20.352  0.00  0.00    +0.000 A 
ATOM     19  C   UNL     1       0.967   9.291  20.019  0.00  0.00    +0.000 A 
ATOM     20  C   UNL     1       1.092   9.808  18.731  0.00  0.00    +0.000 A 
ATOM     21  C   UNL     1       1.865   9.144  17.782  0.00  0.00    +0.000 A 
ATOM     22  C   UNL     1       2.494   7.937  18.107  0.00  0.00    +0.000 A 
ENDBRANCH  15  17
ENDBRANCH  14  15
ENDBRANCH   9  14
ENDBRANCH   1  12
BRANCH   3  23
ATOM     23  C   UNL     1       6.236   4.229  14.492  0.00  0.00    +0.000 A 
ATOM     24  C   UNL     1       7.368   4.981  14.113  0.00  0.00    +0.000 A 
ATOM     25  C   UNL     1       7.818   5.006  12.790  0.00  0.00    +0.000 A 
ATOM     26  C   UNL     1       7.146   4.283  11.812  0.00  0.00    +0.000 A 
ATOM     27  C   UNL     1       6.038   3.518  12.161  0.00  0.00    +0.000 A 
ATOM     28  C   UNL     1       5.587   3.490  13.486  0.00  0.00    +0.000 A 
ENDBRANCH   3  23
BRANCH   3  29
ATOM     29  C   UNL     1       6.507   5.192  16.891  0.00  0.00    +0.000 A 
ATOM     30  C   UNL     1       7.337   4.624  17.882  0.00  0.00    +0.000 A 
ATOM     31  C   UNL     1       8.022   5.410  18.812  0.00  0.00    +0.000 A 
ATOM     32  C   UNL     1       7.917   6.791  18.758  0.00  0.00    +0.000 A 
ATOM     33  C   UNL     1       7.167   7.386  17.751  0.00  0.00    +0.000 A 
ATOM     34  C   UNL     1       6.478   6.601  16.820  0.00  0.00    +0.000 A 
ENDBRANCH   3  29
TORSDOF 6
ENDMDL
MODEL 7
REMARK VINA RESULT:      -6.5      2.296      3.516
REMARK  Name = 
REMARK  7 active torsions:
REMARK  status: ('A' for Active; 'I' for Inactive)
REMARK    1  A    between atoms: C_1  and  N_2
REMARK    2  A    between atoms: N_2  and  C_3
REMARK    3  A    between atoms: C_3  and  C_4
REMARK    4  A    between atoms: C_4  and  C_6
REMARK    5  A    between atoms: C_14  and  N_15
REMARK    6  A    between atoms: C_17  and  C_18
REMARK    7  A    between atoms: C_17  and  C_24
REMARK                            x       y       z     vdW  Elec       q    Type
REMARK                         _______ _______ _______ _____ _____    ______ ____
ROOT
ATOM      1  N   UNL     1      -1.774  13.397  20.435  0.00  0.00    +0.000 N 
ATOM      2  C   UNL     1      -2.480  12.196  19.970  0.00  0.00    +0.000 C 
ATOM      3  C   UNL     1      -1.564  11.552  18.881  0.00  0.00    +0.000 C 
ATOM      4  N   UNL     1      -0.794  12.734  18.507  0.00  0.00    +0.000 N 
ATOM      5  C   UNL     1      -0.760  13.674  19.507  0.00  0.00    +0.000 C 
ATOM      6  O   UNL     1       0.051  14.581  19.583  0.00  0.00    +0.000 OA
ATOM      7  H   UNL     1      -0.072  12.726  17.800  0.00  0.00    +0.000 HD
ENDROOT
BRANCH   1  12
ATOM      8  C   UNL     1      -3.167  14.281  24.889  0.00  0.00    +0.000 C 
ATOM      9  N   UNL     1      -3.477  13.973  23.427  0.00  0.00    +0.000 N 
ATOM     10  C   UNL     1      -3.239  12.500  23.113  0.00  0.00    +0.000 C 
ATOM     11  C   UNL     1      -1.772  12.433  22.744  0.00  0.00    +0.000 C 
ATOM     12  C   UNL     1      -1.555  13.661  21.864  0.00  0.00    +0.000 C 
ATOM     13  C   UNL     1      -2.487  14.730  22.500  0.00  0.00    +0.000 C 
BRANCH   9  14
ATOM     14  C   UNL     1      -4.946  14.384  23.096  0.00  0.00    +0.000 C 
BRANCH  14  15
ATOM     15  C   UNL     1      -5.905  13.224  22.822  0.00  0.00    +0.000 C 
ATOM     16  O   UNL     1      -6.225  12.414  23.691  0.00  0.00    +0.000 OA
BRANCH  15  17
ATOM     17  C   UNL     1      -6.401  13.044  21.430  0.00  0.00    +0.000 A 
ATOM     18  C   UNL     1      -7.172  14.071  20.867  0.00  0.00    +0.000 A 
ATOM     19  C   UNL     1      -7.746  13.906  19.606  0.00  0.00    +0.000 A 
ATOM     20  C   UNL     1      -7.539  12.725  18.897  0.00  0.00    +0.000 A 
ATOM     21  C   UNL     1      -6.737  11.718  19.432  0.00  0.00    +0.000 A 
ATOM     22  C   UNL     1      -6.163  11.875  20.697  0.00  0.00    +0.000 A 
ENDBRANCH  15  17
ENDBRANCH  14  15
ENDBRANCH   9  14
ENDBRANCH   1  12
BRANCH   3  23
ATOM     23  C   UNL     1      -2.422  11.050  17.711  0.00  0.00    +0.000 A 
ATOM     24  C   UNL     1      -1.920  10.094  16.801  0.00  0.00    +0.000 A 
ATOM     25  C   UNL     1      -2.640   9.721  15.664  0.00  0.00    +0.000 A 
ATOM     26  C   UNL     1      -3.879  10.295  15.404  0.00  0.00    +0.000 A 
ATOM     27  C   UNL     1      -4.406  11.226  16.293  0.00  0.00    +0.000 A 
ATOM     28  C   UNL     1      -3.687  11.600  17.435  0.00  0.00    +0.000 A 
ENDBRANCH   3  23
BRANCH   3  29
ATOM     29  C   UNL     1      -0.618  10.484  19.494  0.00  0.00    +0.000 A 
ATOM     30  C   UNL     1      -0.902   9.852  20.725  0.00  0.00    +0.000 A 
ATOM     31  C   UNL     1      -0.009   8.954  21.318  0.00  0.00    +0.000 A 
ATOM     32  C   UNL     1       1.180   8.642  20.680  0.00  0.00    +0.000 A 
ATOM     33  C   UNL     1       1.458   9.189  19.433  0.00  0.00    +0.000 A 
ATOM     34  C   UNL     1       0.567  10.090  18.838  0.00  0.00    +0.000 A 
ENDBRANCH   3  29
TORSDOF 6
ENDMDL
MODEL 8
REMARK VINA RESULT:      -6.5      1.838      2.751
REMARK  Name = 
REMARK  7 active torsions:
REMARK  status: ('A' for Active; 'I' for Inactive)
REMARK    1  A    between atoms: C_1  and  N_2
REMARK    2  A    between atoms: N_2  and  C_3
REMARK    3  A    between atoms: C_3  and  C_4
REMARK    4  A    between atoms: C_4  and  C_6
REMARK    5  A    between atoms: C_14  and  N_15
REMARK    6  A    between atoms: C_17  and  C_18
REMARK    7  A    between atoms: C_17  and  C_24
REMARK                            x       y       z     vdW  Elec       q    Type
REMARK                         _______ _______ _______ _____ _____    ______ ____
ROOT
ATOM      1  N   UNL     1      -0.952  13.438  20.058  0.00  0.00    +0.000 N 
ATOM      2  C   UNL     1      -1.844  12.301  19.793  0.00  0.00    +0.000 C 
ATOM      3  C   UNL     1      -1.163  11.474  18.657  0.00  0.00    +0.000 C 
ATOM      4  N   UNL     1      -0.325  12.524  18.086  0.00  0.00    +0.000 N 
ATOM      5  C   UNL     1      -0.051  13.523  18.987  0.00  0.00    +0.000 C 
ATOM      6  O   UNL     1       0.858  14.327  18.879  0.00  0.00    +0.000 OA
ATOM      7  H   UNL     1       0.287  12.378  17.295  0.00  0.00    +0.000 HD
ENDROOT
BRANCH   1  12
ATOM      8  C   UNL     1      -1.613  14.811  24.557  0.00  0.00    +0.000 C 
ATOM      9  N   UNL     1      -2.153  14.439  23.178  0.00  0.00    +0.000 N 
ATOM     10  C   UNL     1      -2.131  12.928  22.969  0.00  0.00    +0.000 C 
ATOM     11  C   UNL     1      -0.746  12.651  22.424  0.00  0.00    +0.000 C 
ATOM     12  C   UNL     1      -0.512  13.775  21.419  0.00  0.00    +0.000 C 
ATOM     13  C   UNL     1      -1.218  14.997  22.070  0.00  0.00    +0.000 C 
BRANCH   9  14
ATOM     14  C   UNL     1      -3.596  15.006  23.001  0.00  0.00    +0.000 C 
BRANCH  14  15
ATOM     15  C   UNL     1      -4.726  13.985  23.151  0.00  0.00    +0.000 C 
ATOM     16  O   UNL     1      -5.056  13.523  24.243  0.00  0.00    +0.000 OA
BRANCH  15  17
ATOM     17  C   UNL     1      -5.387  13.490  21.912  0.00  0.00    +0.000 A 
ATOM     18  C   UNL     1      -5.082  14.130  20.703  0.00  0.00    +0.000 A 
ATOM     19  C   UNL     1      -5.752  13.773  19.533  0.00  0.00    +0.000 A 
ATOM     20  C   UNL     1      -6.715  12.766  19.562  0.00  0.00    +0.000 A 
ATOM     21  C   UNL     1      -6.990  12.095  20.752  0.00  0.00    +0.000 A 
ATOM     22  C   UNL     1      -6.326  12.452  21.930  0.00  0.00    +0.000 A 
ENDBRANCH  15  17
ENDBRANCH  14  15
ENDBRANCH   9  14
ENDBRANCH   1  12
BRANCH   3  23
ATOM     23  C   UNL     1      -2.224  10.998  17.654  0.00  0.00    +0.000 A 
ATOM     24  C   UNL     1      -1.909  10.042  16.664  0.00  0.00    +0.000 A 
ATOM     25  C   UNL     1      -2.825   9.692  15.670  0.00  0.00    +0.000 A 
ATOM     26  C   UNL     1      -4.080  10.288  15.638  0.00  0.00    +0.000 A 
ATOM     27  C   UNL     1      -4.424  11.219  16.613  0.00  0.00    +0.000 A 
ATOM     28  C   UNL     1      -3.508  11.570  17.611  0.00  0.00    +0.000 A 
ENDBRANCH   3  23
BRANCH   3  29
ATOM     29  C   UNL     1      -0.266  10.346  19.235  0.00  0.00    +0.000 A 
ATOM     30  C   UNL     1      -0.503   9.780  20.507  0.00  0.00    +0.000 A 
ATOM     31  C   UNL     1       0.354   8.825  21.063  0.00  0.00    +0.000 A 
ATOM     32  C   UNL     1       1.457   8.390  20.347  0.00  0.00    +0.000 A 
ATOM     33  C   UNL     1       1.680   8.872  19.063  0.00  0.00    +0.000 A 
ATOM     34  C   UNL     1       0.825   9.829  18.505  0.00  0.00    +0.000 A 
ENDBRANCH   3  29
TORSDOF 6
ENDMDL
MODEL 9
REMARK VINA RESULT:      -6.4      1.773      2.662
REMARK  Name = 
REMARK  7 active torsions:
REMARK  status: ('A' for Active; 'I' for Inactive)
REMARK    1  A    between atoms: C_1  and  N_2
REMARK    2  A    between atoms: N_2  and  C_3
REMARK    3  A    between atoms: C_3  and  C_4
REMARK    4  A    between atoms: C_4  and  C_6
REMARK    5  A    between atoms: C_14  and  N_15
REMARK    6  A    between atoms: C_17  and  C_18
REMARK    7  A    between atoms: C_17  and  C_24
REMARK                            x       y       z     vdW  Elec       q    Type
REMARK                         _______ _______ _______ _____ _____    ______ ____
ROOT
ATOM      1  N   UNL     1      -0.858  13.909  19.954  0.00  0.00    +0.000 N 
ATOM      2  C   UNL     1      -1.794  12.791  19.771  0.00  0.00    +0.000 C 
ATOM      3  C   UNL     1      -1.164  11.877  18.673  0.00  0.00    +0.000 C 
ATOM      4  N   UNL     1      -0.302  12.862  18.027  0.00  0.00    +0.000 N 
ATOM      5  C   UNL     1       0.025  13.900  18.864  0.00  0.00    +0.000 C 
ATOM      6  O   UNL     1       0.959  14.664  18.694  0.00  0.00    +0.000 OA
ATOM      7  H   UNL     1       0.290  12.649  17.236  0.00  0.00    +0.000 HD
ENDROOT
BRANCH   1  12
ATOM      8  C   UNL     1      -1.381  14.945  24.560  0.00  0.00    +0.000 C 
ATOM      9  N   UNL     1      -1.948  14.489  23.218  0.00  0.00    +0.000 N 
ATOM     10  C   UNL     1      -1.576  13.039  22.929  0.00  0.00    +0.000 C 
ATOM     11  C   UNL     1      -0.227  13.132  22.248  0.00  0.00    +0.000 C 
ATOM     12  C   UNL     1      -0.379  14.307  21.285  0.00  0.00    +0.000 C 
ATOM     13  C   UNL     1      -1.296  15.294  22.061  0.00  0.00    +0.000 C 
BRANCH   9  14
ATOM     14  C   UNL     1      -3.497  14.681  23.202  0.00  0.00    +0.000 C 
BRANCH  14  15
ATOM     15  C   UNL     1      -4.311  13.501  23.735  0.00  0.00    +0.000 C 
ATOM     16  O   UNL     1      -4.076  12.976  24.823  0.00  0.00    +0.000 OA
BRANCH  15  17
ATOM     17  C   UNL     1      -5.373  12.934  22.859  0.00  0.00    +0.000 A 
ATOM     18  C   UNL     1      -5.048  12.662  21.522  0.00  0.00    +0.000 A 
ATOM     19  C   UNL     1      -6.035  12.230  20.637  0.00  0.00    +0.000 A 
ATOM     20  C   UNL     1      -7.343  12.051  21.084  0.00  0.00    +0.000 A 
ATOM     21  C   UNL     1      -7.662  12.276  22.421  0.00  0.00    +0.000 A 
ATOM     22  C   UNL     1      -6.679  12.716  23.314  0.00  0.00    +0.000 A 
ENDBRANCH  15  17
ENDBRANCH  14  15
ENDBRANCH   9  14
ENDBRANCH   1  12
BRANCH   3  23
ATOM     23  C   UNL     1      -2.260  11.382  17.718  0.00  0.00    +0.000 A 
ATOM     24  C   UNL     1      -3.610  11.746  17.911  0.00  0.00    +0.000 A 
ATOM     25  C   UNL     1      -4.631  11.205  17.127  0.00  0.00    +0.000 A 
ATOM     26  C   UNL     1      -4.332  10.284  16.131  0.00  0.00    +0.000 A 
ATOM     27  C   UNL     1      -3.007   9.921  15.906  0.00  0.00    +0.000 A 
ATOM     28  C   UNL     1      -1.982  10.464  16.689  0.00  0.00    +0.000 A 
ENDBRANCH   3  23
BRANCH   3  29
ATOM     29  C   UNL     1      -0.295  10.752  19.299  0.00  0.00    +0.000 A 
ATOM     30  C   UNL     1       0.850  10.242  18.648  0.00  0.00    +0.000 A 
ATOM     31  C   UNL     1       1.582   9.171  19.170  0.00  0.00    +0.000 A 
ATOM     32  C   UNL     1       1.203   8.600  20.375  0.00  0.00    +0.000 A 
ATOM     33  C   UNL     1       0.125   9.125  21.077  0.00  0.00    +0.000 A 
ATOM     34  C   UNL     1      -0.611  10.195  20.556  0.00  0.00    +0.000 A 
ENDBRANCH   3  29
TORSDOF 6
ENDMDL
