MODEL 1
REMARK VINA RESULT:      -7.1      0.000      0.000
REMARK  Name = 
REMARK  8 active torsions:
REMARK  status: ('A' for Active; 'I' for Inactive)
REMARK    1  A    between atoms: C_2  and  C_3
REMARK    2  A    between atoms: C_7  and  C_8
REMARK    3  A    between atoms: N_12  and  C_13
REMARK    4  A    between atoms: C_17  and  C_18
REMARK    5  A    between atoms: C_18  and  O_19
REMARK    6  A    between atoms: C_18  and  C_20
REMARK    7  A    between atoms: C_18  and  C_27
REMARK    8  A    between atoms: N_31  and  C_32
REMARK                            x       y       z     vdW  Elec       q    Type
REMARK                         _______ _______ _______ _____ _____    ______ ____
ROOT
ATOM      1  C   UNL     1      -4.996  13.284  21.223  0.00  0.00    +0.000 A 
ATOM      2  C   UNL     1      -5.734  13.999  22.083  0.00  0.00    +0.000 A 
ATOM      3  C   UNL     1      -5.197  14.503  23.372  0.00  0.00    +0.000 A 
ATOM      4  O   UNL     1      -5.954  15.144  24.099  0.00  0.00    +0.000 OA
ATOM      5  N   UNL     1      -3.870  14.222  23.670  0.00  0.00    +0.000 N 
ATOM      6  C   UNL     1      -3.325  14.714  24.925  0.00  0.00    +0.000 C 
ATOM      7  C   UNL     1      -3.039  13.493  22.771  0.00  0.00    +0.000 A 
ATOM      8  C   UNL     1      -1.682  13.244  23.032  0.00  0.00    +0.000 A 
ATOM      9  C   UNL     1      -0.873  12.585  22.093  0.00  0.00    +0.000 A 
ATOM     10  C   UNL     1      -1.409  12.090  20.896  0.00  0.00    +0.000 A 
ATOM     11  C   UNL     1      -2.784  12.278  20.699  0.00  0.00    +0.000 A 
ATOM     12  C   UNL     1      -3.590  13.013  21.579  0.00  0.00    +0.000 A 
ENDROOT
BRANCH   1  17
ATOM     13  C   UNL     1      -6.552  13.464  17.781  0.00  0.00    +0.000 A 
ATOM     14  C   UNL     1      -6.614  12.111  17.440  0.00  0.00    +0.000 A 
ATOM     15  C   UNL     1      -6.201  11.139  18.353  0.00  0.00    +0.000 A 
ATOM     16  C   UNL     1      -5.715  11.518  19.607  0.00  0.00    +0.000 A 
ATOM     17  C   UNL     1      -5.634  12.872  19.952  0.00  0.00    +0.000 A 
ATOM     18  C   UNL     1      -6.060  13.844  19.033  0.00  0.00    +0.000 A 
BRANCH  13  20
ATOM     19  C   UNL     1      -7.336  15.298  16.065  0.00  0.00    +0.000 C 
ATOM     20  C   UNL     1      -6.982  14.460  16.852  0.00  0.00    +0.000 C 
ENDBRANCH  13  20
ENDBRANCH   1  17
BRANCH  10  21
ATOM     21  C   UNL     1      -0.573  11.329  19.844  0.00  0.00    +0.000 C 
BRANCH  21  22
ATOM     22  C   UNL     1      -1.420  11.018  18.572  0.00  0.00    +0.000 A 
ATOM     23  C   UNL     1      -2.140   9.808  18.438  0.00  0.00    +0.000 A 
ATOM     24  C   UNL     1      -2.985   9.559  17.351  0.00  0.00    +0.000 A 
ATOM     25  C   UNL     1      -3.097  10.502  16.341  0.00  0.00    +0.000 A 
ATOM     26 CL   UNL     1      -4.139  10.202  15.006  0.00  0.00    +0.000 Cl
ATOM     27  C   UNL     1      -2.370  11.685  16.411  0.00  0.00    +0.000 A 
ATOM     28  C   UNL     1      -1.554  11.949  17.522  0.00  0.00    +0.000 A 
ENDBRANCH  21  22
BRANCH  21  29
ATOM     29  C   UNL     1       0.116  10.111  20.439  0.00  0.00    +0.000 A 
ATOM     30  C   UNL     1      -0.037   9.487  21.666  0.00  0.00    +0.000 A 
ATOM     31  N   UNL     1       0.778   8.394  21.790  0.00  0.00    +0.000 NA
ATOM     32  C   UNL     1       1.422   8.319  20.652  0.00  0.00    +0.000 A 
ATOM     33  N   UNL     1       1.053   9.321  19.792  0.00  0.00    +0.000 N 
ATOM     34  C   UNL     1       1.580   9.449  18.456  0.00  0.00    +0.000 C 
ENDBRANCH  21  29
BRANCH  21  35
ATOM     35  O   UNL     1       0.533  12.158  19.460  0.00  0.00    +0.000 OA
ATOM     36  H   UNL     1       1.279  11.871  20.014  0.00  0.00    +0.000 HD
ENDBRANCH  21  35
ENDBRANCH  10  21
TORSDOF 6
ENDMDL
MODEL 2
REMARK VINA RESULT:      -7.0      6.791     10.552
REMARK  Name = 
REMARK  8 active torsions:
REMARK  status: ('A' for Active; 'I' for Inactive)
REMARK    1  A    between atoms: C_2  and  C_3
REMARK    2  A    between atoms: C_7  and  C_8
REMARK    3  A    between atoms: N_12  and  C_13
REMARK    4  A    between atoms: C_17  and  C_18
REMARK    5  A    between atoms: C_18  and  O_19
REMARK    6  A    between atoms: C_18  and  C_20
REMARK    7  A    between atoms: C_18  and  C_27
REMARK    8  A    between atoms: N_31  and  C_32
REMARK                            x       y       z     vdW  Elec       q    Type
REMARK                         _______ _______ _______ _____ _____    ______ ____
ROOT
ATOM      1  C   UNL     1       2.113   5.621  20.261  0.00  0.00    +0.000 A 
ATOM      2  C   UNL     1       1.562   4.876  21.228  0.00  0.00    +0.000 A 
ATOM      3  C   UNL     1       1.975   3.475  21.494  0.00  0.00    +0.000 A 
ATOM      4  O   UNL     1       1.405   2.869  22.400  0.00  0.00    +0.000 OA
ATOM      5  N   UNL     1       2.986   2.942  20.706  0.00  0.00    +0.000 N 
ATOM      6  C   UNL     1       3.410   1.574  20.956  0.00  0.00    +0.000 C 
ATOM      7  C   UNL     1       3.624   3.707  19.687  0.00  0.00    +0.000 A 
ATOM      8  C   UNL     1       4.682   3.203  18.915  0.00  0.00    +0.000 A 
ATOM      9  C   UNL     1       5.336   4.008  17.968  0.00  0.00    +0.000 A 
ATOM     10  C   UNL     1       4.908   5.318  17.711  0.00  0.00    +0.000 A 
ATOM     11  C   UNL     1       3.795   5.767  18.437  0.00  0.00    +0.000 A 
ATOM     12  C   UNL     1       3.187   5.014  19.450  0.00  0.00    +0.000 A 
ENDROOT
BRANCH   1  17
ATOM     13  C   UNL     1       0.630   8.995  21.103  0.00  0.00    +0.000 A 
ATOM     14  C   UNL     1       0.964   9.732  19.965  0.00  0.00    +0.000 A 
ATOM     15  C   UNL     1       1.624   9.114  18.900  0.00  0.00    +0.000 A 
ATOM     16  C   UNL     1       1.959   7.759  18.976  0.00  0.00    +0.000 A 
ATOM     17  C   UNL     1       1.642   7.017  20.120  0.00  0.00    +0.000 A 
ATOM     18  C   UNL     1       0.972   7.642  21.183  0.00  0.00    +0.000 A 
BRANCH  13  20
ATOM     19  C   UNL     1      -0.617  10.154  23.111  0.00  0.00    +0.000 C 
ATOM     20  C   UNL     1      -0.051   9.624  22.191  0.00  0.00    +0.000 C 
ENDBRANCH  13  20
ENDBRANCH   1  17
BRANCH  10  21
ATOM     21  C   UNL     1       5.568   6.233  16.659  0.00  0.00    +0.000 C 
BRANCH  21  22
ATOM     22  C   UNL     1       6.016   5.418  15.407  0.00  0.00    +0.000 A 
ATOM     23  C   UNL     1       5.147   4.502  14.769  0.00  0.00    +0.000 A 
ATOM     24  C   UNL     1       5.497   3.842  13.587  0.00  0.00    +0.000 A 
ATOM     25  C   UNL     1       6.751   4.047  13.033  0.00  0.00    +0.000 A 
ATOM     26 CL   UNL     1       7.183   3.242  11.576  0.00  0.00    +0.000 Cl
ATOM     27  C   UNL     1       7.653   4.904  13.654  0.00  0.00    +0.000 A 
ATOM     28  C   UNL     1       7.285   5.596  14.818  0.00  0.00    +0.000 A 
ENDBRANCH  21  22
BRANCH  21  29
ATOM     29  C   UNL     1       6.669   7.092  17.263  0.00  0.00    +0.000 A 
ATOM     30  C   UNL     1       6.917   8.451  17.171  0.00  0.00    +0.000 A 
ATOM     31  N   UNL     1       8.018   8.820  17.895  0.00  0.00    +0.000 NA
ATOM     32  C   UNL     1       8.448   7.714  18.451  0.00  0.00    +0.000 A 
ATOM     33  N   UNL     1       7.664   6.641  18.116  0.00  0.00    +0.000 N 
ATOM     34  C   UNL     1       7.890   5.309  18.622  0.00  0.00    +0.000 C 
ENDBRANCH  21  29
BRANCH  21  35
ATOM     35  O   UNL     1       4.604   7.210  16.241  0.00  0.00    +0.000 OA
ATOM     36  H   UNL     1       4.255   7.600  17.061  0.00  0.00    +0.000 HD
ENDBRANCH  21  35
ENDBRANCH  10  21
TORSDOF 6
ENDMDL
MODEL 3
REMARK VINA RESULT:      -7.0      2.551      3.850
REMARK  Name = 
REMARK  8 active torsions:
REMARK  status: ('A' for Active; 'I' for Inactive)
REMARK    1  A    between atoms: C_2  and  C_3
REMARK    2  A    between atoms: C_7  and  C_8
REMARK    3  A    between atoms: N_12  and  C_13
REMARK    4  A    between atoms: C_17  and  C_18
REMARK    5  A    between atoms: C_18  and  O_19
REMARK    6  A    between atoms: C_18  and  C_20
REMARK    7  A    between atoms: C_18  and  C_27
REMARK    8  A    between atoms: N_31  and  C_32
REMARK                            x       y       z     vdW  Elec       q    Type
REMARK                         _______ _______ _______ _____ _____    ______ ____
ROOT
ATOM      1  C   UNL     1      -4.982  12.696  20.887  0.00  0.00    +0.000 A 
ATOM      2  C   UNL     1      -6.004  12.813  21.745  0.00  0.00    +0.000 A 
ATOM      3  C   UNL     1      -5.819  12.803  23.218  0.00  0.00    +0.000 A 
ATOM      4  O   UNL     1      -6.820  12.909  23.925  0.00  0.00    +0.000 OA
ATOM      5  N   UNL     1      -4.523  12.680  23.703  0.00  0.00    +0.000 N 
ATOM      6  C   UNL     1      -4.321  12.675  25.142  0.00  0.00    +0.000 C 
ATOM      7  C   UNL     1      -3.402  12.585  22.828  0.00  0.00    +0.000 A 
ATOM      8  C   UNL     1      -2.082  12.512  23.299  0.00  0.00    +0.000 A 
ATOM      9  C   UNL     1      -0.995  12.492  22.409  0.00  0.00    +0.000 A 
ATOM     10  C   UNL     1      -1.195  12.471  21.022  0.00  0.00    +0.000 A 
ATOM     11  C   UNL     1      -2.526  12.459  20.580  0.00  0.00    +0.000 A 
ATOM     12  C   UNL     1      -3.621  12.572  21.447  0.00  0.00    +0.000 A 
ENDROOT
BRANCH   1  17
ATOM     13  C   UNL     1      -4.961  11.910  17.189  0.00  0.00    +0.000 A 
ATOM     14  C   UNL     1      -6.031  12.686  16.740  0.00  0.00    +0.000 A 
ATOM     15  C   UNL     1      -6.723  13.507  17.632  0.00  0.00    +0.000 A 
ATOM     16  C   UNL     1      -6.352  13.547  18.978  0.00  0.00    +0.000 A 
ATOM     17  C   UNL     1      -5.291  12.760  19.441  0.00  0.00    +0.000 A 
ATOM     18  C   UNL     1      -4.594  11.944  18.538  0.00  0.00    +0.000 A 
BRANCH  13  20
ATOM     19  C   UNL     1      -3.644  10.378  15.503  0.00  0.00    +0.000 C 
ATOM     20  C   UNL     1      -4.246  11.074  16.276  0.00  0.00    +0.000 C 
ENDBRANCH  13  20
ENDBRANCH   1  17
BRANCH  10  21
ATOM     21  C   UNL     1      -0.040  12.415  20.001  0.00  0.00    +0.000 C 
BRANCH  21  22
ATOM     22  C   UNL     1       0.509  10.962  19.853  0.00  0.00    +0.000 A 
ATOM     23  C   UNL     1       0.991  10.474  18.616  0.00  0.00    +0.000 A 
ATOM     24  C   UNL     1       1.581   9.212  18.491  0.00  0.00    +0.000 A 
ATOM     25  C   UNL     1       1.662   8.381  19.597  0.00  0.00    +0.000 A 
ATOM     26 CL   UNL     1       2.391   6.830  19.449  0.00  0.00    +0.000 Cl
ATOM     27  C   UNL     1       1.157   8.804  20.822  0.00  0.00    +0.000 A 
ATOM     28  C   UNL     1       0.602  10.086  20.954  0.00  0.00    +0.000 A 
ENDBRANCH  21  22
BRANCH  21  29
ATOM     29  C   UNL     1       1.033  13.452  20.297  0.00  0.00    +0.000 A 
ATOM     30  C   UNL     1       2.386  13.314  20.551  0.00  0.00    +0.000 A 
ATOM     31  N   UNL     1       2.995  14.523  20.750  0.00  0.00    +0.000 NA
ATOM     32  C   UNL     1       2.044  15.412  20.605  0.00  0.00    +0.000 A 
ATOM     33  N   UNL     1       0.840  14.824  20.316  0.00  0.00    +0.000 N 
ATOM     34  C   UNL     1      -0.366  15.575  20.069  0.00  0.00    +0.000 C 
ENDBRANCH  21  29
BRANCH  21  35
ATOM     35  O   UNL     1      -0.542  12.839  18.726  0.00  0.00    +0.000 OA
ATOM     36  H   UNL     1      -1.510  12.876  18.825  0.00  0.00    +0.000 HD
ENDBRANCH  21  35
ENDBRANCH  10  21
TORSDOF 6
ENDMDL
MODEL 4
REMARK VINA RESULT:      -6.8      1.956      6.026
REMARK  Name = 
REMARK  8 active torsions:
REMARK  status: ('A' for Active; 'I' for Inactive)
REMARK    1  A    between atoms: C_2  and  C_3
REMARK    2  A    between atoms: C_7  and  C_8
REMARK    3  A    between atoms: N_12  and  C_13
REMARK    4  A    between atoms: C_17  and  C_18
REMARK    5  A    between atoms: C_18  and  O_19
REMARK    6  A    between atoms: C_18  and  C_20
REMARK    7  A    between atoms: C_18  and  C_27
REMARK    8  A    between atoms: N_31  and  C_32
REMARK                            x       y       z     vdW  Elec       q    Type
REMARK                         _______ _______ _______ _____ _____    ______ ____
ROOT
ATOM      1  C   UNL     1      -1.320  10.622  19.123  0.00  0.00    +0.000 A 
ATOM      2  C   UNL     1      -0.298   9.826  18.782  0.00  0.00    +0.000 A 
ATOM      3  C   UNL     1       0.748   9.406  19.748  0.00  0.00    +0.000 A 
ATOM      4  O   UNL     1       1.652   8.680  19.338  0.00  0.00    +0.000 OA
ATOM      5  N   UNL     1       0.634   9.857  21.056  0.00  0.00    +0.000 N 
ATOM      6  C   UNL     1       1.644   9.451  22.019  0.00  0.00    +0.000 C 
ATOM      7  C   UNL     1      -0.454  10.679  21.473  0.00  0.00    +0.000 A 
ATOM      8  C   UNL     1      -0.614  11.102  22.802  0.00  0.00    +0.000 A 
ATOM      9  C   UNL     1      -1.735  11.851  23.193  0.00  0.00    +0.000 A 
ATOM     10  C   UNL     1      -2.694  12.263  22.257  0.00  0.00    +0.000 A 
ATOM     11  C   UNL     1      -2.465  11.899  20.923  0.00  0.00    +0.000 A 
ATOM     12  C   UNL     1      -1.403  11.074  20.526  0.00  0.00    +0.000 A 
ENDROOT
BRANCH   1  17
ATOM     13  C   UNL     1      -3.163  10.621  15.822  0.00  0.00    +0.000 A 
ATOM     14  C   UNL     1      -4.325  11.317  16.158  0.00  0.00    +0.000 A 
ATOM     15  C   UNL     1      -4.483  11.835  17.446  0.00  0.00    +0.000 A 
ATOM     16  C   UNL     1      -3.482  11.649  18.403  0.00  0.00    +0.000 A 
ATOM     17  C   UNL     1      -2.320  10.938  18.079  0.00  0.00    +0.000 A 
ATOM     18  C   UNL     1      -2.164  10.428  16.781  0.00  0.00    +0.000 A 
BRANCH  13  20
ATOM     19  C   UNL     1      -2.864   9.655  13.392  0.00  0.00    +0.000 C 
ATOM     20  C   UNL     1      -2.995  10.097  14.503  0.00  0.00    +0.000 C 
ENDBRANCH  13  20
ENDBRANCH   1  17
BRANCH  10  21
ATOM     21  C   UNL     1      -3.927  13.116  22.627  0.00  0.00    +0.000 C 
BRANCH  21  22
ATOM     22  C   UNL     1      -4.890  13.267  21.409  0.00  0.00    +0.000 A 
ATOM     23  C   UNL     1      -5.844  12.272  21.091  0.00  0.00    +0.000 A 
ATOM     24  C   UNL     1      -6.782  12.440  20.067  0.00  0.00    +0.000 A 
ATOM     25  C   UNL     1      -6.761  13.594  19.300  0.00  0.00    +0.000 A 
ATOM     26 CL   UNL     1      -7.917  13.807  18.044  0.00  0.00    +0.000 Cl
ATOM     27  C   UNL     1      -5.809  14.577  19.550  0.00  0.00    +0.000 A 
ATOM     28  C   UNL     1      -4.894  14.424  20.603  0.00  0.00    +0.000 A 
ENDBRANCH  21  22
BRANCH  21  29
ATOM     29  C   UNL     1      -3.533  14.437  23.270  0.00  0.00    +0.000 A 
ATOM     30  C   UNL     1      -3.975  15.052  24.428  0.00  0.00    +0.000 A 
ATOM     31  N   UNL     1      -3.334  16.241  24.653  0.00  0.00    +0.000 NA
ATOM     32  C   UNL     1      -2.487  16.364  23.662  0.00  0.00    +0.000 A 
ATOM     33  N   UNL     1      -2.551  15.297  22.804  0.00  0.00    +0.000 N 
ATOM     34  C   UNL     1      -1.699  15.160  21.649  0.00  0.00    +0.000 C 
ENDBRANCH  21  29
BRANCH  21  35
ATOM     35  O   UNL     1      -4.635  12.452  23.683  0.00  0.00    +0.000 OA
ATOM     36  H   UNL     1      -4.004  11.816  24.062  0.00  0.00    +0.000 HD
ENDBRANCH  21  35
ENDBRANCH  10  21
TORSDOF 6
ENDMDL
MODEL 5
REMARK VINA RESULT:      -6.7      2.838      5.377
REMARK  Name = 
REMARK  8 active torsions:
REMARK  status: ('A' for Active; 'I' for Inactive)
REMARK    1  A    between atoms: C_2  and  C_3
REMARK    2  A    between atoms: C_7  and  C_8
REMARK    3  A    between atoms: N_12  and  C_13
REMARK    4  A    between atoms: C_17  and  C_18
REMARK    5  A    between atoms: C_18  and  O_19
REMARK    6  A    between atoms: C_18  and  C_20
REMARK    7  A    between atoms: C_18  and  C_27
REMARK    8  A    between atoms: N_31  and  C_32
REMARK                            x       y       z     vdW  Elec       q    Type
REMARK                         _______ _______ _______ _____ _____    ______ ____
ROOT
ATOM      1  C   UNL     1      -4.390  13.155  21.311  0.00  0.00    +0.000 A 
ATOM      2  C   UNL     1      -5.719  13.000  21.370  0.00  0.00    +0.000 A 
ATOM      3  C   UNL     1      -6.492  12.301  20.313  0.00  0.00    +0.000 A 
ATOM      4  O   UNL     1      -7.711  12.215  20.452  0.00  0.00    +0.000 OA
ATOM      5  N   UNL     1      -5.785  11.781  19.236  0.00  0.00    +0.000 N 
ATOM      6  C   UNL     1      -6.523  11.087  18.195  0.00  0.00    +0.000 C 
ATOM      7  C   UNL     1      -4.367  11.894  19.147  0.00  0.00    +0.000 A 
ATOM      8  C   UNL     1      -3.630  11.331  18.093  0.00  0.00    +0.000 A 
ATOM      9  C   UNL     1      -2.228  11.399  18.072  0.00  0.00    +0.000 A 
ATOM     10  C   UNL     1      -1.521  12.092  19.065  0.00  0.00    +0.000 A 
ATOM     11  C   UNL     1      -2.287  12.716  20.060  0.00  0.00    +0.000 A 
ATOM     12  C   UNL     1      -3.679  12.584  20.150  0.00  0.00    +0.000 A 
ENDROOT
BRANCH   1  17
ATOM     13  C   UNL     1      -3.782  15.526  24.193  0.00  0.00    +0.000 A 
ATOM     14  C   UNL     1      -2.621  14.986  24.749  0.00  0.00    +0.000 A 
ATOM     15  C   UNL     1      -2.006  13.883  24.153  0.00  0.00    +0.000 A 
ATOM     16  C   UNL     1      -2.556  13.312  23.003  0.00  0.00    +0.000 A 
ATOM     17  C   UNL     1      -3.729  13.837  22.447  0.00  0.00    +0.000 A 
ATOM     18  C   UNL     1      -4.338  14.951  23.046  0.00  0.00    +0.000 A 
BRANCH  13  20
ATOM     19  C   UNL     1      -4.938  17.616  25.298  0.00  0.00    +0.000 C 
ATOM     20  C   UNL     1      -4.409  16.659  24.798  0.00  0.00    +0.000 C 
ENDBRANCH  13  20
ENDBRANCH   1  17
BRANCH  10  21
ATOM     21  C   UNL     1       0.016  12.226  19.073  0.00  0.00    +0.000 C 
BRANCH  21  22
ATOM     22  C   UNL     1       0.701  10.831  19.212  0.00  0.00    +0.000 A 
ATOM     23  C   UNL     1       0.570  10.055  20.388  0.00  0.00    +0.000 A 
ATOM     24  C   UNL     1       1.091   8.761  20.489  0.00  0.00    +0.000 A 
ATOM     25  C   UNL     1       1.800   8.223  19.426  0.00  0.00    +0.000 A 
ATOM     26 CL   UNL     1       2.437   6.630  19.544  0.00  0.00    +0.000 Cl
ATOM     27  C   UNL     1       1.992   8.971  18.269  0.00  0.00    +0.000 A 
ATOM     28  C   UNL     1       1.434  10.254  18.156  0.00  0.00    +0.000 A 
ENDBRANCH  21  22
BRANCH  21  29
ATOM     29  C   UNL     1       0.492  13.251  20.091  0.00  0.00    +0.000 A 
ATOM     30  C   UNL     1       1.120  13.095  21.314  0.00  0.00    +0.000 A 
ATOM     31  N   UNL     1       1.395  14.298  21.906  0.00  0.00    +0.000 NA
ATOM     32  C   UNL     1       0.965  15.200  21.060  0.00  0.00    +0.000 A 
ATOM     33  N   UNL     1       0.423  14.627  19.939  0.00  0.00    +0.000 N 
ATOM     34  C   UNL     1      -0.091  15.393  18.830  0.00  0.00    +0.000 C 
ENDBRANCH  21  29
BRANCH  21  35
ATOM     35  O   UNL     1       0.426  12.808  17.827  0.00  0.00    +0.000 OA
ATOM     36  H   UNL     1      -0.198  13.536  17.661  0.00  0.00    +0.000 HD
ENDBRANCH  21  35
ENDBRANCH  10  21
TORSDOF 6
ENDMDL
MODEL 6
REMARK VINA RESULT:      -6.7      3.066      4.667
REMARK  Name = 
REMARK  8 active torsions:
REMARK  status: ('A' for Active; 'I' for Inactive)
REMARK    1  A    between atoms: C_2  and  C_3
REMARK    2  A    between atoms: C_7  and  C_8
REMARK    3  A    between atoms: N_12  and  C_13
REMARK    4  A    between atoms: C_17  and  C_18
REMARK    5  A    between atoms: C_18  and  O_19
REMARK    6  A    between atoms: C_18  and  C_20
REMARK    7  A    between atoms: C_18  and  C_27
REMARK    8  A    between atoms: N_31  and  C_32
REMARK                            x       y       z     vdW  Elec       q    Type
REMARK                         _______ _______ _______ _____ _____    ______ ____
ROOT
ATOM      1  C   UNL     1      -4.560  11.950  18.566  0.00  0.00    +0.000 A 
ATOM      2  C   UNL     1      -5.863  12.129  18.313  0.00  0.00    +0.000 A 
ATOM      3  C   UNL     1      -6.729  12.998  19.148  0.00  0.00    +0.000 A 
ATOM      4  O   UNL     1      -7.916  13.094  18.839  0.00  0.00    +0.000 OA
ATOM      5  N   UNL     1      -6.141  13.654  20.221  0.00  0.00    +0.000 N 
ATOM      6  C   UNL     1      -6.972  14.515  21.046  0.00  0.00    +0.000 C 
ATOM      7  C   UNL     1      -4.751  13.519  20.510  0.00  0.00    +0.000 A 
ATOM      8  C   UNL     1      -4.128  14.213  21.558  0.00  0.00    +0.000 A 
ATOM      9  C   UNL     1      -2.744  14.113  21.771  0.00  0.00    +0.000 A 
ATOM     10  C   UNL     1      -1.950  13.262  20.990  0.00  0.00    +0.000 A 
ATOM     11  C   UNL     1      -2.613  12.516  20.004  0.00  0.00    +0.000 A 
ATOM     12  C   UNL     1      -3.975  12.669  19.715  0.00  0.00    +0.000 A 
ENDROOT
BRANCH   1  17
ATOM     13  C   UNL     1      -3.440  10.224  15.395  0.00  0.00    +0.000 A 
ATOM     14  C   UNL     1      -2.225   9.670  15.800  0.00  0.00    +0.000 A 
ATOM     15  C   UNL     1      -1.797   9.812  17.122  0.00  0.00    +0.000 A 
ATOM     16  C   UNL     1      -2.581  10.517  18.039  0.00  0.00    +0.000 A 
ATOM     17  C   UNL     1      -3.793  11.090  17.637  0.00  0.00    +0.000 A 
ATOM     18  C   UNL     1      -4.222  10.936  16.309  0.00  0.00    +0.000 A 
BRANCH  13  20
ATOM     19  C   UNL     1      -4.257   9.937  12.909  0.00  0.00    +0.000 C 
ATOM     20  C   UNL     1      -3.883  10.073  14.044  0.00  0.00    +0.000 C 
ENDBRANCH  13  20
ENDBRANCH   1  17
BRANCH  10  21
ATOM     21  C   UNL     1      -0.431  13.088  21.202  0.00  0.00    +0.000 C 
BRANCH  21  22
ATOM     22  C   UNL     1       0.379  14.031  20.260  0.00  0.00    +0.000 A 
ATOM     23  C   UNL     1      -0.266  14.931  19.380  0.00  0.00    +0.000 A 
ATOM     24  C   UNL     1       0.445  15.854  18.605  0.00  0.00    +0.000 A 
ATOM     25  C   UNL     1       1.830  15.869  18.656  0.00  0.00    +0.000 A 
ATOM     26 CL   UNL     1       2.707  17.006  17.709  0.00  0.00    +0.000 Cl
ATOM     27  C   UNL     1       2.505  14.968  19.473  0.00  0.00    +0.000 A 
ATOM     28  C   UNL     1       1.788  14.071  20.279  0.00  0.00    +0.000 A 
ENDBRANCH  21  22
BRANCH  21  29
ATOM     29  C   UNL     1      -0.010  11.629  21.126  0.00  0.00    +0.000 A 
ATOM     30  C   UNL     1       0.834  10.970  20.248  0.00  0.00    +0.000 A 
ATOM     31  N   UNL     1       0.954   9.641  20.553  0.00  0.00    +0.000 NA
ATOM     32  C   UNL     1       0.212   9.468  21.619  0.00  0.00    +0.000 A 
ATOM     33  N   UNL     1      -0.382  10.636  22.019  0.00  0.00    +0.000 N 
ATOM     34  C   UNL     1      -1.220  10.736  23.188  0.00  0.00    +0.000 C 
ENDBRANCH  21  29
BRANCH  21  35
ATOM     35  O   UNL     1      -0.122  13.433  22.560  0.00  0.00    +0.000 OA
ATOM     36  H   UNL     1       0.264  12.630  22.952  0.00  0.00    +0.000 HD
ENDBRANCH  21  35
ENDBRANCH  10  21
TORSDOF 6
ENDMDL
MODEL 7
REMARK VINA RESULT:      -6.7      1.492      2.385
REMARK  Name = 
REMARK  8 active torsions:
REMARK  status: ('A' for Active; 'I' for Inactive)
REMARK    1  A    between atoms: C_2  and  C_3
REMARK    2  A    between atoms: C_7  and  C_8
REMARK    3  A    between atoms: N_12  and  C_13
REMARK    4  A    between atoms: C_17  and  C_18
REMARK    5  A    between atoms: C_18  and  O_19
REMARK    6  A    between atoms: C_18  and  C_20
REMARK    7  A    between atoms: C_18  and  C_27
REMARK    8  A    between atoms: N_31  and  C_32
REMARK                            x       y       z     vdW  Elec       q    Type
REMARK                         _______ _______ _______ _____ _____    ______ ____
ROOT
ATOM      1  C   UNL     1      -5.378  14.044  21.654  0.00  0.00    +0.000 A 
ATOM      2  C   UNL     1      -6.236  14.898  22.228  0.00  0.00    +0.000 A 
ATOM      3  C   UNL     1      -5.831  15.840  23.301  0.00  0.00    +0.000 A 
ATOM      4  O   UNL     1      -6.692  16.581  23.772  0.00  0.00    +0.000 OA
ATOM      5  N   UNL     1      -4.501  15.828  23.700  0.00  0.00    +0.000 N 
ATOM      6  C   UNL     1      -4.084  16.749  24.745  0.00  0.00    +0.000 C 
ATOM      7  C   UNL     1      -3.545  14.960  23.096  0.00  0.00    +0.000 A 
ATOM      8  C   UNL     1      -2.187  14.970  23.449  0.00  0.00    +0.000 A 
ATOM      9  C   UNL     1      -1.259  14.152  22.784  0.00  0.00    +0.000 A 
ATOM     10  C   UNL     1      -1.670  13.247  21.795  0.00  0.00    +0.000 A 
ATOM     11  C   UNL     1      -3.044  13.198  21.521  0.00  0.00    +0.000 A 
ATOM     12  C   UNL     1      -3.973  14.069  22.107  0.00  0.00    +0.000 A 
ENDROOT
BRANCH   1  17
ATOM     13  C   UNL     1      -6.879  11.080  19.851  0.00  0.00    +0.000 A 
ATOM     14  C   UNL     1      -7.104  11.618  18.582  0.00  0.00    +0.000 A 
ATOM     15  C   UNL     1      -6.716  12.929  18.299  0.00  0.00    +0.000 A 
ATOM     16  C   UNL     1      -6.109  13.708  19.288  0.00  0.00    +0.000 A 
ATOM     17  C   UNL     1      -5.894  13.182  20.567  0.00  0.00    +0.000 A 
ATOM     18  C   UNL     1      -6.279  11.861  20.843  0.00  0.00    +0.000 A 
BRANCH  13  20
ATOM     19  C   UNL     1      -7.604   8.608  20.388  0.00  0.00    +0.000 C 
ATOM     20  C   UNL     1      -7.269   9.735  20.140  0.00  0.00    +0.000 C 
ENDBRANCH  13  20
ENDBRANCH   1  17
BRANCH  10  21
ATOM     21  C   UNL     1      -0.699  12.302  21.056  0.00  0.00    +0.000 C 
BRANCH  21  22
ATOM     22  C   UNL     1      -1.242  11.933  19.642  0.00  0.00    +0.000 A 
ATOM     23  C   UNL     1      -2.286  10.993  19.470  0.00  0.00    +0.000 A 
ATOM     24  C   UNL     1      -2.853  10.729  18.219  0.00  0.00    +0.000 A 
ATOM     25  C   UNL     1      -2.357  11.367  17.093  0.00  0.00    +0.000 A 
ATOM     26 CL   UNL     1      -3.055  11.049  15.554  0.00  0.00    +0.000 Cl
ATOM     27  C   UNL     1      -1.300  12.263  17.211  0.00  0.00    +0.000 A 
ATOM     28  C   UNL     1      -0.759  12.557  18.473  0.00  0.00    +0.000 A 
ENDBRANCH  21  22
BRANCH  21  29
ATOM     29  C   UNL     1      -0.321  11.098  21.906  0.00  0.00    +0.000 A 
ATOM     30  C   UNL     1      -0.708  10.727  23.182  0.00  0.00    +0.000 A 
ATOM     31  N   UNL     1      -0.139   9.544  23.566  0.00  0.00    +0.000 NA
ATOM     32  C   UNL     1       0.582   9.163  22.541  0.00  0.00    +0.000 A 
ATOM     33  N   UNL     1       0.499  10.055  21.504  0.00  0.00    +0.000 N 
ATOM     34  C   UNL     1       1.164   9.860  20.239  0.00  0.00    +0.000 C 
ENDBRANCH  21  29
BRANCH  21  35
ATOM     35  O   UNL     1       0.556  12.978  20.896  0.00  0.00    +0.000 OA
ATOM     36  H   UNL     1       0.712  13.015  19.936  0.00  0.00    +0.000 HD
ENDBRANCH  21  35
ENDBRANCH  10  21
TORSDOF 6
ENDMDL
MODEL 8
REMARK VINA RESULT:      -6.6      2.526      3.550
REMARK  Name = 
REMARK  8 active torsions:
REMARK  status: ('A' for Active; 'I' for Inactive)
REMARK    1  A    between atoms: C_2  and  C_3
REMARK    2  A    between atoms: C_7  and  C_8
REMARK    3  A    between atoms: N_12  and  C_13
REMARK    4  A    between atoms: C_17  and  C_18
REMARK    5  A    between atoms: C_18  and  O_19
REMARK    6  A    between atoms: C_18  and  C_20
REMARK    7  A    between atoms: C_18  and  C_27
REMARK    8  A    between atoms: N_31  and  C_32
REMARK                            x       y       z     vdW  Elec       q    Type
REMARK                         _______ _______ _______ _____ _____    ______ ____
ROOT
ATOM      1  C   UNL     1      -4.662  13.116  20.891  0.00  0.00    +0.000 A 
ATOM      2  C   UNL     1      -5.520  13.507  21.842  0.00  0.00    +0.000 A 
ATOM      3  C   UNL     1      -5.079  13.933  23.193  0.00  0.00    +0.000 A 
ATOM      4  O   UNL     1      -5.943  14.269  24.002  0.00  0.00    +0.000 OA
ATOM      5  N   UNL     1      -3.715  13.932  23.455  0.00  0.00    +0.000 N 
ATOM      6  C   UNL     1      -3.263  14.353  24.770  0.00  0.00    +0.000 C 
ATOM      7  C   UNL     1      -2.763  13.554  22.464  0.00  0.00    +0.000 A 
ATOM      8  C   UNL     1      -1.378  13.596  22.693  0.00  0.00    +0.000 A 
ATOM      9  C   UNL     1      -0.465  13.286  21.672  0.00  0.00    +0.000 A 
ATOM     10  C   UNL     1      -0.906  12.855  20.412  0.00  0.00    +0.000 A 
ATOM     11  C   UNL     1      -2.293  12.742  20.238  0.00  0.00    +0.000 A 
ATOM     12  C   UNL     1      -3.221  13.134  21.212  0.00  0.00    +0.000 A 
ENDROOT
BRANCH   1  17
ATOM     13  C   UNL     1      -6.345  13.409  17.518  0.00  0.00    +0.000 A 
ATOM     14  C   UNL     1      -6.074  12.155  16.968  0.00  0.00    +0.000 A 
ATOM     15  C   UNL     1      -5.391  11.195  17.718  0.00  0.00    +0.000 A 
ATOM     16  C   UNL     1      -4.970  11.491  19.016  0.00  0.00    +0.000 A 
ATOM     17  C   UNL     1      -5.223  12.751  19.570  0.00  0.00    +0.000 A 
ATOM     18  C   UNL     1      -5.917  13.709  18.815  0.00  0.00    +0.000 A 
BRANCH  13  20
ATOM     19  C   UNL     1      -7.639  15.215  16.106  0.00  0.00    +0.000 C 
ATOM     20  C   UNL     1      -7.050  14.391  16.755  0.00  0.00    +0.000 C 
ENDBRANCH  13  20
ENDBRANCH   1  17
BRANCH  10  21
ATOM     21  C   UNL     1       0.053  12.470  19.266  0.00  0.00    +0.000 C 
BRANCH  21  22
ATOM     22  C   UNL     1       0.542  10.996  19.415  0.00  0.00    +0.000 A 
ATOM     23  C   UNL     1       1.073  10.278  18.318  0.00  0.00    +0.000 A 
ATOM     24  C   UNL     1       1.610   8.993  18.458  0.00  0.00    +0.000 A 
ATOM     25  C   UNL     1       1.588   8.373  19.697  0.00  0.00    +0.000 A 
ATOM     26 CL   UNL     1       2.253   6.797  19.875  0.00  0.00    +0.000 Cl
ATOM     27  C   UNL     1       1.033   9.026  20.792  0.00  0.00    +0.000 A 
ATOM     28  C   UNL     1       0.531  10.330  20.657  0.00  0.00    +0.000 A 
ENDBRANCH  21  22
BRANCH  21  29
ATOM     29  C   UNL     1       1.179  13.480  19.102  0.00  0.00    +0.000 A 
ATOM     30  C   UNL     1       2.553  13.317  19.090  0.00  0.00    +0.000 A 
ATOM     31  N   UNL     1       3.208  14.502  18.894  0.00  0.00    +0.000 NA
ATOM     32  C   UNL     1       2.261  15.398  18.766  0.00  0.00    +0.000 A 
ATOM     33  N   UNL     1       1.014  14.836  18.868  0.00  0.00    +0.000 N 
ATOM     34  C   UNL     1      -0.206  15.591  18.725  0.00  0.00    +0.000 C 
ENDBRANCH  21  29
BRANCH  21  35
ATOM     35  O   UNL     1      -0.656  12.588  18.024  0.00  0.00    +0.000 OA
ATOM     36  H   UNL     1      -1.599  12.602  18.263  0.00  0.00    +0.000 HD
ENDBRANCH  21  35
ENDBRANCH  10  21
TORSDOF 6
ENDMDL
MODEL 9
REMARK VINA RESULT:      -6.6      2.836      3.985
REMARK  Name = 
REMARK  8 active torsions:
REMARK  status: ('A' for Active; 'I' for Inactive)
REMARK    1  A    between atoms: C_2  and  C_3
REMARK    2  A    between atoms: C_7  and  C_8
REMARK    3  A    between atoms: N_12  and  C_13
REMARK    4  A    between atoms: C_17  and  C_18
REMARK    5  A    between atoms: C_18  and  O_19
REMARK    6  A    between atoms: C_18  and  C_20
REMARK    7  A    between atoms: C_18  and  C_27
REMARK    8  A    between atoms: N_31  and  C_32
REMARK                            x       y       z     vdW  Elec       q    Type
REMARK                         _______ _______ _______ _____ _____    ______ ____
ROOT
ATOM      1  C   UNL     1      -5.071  13.339  21.449  0.00  0.00    +0.000 A 
ATOM      2  C   UNL     1      -5.996  13.792  22.306  0.00  0.00    +0.000 A 
ATOM      3  C   UNL     1      -5.675  14.732  23.408  0.00  0.00    +0.000 A 
ATOM      4  O   UNL     1      -6.591  15.086  24.149  0.00  0.00    +0.000 OA
ATOM      5  N   UNL     1      -4.358  15.158  23.528  0.00  0.00    +0.000 N 
ATOM      6  C   UNL     1      -4.026  16.085  24.596  0.00  0.00    +0.000 C 
ATOM      7  C   UNL     1      -3.347  14.729  22.619  0.00  0.00    +0.000 A 
ATOM      8  C   UNL     1      -2.023  15.189  22.693  0.00  0.00    +0.000 A 
ATOM      9  C   UNL     1      -1.068  14.801  21.739  0.00  0.00    +0.000 A 
ATOM     10  C   UNL     1      -1.386  13.887  20.725  0.00  0.00    +0.000 A 
ATOM     11  C   UNL     1      -2.693  13.379  20.726  0.00  0.00    +0.000 A 
ATOM     12  C   UNL     1      -3.685  13.822  21.611  0.00  0.00    +0.000 A 
ENDROOT
BRANCH   1  17
ATOM     13  C   UNL     1      -5.112  11.358  18.229  0.00  0.00    +0.000 A 
ATOM     14  C   UNL     1      -6.232  10.547  18.422  0.00  0.00    +0.000 A 
ATOM     15  C   UNL     1      -7.006  10.686  19.577  0.00  0.00    +0.000 A 
ATOM     16  C   UNL     1      -6.655  11.629  20.545  0.00  0.00    +0.000 A 
ATOM     17  C   UNL     1      -5.524  12.435  20.367  0.00  0.00    +0.000 A 
ATOM     18  C   UNL     1      -4.756  12.297  19.201  0.00  0.00    +0.000 A 
BRANCH  13  20
ATOM     19  C   UNL     1      -3.655  11.102  16.052  0.00  0.00    +0.000 C 
ATOM     20  C   UNL     1      -4.323  11.223  17.045  0.00  0.00    +0.000 C 
ENDBRANCH  13  20
ENDBRANCH   1  17
BRANCH  10  21
ATOM     21  C   UNL     1      -0.367  13.402  19.672  0.00  0.00    +0.000 C 
BRANCH  21  22
ATOM     22  C   UNL     1       0.116  11.952  19.985  0.00  0.00    +0.000 A 
ATOM     23  C   UNL     1       0.296  11.501  21.313  0.00  0.00    +0.000 A 
ATOM     24  C   UNL     1       0.628  10.175  21.613  0.00  0.00    +0.000 A 
ATOM     25  C   UNL     1       0.835   9.272  20.582  0.00  0.00    +0.000 A 
ATOM     26 CL   UNL     1       1.237   7.640  20.945  0.00  0.00    +0.000 Cl
ATOM     27  C   UNL     1       0.714   9.686  19.260  0.00  0.00    +0.000 A 
ATOM     28  C   UNL     1       0.342  11.006  18.964  0.00  0.00    +0.000 A 
ENDBRANCH  21  22
BRANCH  21  29
ATOM     29  C   UNL     1       0.764  14.399  19.473  0.00  0.00    +0.000 A 
ATOM     30  C   UNL     1       2.127  14.284  19.685  0.00  0.00    +0.000 A 
ATOM     31  N   UNL     1       2.795  15.431  19.354  0.00  0.00    +0.000 NA
ATOM     32  C   UNL     1       1.871  16.252  18.921  0.00  0.00    +0.000 A 
ATOM     33  N   UNL     1       0.627  15.678  18.956  0.00  0.00    +0.000 N 
ATOM     34  C   UNL     1      -0.565  16.348  18.498  0.00  0.00    +0.000 C 
ENDBRANCH  21  29
BRANCH  21  35
ATOM     35  O   UNL     1      -1.010  13.397  18.389  0.00  0.00    +0.000 OA
ATOM     36  H   UNL     1      -0.848  14.279  18.013  0.00  0.00    +0.000 HD
ENDBRANCH  21  35
ENDBRANCH  10  21
TORSDOF 6
ENDMDL
