MODEL 1
REMARK VINA RESULT:      -7.6      0.000      0.000
REMARK  Name = 
REMARK  8 active torsions:
REMARK  status: ('A' for Active; 'I' for Inactive)
REMARK    1  A    between atoms: C_2  and  C_3
REMARK    2  A    between atoms: C_3  and  C_4
REMARK    3  A    between atoms: C_3  and  C_5
REMARK    4  A    between atoms: C_3  and  C_6
REMARK    5  A    between atoms: C_19  and  C_20
REMARK    6  A    between atoms: C_21  and  O_22
REMARK    7  A    between atoms: O_22  and  C_23
REMARK    8  A    between atoms: C_23  and  C_24
REMARK                            x       y       z     vdW  Elec       q    Type
REMARK                         _______ _______ _______ _____ _____    ______ ____
ROOT
ATOM      1  C   UNL     1       2.697   4.248  19.763  0.00  0.00    +0.000 A 
ATOM      2  N   UNL     1       1.818   5.323  19.768  0.00  0.00    +0.000 N 
ATOM      3  C   UNL     1       2.327   6.371  19.004  0.00  0.00    +0.000 A 
ATOM      4  C   UNL     1       1.809   7.602  18.610  0.00  0.00    +0.000 A 
ATOM      5  C   UNL     1       2.611   8.390  17.731  0.00  0.00    +0.000 A 
ATOM      6  C   UNL     1       3.832   7.920  17.231  0.00  0.00    +0.000 A 
ATOM      7  C   UNL     1       4.313   6.656  17.601  0.00  0.00    +0.000 A 
ATOM      8  C   UNL     1       3.553   5.945  18.547  0.00  0.00    +0.000 A 
ATOM      9  C   UNL     1       3.773   4.625  18.981  0.00  0.00    +0.000 A 
ATOM     10  C   UNL     1       5.020   3.885  18.647  0.00  0.00    +0.000 C 
ATOM     11  C   UNL     1       5.771   4.435  17.421  0.00  0.00    +0.000 C 
ATOM     12  N   UNL     1       6.008   3.367  16.397  0.00  0.00    +0.000 NA
ATOM     13  C   UNL     1       6.727   3.840  15.199  0.00  0.00    +0.000 C 
ATOM     14  C   UNL     1       6.216   5.180  14.649  0.00  0.00    +0.000 C 
ATOM     15  C   UNL     1       4.798   4.920  14.021  0.00  0.00    +0.000 C 
ATOM     16  C   UNL     1       6.246   6.254  15.799  0.00  0.00    +0.000 C 
ATOM     17  C   UNL     1       5.175   5.745  16.767  0.00  0.00    +0.000 C 
ATOM     18  H   UNL     1       0.924   5.355  20.244  0.00  0.00    +0.000 HD
ATOM     19  H   UNL     1       5.109   2.971  16.122  0.00  0.00    +0.000 HD
ENDROOT
BRANCH   1  20
ATOM     20  C   UNL     1       2.525   2.928  20.499  0.00  0.00    +0.000 C 
ATOM     21  C   UNL     1       1.802   3.209  21.843  0.00  0.00    +0.000 C 
ATOM     22  C   UNL     1       3.868   2.275  20.851  0.00  0.00    +0.000 C 
BRANCH  20  24
ATOM     23  C   UNL     1       0.850   2.201  18.656  0.00  0.00    +0.000 C 
ATOM     24  C   UNL     1       1.779   1.941  19.588  0.00  0.00    +0.000 C 
ENDBRANCH  20  24
ENDBRANCH   1  20
BRANCH  16  25
ATOM     25  O   UNL     1       7.442   6.316  16.670  0.00  0.00    +0.000 OA
BRANCH  25  26
ATOM     26  C   UNL     1       7.791   7.265  17.561  0.00  0.00    +0.000 C 
ATOM     27  C   UNL     1       8.130   6.636  18.907  0.00  0.00    +0.000 C 
ATOM     28  O   UNL     1       7.874   8.457  17.316  0.00  0.00    +0.000 OA
ENDBRANCH  25  26
ENDBRANCH  16  25
TORSDOF 4
ENDMDL
MODEL 2
REMARK VINA RESULT:      -7.2      0.868      1.557
REMARK  Name = 
REMARK  8 active torsions:
REMARK  status: ('A' for Active; 'I' for Inactive)
REMARK    1  A    between atoms: C_2  and  C_3
REMARK    2  A    between atoms: C_3  and  C_4
REMARK    3  A    between atoms: C_3  and  C_5
REMARK    4  A    between atoms: C_3  and  C_6
REMARK    5  A    between atoms: C_19  and  C_20
REMARK    6  A    between atoms: C_21  and  O_22
REMARK    7  A    between atoms: O_22  and  C_23
REMARK    8  A    between atoms: C_23  and  C_24
REMARK                            x       y       z     vdW  Elec       q    Type
REMARK                         _______ _______ _______ _____ _____    ______ ____
ROOT
ATOM      1  C   UNL     1       2.144   4.007  19.029  0.00  0.00    +0.000 A 
ATOM      2  N   UNL     1       1.386   5.170  19.067  0.00  0.00    +0.000 N 
ATOM      3  C   UNL     1       2.121   6.245  18.574  0.00  0.00    +0.000 A 
ATOM      4  C   UNL     1       1.802   7.575  18.306  0.00  0.00    +0.000 A 
ATOM      5  C   UNL     1       2.820   8.375  17.705  0.00  0.00    +0.000 A 
ATOM      6  C   UNL     1       4.059   7.835  17.338  0.00  0.00    +0.000 A 
ATOM      7  C   UNL     1       4.343   6.482  17.572  0.00  0.00    +0.000 A 
ATOM      8  C   UNL     1       3.362   5.742  18.256  0.00  0.00    +0.000 A 
ATOM      9  C   UNL     1       3.373   4.357  18.501  0.00  0.00    +0.000 A 
ATOM     10  C   UNL     1       4.582   3.524  18.257  0.00  0.00    +0.000 C 
ATOM     11  C   UNL     1       5.588   4.147  17.272  0.00  0.00    +0.000 C 
ATOM     12  N   UNL     1       5.898   3.215  16.141  0.00  0.00    +0.000 NA
ATOM     13  C   UNL     1       6.861   3.762  15.165  0.00  0.00    +0.000 C 
ATOM     14  C   UNL     1       6.587   5.219  14.764  0.00  0.00    +0.000 C 
ATOM     15  C   UNL     1       5.284   5.228  13.883  0.00  0.00    +0.000 C 
ATOM     16  C   UNL     1       6.516   6.107  16.062  0.00  0.00    +0.000 C 
ATOM     17  C   UNL     1       5.246   5.601  16.751  0.00  0.00    +0.000 C 
ATOM     18  H   UNL     1       0.429   5.243  19.392  0.00  0.00    +0.000 HD
ATOM     19  H   UNL     1       5.028   2.975  15.664  0.00  0.00    +0.000 HD
ENDROOT
BRANCH   1  20
ATOM     20  C   UNL     1       1.717   2.627  19.505  0.00  0.00    +0.000 C 
ATOM     21  C   UNL     1       2.812   1.607  19.093  0.00  0.00    +0.000 C 
ATOM     22  C   UNL     1       0.413   2.159  18.846  0.00  0.00    +0.000 C 
BRANCH  20  24
ATOM     23  C   UNL     1       2.206   3.235  21.979  0.00  0.00    +0.000 C 
ATOM     24  C   UNL     1       1.455   2.678  21.018  0.00  0.00    +0.000 C 
ENDBRANCH  20  24
ENDBRANCH   1  20
BRANCH  16  25
ATOM     25  O   UNL     1       7.539   5.897  17.112  0.00  0.00    +0.000 OA
BRANCH  25  26
ATOM     26  C   UNL     1       7.853   6.687  18.158  0.00  0.00    +0.000 C 
ATOM     27  C   UNL     1       7.870   8.151  17.735  0.00  0.00    +0.000 C 
ATOM     28  O   UNL     1       8.047   6.295  19.296  0.00  0.00    +0.000 OA
ENDBRANCH  25  26
ENDBRANCH  16  25
TORSDOF 4
ENDMDL
MODEL 3
REMARK VINA RESULT:      -7.1      4.809      7.581
REMARK  Name = 
REMARK  8 active torsions:
REMARK  status: ('A' for Active; 'I' for Inactive)
REMARK    1  A    between atoms: C_2  and  C_3
REMARK    2  A    between atoms: C_3  and  C_4
REMARK    3  A    between atoms: C_3  and  C_5
REMARK    4  A    between atoms: C_3  and  C_6
REMARK    5  A    between atoms: C_19  and  C_20
REMARK    6  A    between atoms: C_21  and  O_22
REMARK    7  A    between atoms: O_22  and  C_23
REMARK    8  A    between atoms: C_23  and  C_24
REMARK                            x       y       z     vdW  Elec       q    Type
REMARK                         _______ _______ _______ _____ _____    ______ ____
ROOT
ATOM      1  C   UNL     1       1.966   7.609  19.652  0.00  0.00    +0.000 A 
ATOM      2  N   UNL     1       1.871   7.585  21.037  0.00  0.00    +0.000 N 
ATOM      3  C   UNL     1       1.093   8.649  21.489  0.00  0.00    +0.000 A 
ATOM      4  C   UNL     1       0.614   9.014  22.745  0.00  0.00    +0.000 A 
ATOM      5  C   UNL     1      -0.249  10.149  22.803  0.00  0.00    +0.000 A 
ATOM      6  C   UNL     1      -0.652  10.825  21.645  0.00  0.00    +0.000 A 
ATOM      7  C   UNL     1      -0.198  10.412  20.385  0.00  0.00    +0.000 A 
ATOM      8  C   UNL     1       0.731   9.356  20.365  0.00  0.00    +0.000 A 
ATOM      9  C   UNL     1       1.236   8.702  19.227  0.00  0.00    +0.000 A 
ATOM     10  C   UNL     1       1.011   9.228  17.853  0.00  0.00    +0.000 C 
ATOM     11  C   UNL     1      -0.191  10.182  17.731  0.00  0.00    +0.000 C 
ATOM     12  N   UNL     1      -1.150   9.727  16.674  0.00  0.00    +0.000 NA
ATOM     13  C   UNL     1      -2.322  10.608  16.514  0.00  0.00    +0.000 C 
ATOM     14  C   UNL     1      -2.961  11.049  17.840  0.00  0.00    +0.000 C 
ATOM     15  C   UNL     1      -3.661   9.788  18.466  0.00  0.00    +0.000 C 
ATOM     16  C   UNL     1      -1.860  11.715  18.746  0.00  0.00    +0.000 C 
ATOM     17  C   UNL     1      -0.937  10.540  19.079  0.00  0.00    +0.000 C 
ATOM     18  H   UNL     1       2.290   6.894  21.648  0.00  0.00    +0.000 HD
ATOM     19  H   UNL     1      -1.461   8.781  16.899  0.00  0.00    +0.000 HD
ENDROOT
BRANCH   1  20
ATOM     20  C   UNL     1       2.749   6.640  18.777  0.00  0.00    +0.000 C 
ATOM     21  C   UNL     1       3.689   5.809  19.690  0.00  0.00    +0.000 C 
ATOM     22  C   UNL     1       3.646   7.363  17.764  0.00  0.00    +0.000 C 
BRANCH  20  24
ATOM     23  C   UNL     1       1.723   4.456  17.826  0.00  0.00    +0.000 C 
ATOM     24  C   UNL     1       1.761   5.790  17.965  0.00  0.00    +0.000 C 
ENDBRANCH  20  24
ENDBRANCH   1  20
BRANCH  16  25
ATOM     25  O   UNL     1      -0.922  12.674  18.120  0.00  0.00    +0.000 OA
BRANCH  25  26
ATOM     26  C   UNL     1      -0.226  13.675  18.694  0.00  0.00    +0.000 C 
ATOM     27  C   UNL     1       1.269  13.480  18.478  0.00  0.00    +0.000 C 
ATOM     28  O   UNL     1      -0.721  14.632  19.266  0.00  0.00    +0.000 OA
ENDBRANCH  25  26
ENDBRANCH  16  25
TORSDOF 4
ENDMDL
MODEL 4
REMARK VINA RESULT:      -7.1      1.784      4.561
REMARK  Name = 
REMARK  8 active torsions:
REMARK  status: ('A' for Active; 'I' for Inactive)
REMARK    1  A    between atoms: C_2  and  C_3
REMARK    2  A    between atoms: C_3  and  C_4
REMARK    3  A    between atoms: C_3  and  C_5
REMARK    4  A    between atoms: C_3  and  C_6
REMARK    5  A    between atoms: C_19  and  C_20
REMARK    6  A    between atoms: C_21  and  O_22
REMARK    7  A    between atoms: O_22  and  C_23
REMARK    8  A    between atoms: C_23  and  C_24
REMARK                            x       y       z     vdW  Elec       q    Type
REMARK                         _______ _______ _______ _____ _____    ______ ____
ROOT
ATOM      1  C   UNL     1       1.913   6.958  20.193  0.00  0.00    +0.000 A 
ATOM      2  N   UNL     1       1.598   5.824  20.929  0.00  0.00    +0.000 N 
ATOM      3  C   UNL     1       2.344   4.735  20.486  0.00  0.00    +0.000 A 
ATOM      4  C   UNL     1       2.481   3.425  20.939  0.00  0.00    +0.000 A 
ATOM      5  C   UNL     1       3.432   2.602  20.264  0.00  0.00    +0.000 A 
ATOM      6  C   UNL     1       4.240   3.105  19.237  0.00  0.00    +0.000 A 
ATOM      7  C   UNL     1       4.121   4.441  18.827  0.00  0.00    +0.000 A 
ATOM      8  C   UNL     1       3.107   5.200  19.439  0.00  0.00    +0.000 A 
ATOM      9  C   UNL     1       2.873   6.577  19.276  0.00  0.00    +0.000 A 
ATOM     10  C   UNL     1       3.555   7.370  18.216  0.00  0.00    +0.000 C 
ATOM     11  C   UNL     1       4.855   6.735  17.691  0.00  0.00    +0.000 C 
ATOM     12  N   UNL     1       6.011   7.683  17.796  0.00  0.00    +0.000 NA
ATOM     13  C   UNL     1       7.285   7.125  17.303  0.00  0.00    +0.000 C 
ATOM     14  C   UNL     1       7.563   5.688  17.773  0.00  0.00    +0.000 C 
ATOM     15  C   UNL     1       7.879   5.749  19.312  0.00  0.00    +0.000 C 
ATOM     16  C   UNL     1       6.345   4.773  17.381  0.00  0.00    +0.000 C 
ATOM     17  C   UNL     1       5.218   5.308  18.268  0.00  0.00    +0.000 C 
ATOM     18  H   UNL     1       0.932   5.778  21.691  0.00  0.00    +0.000 HD
ATOM     19  H   UNL     1       6.116   7.966  18.771  0.00  0.00    +0.000 HD
ENDROOT
BRANCH   1  20
ATOM     20  C   UNL     1       1.298   8.342  20.345  0.00  0.00    +0.000 C 
ATOM     21  C   UNL     1       2.016   9.070  21.512  0.00  0.00    +0.000 C 
ATOM     22  C   UNL     1      -0.190   8.282  20.715  0.00  0.00    +0.000 C 
BRANCH  20  24
ATOM     23  C   UNL     1       0.519   9.948  18.464  0.00  0.00    +0.000 C 
ATOM     24  C   UNL     1       1.390   9.081  19.003  0.00  0.00    +0.000 C 
ENDBRANCH  20  24
ENDBRANCH   1  20
BRANCH  16  25
ATOM     25  O   UNL     1       5.764   4.919  16.026  0.00  0.00    +0.000 OA
BRANCH  25  26
ATOM     26  C   UNL     1       6.359   4.754  14.829  0.00  0.00    +0.000 C 
ATOM     27  C   UNL     1       5.482   3.914  13.908  0.00  0.00    +0.000 C 
ATOM     28  O   UNL     1       7.427   5.246  14.505  0.00  0.00    +0.000 OA
ENDBRANCH  25  26
ENDBRANCH  16  25
TORSDOF 4
ENDMDL
MODEL 5
REMARK VINA RESULT:      -7.0      4.776      7.647
REMARK  Name = 
REMARK  8 active torsions:
REMARK  status: ('A' for Active; 'I' for Inactive)
REMARK    1  A    between atoms: C_2  and  C_3
REMARK    2  A    between atoms: C_3  and  C_4
REMARK    3  A    between atoms: C_3  and  C_5
REMARK    4  A    between atoms: C_3  and  C_6
REMARK    5  A    between atoms: C_19  and  C_20
REMARK    6  A    between atoms: C_21  and  O_22
REMARK    7  A    between atoms: O_22  and  C_23
REMARK    8  A    between atoms: C_23  and  C_24
REMARK                            x       y       z     vdW  Elec       q    Type
REMARK                         _______ _______ _______ _____ _____    ______ ____
ROOT
ATOM      1  C   UNL     1       1.958   7.586  19.678  0.00  0.00    +0.000 A 
ATOM      2  N   UNL     1       1.862   7.577  21.063  0.00  0.00    +0.000 N 
ATOM      3  C   UNL     1       1.093   8.651  21.504  0.00  0.00    +0.000 A 
ATOM      4  C   UNL     1       0.616   9.032  22.756  0.00  0.00    +0.000 A 
ATOM      5  C   UNL     1      -0.238  10.175  22.803  0.00  0.00    +0.000 A 
ATOM      6  C   UNL     1      -0.635  10.843  21.639  0.00  0.00    +0.000 A 
ATOM      7  C   UNL     1      -0.184  10.414  20.383  0.00  0.00    +0.000 A 
ATOM      8  C   UNL     1       0.736   9.351  20.374  0.00  0.00    +0.000 A 
ATOM      9  C   UNL     1       1.236   8.681  19.242  0.00  0.00    +0.000 A 
ATOM     10  C   UNL     1       1.017   9.196  17.863  0.00  0.00    +0.000 C 
ATOM     11  C   UNL     1      -0.177  10.159  17.732  0.00  0.00    +0.000 C 
ATOM     12  N   UNL     1      -1.139   9.701  16.679  0.00  0.00    +0.000 NA
ATOM     13  C   UNL     1      -2.305  10.590  16.509  0.00  0.00    +0.000 C 
ATOM     14  C   UNL     1      -2.940  11.049  17.831  0.00  0.00    +0.000 C 
ATOM     15  C   UNL     1      -3.651   9.800  18.469  0.00  0.00    +0.000 C 
ATOM     16  C   UNL     1      -1.835  11.715  18.731  0.00  0.00    +0.000 C 
ATOM     17  C   UNL     1      -0.921  10.535  19.075  0.00  0.00    +0.000 C 
ATOM     18  H   UNL     1       2.275   6.888  21.681  0.00  0.00    +0.000 HD
ATOM     19  H   UNL     1      -1.459   8.760  16.912  0.00  0.00    +0.000 HD
ENDROOT
BRANCH   1  20
ATOM     20  C   UNL     1       2.733   6.603  18.813  0.00  0.00    +0.000 C 
ATOM     21  C   UNL     1       1.720   5.633  18.148  0.00  0.00    +0.000 C 
ATOM     22  C   UNL     1       3.696   5.736  19.635  0.00  0.00    +0.000 C 
BRANCH  20  24
ATOM     23  C   UNL     1       4.606   6.946  17.052  0.00  0.00    +0.000 C 
ATOM     24  C   UNL     1       3.591   7.387  17.810  0.00  0.00    +0.000 C 
ENDBRANCH  20  24
ENDBRANCH   1  20
BRANCH  16  25
ATOM     25  O   UNL     1      -0.888  12.660  18.096  0.00  0.00    +0.000 OA
BRANCH  25  26
ATOM     26  C   UNL     1      -0.183  13.659  18.661  0.00  0.00    +0.000 C 
ATOM     27  C   UNL     1       1.312  13.428  18.480  0.00  0.00    +0.000 C 
ATOM     28  O   UNL     1      -0.669  14.640  19.201  0.00  0.00    +0.000 OA
ENDBRANCH  25  26
ENDBRANCH  16  25
TORSDOF 4
ENDMDL
MODEL 6
REMARK VINA RESULT:      -7.0      1.920      4.555
REMARK  Name = 
REMARK  8 active torsions:
REMARK  status: ('A' for Active; 'I' for Inactive)
REMARK    1  A    between atoms: C_2  and  C_3
REMARK    2  A    between atoms: C_3  and  C_4
REMARK    3  A    between atoms: C_3  and  C_5
REMARK    4  A    between atoms: C_3  and  C_6
REMARK    5  A    between atoms: C_19  and  C_20
REMARK    6  A    between atoms: C_21  and  O_22
REMARK    7  A    between atoms: O_22  and  C_23
REMARK    8  A    between atoms: C_23  and  C_24
REMARK                            x       y       z     vdW  Elec       q    Type
REMARK                         _______ _______ _______ _____ _____    ______ ____
ROOT
ATOM      1  C   UNL     1       1.893   6.962  20.212  0.00  0.00    +0.000 A 
ATOM      2  N   UNL     1       1.580   5.824  20.943  0.00  0.00    +0.000 N 
ATOM      3  C   UNL     1       2.327   4.737  20.495  0.00  0.00    +0.000 A 
ATOM      4  C   UNL     1       2.466   3.426  20.943  0.00  0.00    +0.000 A 
ATOM      5  C   UNL     1       3.417   2.607  20.263  0.00  0.00    +0.000 A 
ATOM      6  C   UNL     1       4.224   3.116  19.237  0.00  0.00    +0.000 A 
ATOM      7  C   UNL     1       4.103   4.453  18.834  0.00  0.00    +0.000 A 
ATOM      8  C   UNL     1       3.089   5.208  19.450  0.00  0.00    +0.000 A 
ATOM      9  C   UNL     1       2.853   6.586  19.293  0.00  0.00    +0.000 A 
ATOM     10  C   UNL     1       3.533   7.384  18.236  0.00  0.00    +0.000 C 
ATOM     11  C   UNL     1       4.834   6.753  17.707  0.00  0.00    +0.000 C 
ATOM     12  N   UNL     1       5.988   7.701  17.815  0.00  0.00    +0.000 NA
ATOM     13  C   UNL     1       7.263   7.147  17.319  0.00  0.00    +0.000 C 
ATOM     14  C   UNL     1       7.543   5.709  17.782  0.00  0.00    +0.000 C 
ATOM     15  C   UNL     1       7.860   5.764  19.321  0.00  0.00    +0.000 C 
ATOM     16  C   UNL     1       6.325   4.794  17.387  0.00  0.00    +0.000 C 
ATOM     17  C   UNL     1       5.199   5.324  18.278  0.00  0.00    +0.000 C 
ATOM     18  H   UNL     1       0.915   5.774  21.706  0.00  0.00    +0.000 HD
ATOM     19  H   UNL     1       6.094   7.980  18.791  0.00  0.00    +0.000 HD
ENDROOT
BRANCH   1  20
ATOM     20  C   UNL     1       1.277   8.344  20.371  0.00  0.00    +0.000 C 
ATOM     21  C   UNL     1       1.250   9.030  18.980  0.00  0.00    +0.000 C 
ATOM     22  C   UNL     1       2.104   9.250  21.292  0.00  0.00    +0.000 C 
BRANCH  20  24
ATOM     23  C   UNL     1      -0.568   8.770  22.145  0.00  0.00    +0.000 C 
ATOM     24  C   UNL     1      -0.109   8.202  21.019  0.00  0.00    +0.000 C 
ENDBRANCH  20  24
ENDBRANCH   1  20
BRANCH  16  25
ATOM     25  O   UNL     1       5.744   4.946  16.034  0.00  0.00    +0.000 OA
BRANCH  25  26
ATOM     26  C   UNL     1       6.332   4.764  14.835  0.00  0.00    +0.000 C 
ATOM     27  C   UNL     1       5.439   3.934  13.922  0.00  0.00    +0.000 C 
ATOM     28  O   UNL     1       7.406   5.238  14.505  0.00  0.00    +0.000 OA
ENDBRANCH  25  26
ENDBRANCH  16  25
TORSDOF 4
ENDMDL
MODEL 7
REMARK VINA RESULT:      -7.0      4.823      7.691
REMARK  Name = 
REMARK  8 active torsions:
REMARK  status: ('A' for Active; 'I' for Inactive)
REMARK    1  A    between atoms: C_2  and  C_3
REMARK    2  A    between atoms: C_3  and  C_4
REMARK    3  A    between atoms: C_3  and  C_5
REMARK    4  A    between atoms: C_3  and  C_6
REMARK    5  A    between atoms: C_19  and  C_20
REMARK    6  A    between atoms: C_21  and  O_22
REMARK    7  A    between atoms: O_22  and  C_23
REMARK    8  A    between atoms: C_23  and  C_24
REMARK                            x       y       z     vdW  Elec       q    Type
REMARK                         _______ _______ _______ _____ _____    ______ ____
ROOT
ATOM      1  C   UNL     1       1.962   7.646  19.670  0.00  0.00    +0.000 A 
ATOM      2  N   UNL     1       1.863   7.616  21.055  0.00  0.00    +0.000 N 
ATOM      3  C   UNL     1       1.078   8.673  21.509  0.00  0.00    +0.000 A 
ATOM      4  C   UNL     1       0.593   9.030  22.765  0.00  0.00    +0.000 A 
ATOM      5  C   UNL     1      -0.277  10.159  22.826  0.00  0.00    +0.000 A 
ATOM      6  C   UNL     1      -0.682  10.838  21.669  0.00  0.00    +0.000 A 
ATOM      7  C   UNL     1      -0.222  10.433  20.409  0.00  0.00    +0.000 A 
ATOM      8  C   UNL     1       0.713   9.383  20.387  0.00  0.00    +0.000 A 
ATOM      9  C   UNL     1       1.225   8.736  19.247  0.00  0.00    +0.000 A 
ATOM     10  C   UNL     1       1.000   9.266  17.875  0.00  0.00    +0.000 C 
ATOM     11  C   UNL     1      -0.207  10.213  17.755  0.00  0.00    +0.000 C 
ATOM     12  N   UNL     1      -1.160   9.756  16.693  0.00  0.00    +0.000 NA
ATOM     13  C   UNL     1      -2.338  10.631  16.533  0.00  0.00    +0.000 C 
ATOM     14  C   UNL     1      -2.983  11.062  17.859  0.00  0.00    +0.000 C 
ATOM     15  C   UNL     1      -3.677   9.795  18.479  0.00  0.00    +0.000 C 
ATOM     16  C   UNL     1      -1.889  11.732  18.771  0.00  0.00    +0.000 C 
ATOM     17  C   UNL     1      -0.959  10.561  19.101  0.00  0.00    +0.000 C 
ATOM     18  H   UNL     1       2.285   6.925  21.664  0.00  0.00    +0.000 HD
ATOM     19  H   UNL     1      -1.466   8.808  16.913  0.00  0.00    +0.000 HD
ENDROOT
BRANCH   1  20
ATOM     20  C   UNL     1       2.752   6.685  18.793  0.00  0.00    +0.000 C 
ATOM     21  C   UNL     1       3.525   7.515  17.734  0.00  0.00    +0.000 C 
ATOM     22  C   UNL     1       1.845   5.720  18.019  0.00  0.00    +0.000 C 
BRANCH  20  24
ATOM     23  C   UNL     1       4.774   5.159  19.352  0.00  0.00    +0.000 C 
ATOM     24  C   UNL     1       3.656   5.822  19.686  0.00  0.00    +0.000 C 
ENDBRANCH  20  24
ENDBRANCH   1  20
BRANCH  16  25
ATOM     25  O   UNL     1      -0.955  12.699  18.151  0.00  0.00    +0.000 OA
BRANCH  25  26
ATOM     26  C   UNL     1      -0.266  13.701  18.731  0.00  0.00    +0.000 C 
ATOM     27  C   UNL     1       1.230  13.525  18.502  0.00  0.00    +0.000 C 
ATOM     28  O   UNL     1      -0.768  14.647  19.317  0.00  0.00    +0.000 OA
ENDBRANCH  25  26
ENDBRANCH  16  25
TORSDOF 4
ENDMDL
MODEL 8
REMARK VINA RESULT:      -7.0      0.371      1.273
REMARK  Name = 
REMARK  8 active torsions:
REMARK  status: ('A' for Active; 'I' for Inactive)
REMARK    1  A    between atoms: C_2  and  C_3
REMARK    2  A    between atoms: C_3  and  C_4
REMARK    3  A    between atoms: C_3  and  C_5
REMARK    4  A    between atoms: C_3  and  C_6
REMARK    5  A    between atoms: C_19  and  C_20
REMARK    6  A    between atoms: C_21  and  O_22
REMARK    7  A    between atoms: O_22  and  C_23
REMARK    8  A    between atoms: C_23  and  C_24
REMARK                            x       y       z     vdW  Elec       q    Type
REMARK                         _______ _______ _______ _____ _____    ______ ____
ROOT
ATOM      1  C   UNL     1       2.564   4.194  19.567  0.00  0.00    +0.000 A 
ATOM      2  N   UNL     1       1.707   5.287  19.573  0.00  0.00    +0.000 N 
ATOM      3  C   UNL     1       2.260   6.342  18.850  0.00  0.00    +0.000 A 
ATOM      4  C   UNL     1       1.780   7.593  18.471  0.00  0.00    +0.000 A 
ATOM      5  C   UNL     1       2.625   8.384  17.636  0.00  0.00    +0.000 A 
ATOM      6  C   UNL     1       3.851   7.900  17.162  0.00  0.00    +0.000 A 
ATOM      7  C   UNL     1       4.294   6.618  17.515  0.00  0.00    +0.000 A 
ATOM      8  C   UNL     1       3.491   5.901  18.420  0.00  0.00    +0.000 A 
ATOM      9  C   UNL     1       3.670   4.567  18.828  0.00  0.00    +0.000 A 
ATOM     10  C   UNL     1       4.912   3.808  18.513  0.00  0.00    +0.000 C 
ATOM     11  C   UNL     1       5.711   4.371  17.324  0.00  0.00    +0.000 C 
ATOM     12  N   UNL     1       5.957   3.323  16.282  0.00  0.00    +0.000 NA
ATOM     13  C   UNL     1       6.722   3.809  15.118  0.00  0.00    +0.000 C 
ATOM     14  C   UNL     1       6.256   5.172  14.586  0.00  0.00    +0.000 C 
ATOM     15  C   UNL     1       4.852   4.958  13.910  0.00  0.00    +0.000 C 
ATOM     16  C   UNL     1       6.273   6.218  15.762  0.00  0.00    +0.000 C 
ATOM     17  C   UNL     1       5.162   5.709  16.685  0.00  0.00    +0.000 C 
ATOM     18  H   UNL     1       0.800   5.327  20.022  0.00  0.00    +0.000 HD
ATOM     19  H   UNL     1       5.058   2.953  15.970  0.00  0.00    +0.000 HD
ENDROOT
BRANCH   1  20
ATOM     20  C   UNL     1       2.341   2.861  20.265  0.00  0.00    +0.000 C 
ATOM     21  C   UNL     1       1.995   1.798  19.189  0.00  0.00    +0.000 C 
ATOM     22  C   UNL     1       1.156   2.902  21.238  0.00  0.00    +0.000 C 
BRANCH  20  24
ATOM     23  C   UNL     1       4.543   1.616  20.838  0.00  0.00    +0.000 C 
ATOM     24  C   UNL     1       3.585   2.518  21.098  0.00  0.00    +0.000 C 
ENDBRANCH  20  24
ENDBRANCH   1  20
BRANCH  16  25
ATOM     25  O   UNL     1       7.442   6.233  16.670  0.00  0.00    +0.000 OA
BRANCH  25  26
ATOM     26  C   UNL     1       7.783   7.152  17.595  0.00  0.00    +0.000 C 
ATOM     27  C   UNL     1       8.069   6.483  18.934  0.00  0.00    +0.000 C 
ATOM     28  O   UNL     1       7.898   8.348  17.383  0.00  0.00    +0.000 OA
ENDBRANCH  25  26
ENDBRANCH  16  25
TORSDOF 4
ENDMDL
MODEL 9
REMARK VINA RESULT:      -6.7      1.865      4.814
REMARK  Name = 
REMARK  8 active torsions:
REMARK  status: ('A' for Active; 'I' for Inactive)
REMARK    1  A    between atoms: C_2  and  C_3
REMARK    2  A    between atoms: C_3  and  C_4
REMARK    3  A    between atoms: C_3  and  C_5
REMARK    4  A    between atoms: C_3  and  C_6
REMARK    5  A    between atoms: C_19  and  C_20
REMARK    6  A    between atoms: C_21  and  O_22
REMARK    7  A    between atoms: O_22  and  C_23
REMARK    8  A    between atoms: C_23  and  C_24
REMARK                            x       y       z     vdW  Elec       q    Type
REMARK                         _______ _______ _______ _____ _____    ______ ____
ROOT
ATOM      1  C   UNL     1       1.849   7.881  19.265  0.00  0.00    +0.000 A 
ATOM      2  N   UNL     1       1.368   6.983  20.208  0.00  0.00    +0.000 N 
ATOM      3  C   UNL     1       2.029   5.762  20.098  0.00  0.00    +0.000 A 
ATOM      4  C   UNL     1       1.999   4.590  20.850  0.00  0.00    +0.000 A 
ATOM      5  C   UNL     1       2.908   3.556  20.473  0.00  0.00    +0.000 A 
ATOM      6  C   UNL     1       3.836   3.734  19.439  0.00  0.00    +0.000 A 
ATOM      7  C   UNL     1       3.883   4.940  18.725  0.00  0.00    +0.000 A 
ATOM      8  C   UNL     1       2.910   5.902  19.049  0.00  0.00    +0.000 A 
ATOM      9  C   UNL     1       2.829   7.217  18.554  0.00  0.00    +0.000 A 
ATOM     10  C   UNL     1       3.663   7.678  17.410  0.00  0.00    +0.000 C 
ATOM     11  C   UNL     1       4.926   6.833  17.169  0.00  0.00    +0.000 C 
ATOM     12  N   UNL     1       6.162   7.680  17.163  0.00  0.00    +0.000 NA
ATOM     13  C   UNL     1       7.405   6.919  16.933  0.00  0.00    +0.000 C 
ATOM     14  C   UNL     1       7.501   5.616  17.742  0.00  0.00    +0.000 C 
ATOM     15  C   UNL     1       7.709   6.013  19.249  0.00  0.00    +0.000 C 
ATOM     16  C   UNL     1       6.227   4.737  17.457  0.00  0.00    +0.000 C 
ATOM     17  C   UNL     1       5.100   5.558  18.089  0.00  0.00    +0.000 C 
ATOM     18  H   UNL     1       0.647   7.173  20.895  0.00  0.00    +0.000 HD
ATOM     19  H   UNL     1       6.224   8.176  18.052  0.00  0.00    +0.000 HD
ENDROOT
BRANCH   1  20
ATOM     20  C   UNL     1       1.368   9.307  19.039  0.00  0.00    +0.000 C 
ATOM     21  C   UNL     1       0.240   9.279  17.974  0.00  0.00    +0.000 C 
ATOM     22  C   UNL     1       2.474  10.215  18.483  0.00  0.00    +0.000 C 
BRANCH  20  24
ATOM     23  C   UNL     1      -0.247  10.443  20.721  0.00  0.00    +0.000 C 
ATOM     24  C   UNL     1       0.937   9.909  20.384  0.00  0.00    +0.000 C 
ENDBRANCH  20  24
ENDBRANCH   1  20
BRANCH  16  25
ATOM     25  O   UNL     1       5.764   4.606  16.057  0.00  0.00    +0.000 OA
BRANCH  25  26
ATOM     26  C   UNL     1       6.487   4.361  14.946  0.00  0.00    +0.000 C 
ATOM     27  C   UNL     1       5.606   3.760  13.857  0.00  0.00    +0.000 C 
ATOM     28  O   UNL     1       7.670   4.626  14.809  0.00  0.00    +0.000 OA
ENDBRANCH  25  26
ENDBRANCH  16  25
TORSDOF 4
ENDMDL
