MODEL 1
REMARK VINA RESULT:      -8.9      0.000      0.000
REMARK  Name = 
REMARK  8 active torsions:
REMARK  status: ('A' for Active; 'I' for Inactive)
REMARK    1  A    between atoms: C_1  and  O_2
REMARK    2  A    between atoms: O_2  and  C_3
REMARK    3  A    between atoms: C_6  and  N_7
REMARK    4  A    between atoms: C_9  and  C_10
REMARK    5  A    between atoms: N_12  and  C_13
REMARK    6  A    between atoms: C_13  and  C_14
REMARK    7  A    between atoms: C_29  and  O_30
REMARK    8  A    between atoms: O_30  and  C_31
REMARK                            x       y       z     vdW  Elec       q    Type
REMARK                         _______ _______ _______ _____ _____    ______ ____
ROOT
ATOM      1  N   UNL     1       4.330   4.974  18.049  0.00  0.00    +0.000 N 
ATOM      2  N   UNL     1       3.545   6.087  18.211  0.00  0.00    +0.000 NA
ATOM      3  C   UNL     1       2.673   6.033  19.174  0.00  0.00    +0.000 A 
ATOM      4  C   UNL     1       2.371   4.792  19.918  0.00  0.00    +0.000 A 
ATOM      5  C   UNL     1       1.144   4.444  20.487  0.00  0.00    +0.000 A 
ATOM      6  C   UNL     1       1.023   3.253  21.214  0.00  0.00    +0.000 A 
ATOM      7  C   UNL     1       2.127   2.411  21.376  0.00  0.00    +0.000 A 
ATOM      8  C   UNL     1       3.335   2.728  20.755  0.00  0.00    +0.000 A 
ATOM      9  C   UNL     1       3.434   3.891  19.987  0.00  0.00    +0.000 A 
ATOM     10  C   UNL     1       4.592   4.099  19.104  0.00  0.00    +0.000 A 
ATOM     11  O   UNL     1       5.629   3.471  19.291  0.00  0.00    +0.000 OA
ENDROOT
BRANCH   1  15
ATOM     12  C   UNL     1       6.692   4.911  14.589  0.00  0.00    +0.000 A 
ATOM     13  C   UNL     1       5.533   4.130  14.654  0.00  0.00    +0.000 A 
ATOM     14  C   UNL     1       4.737   4.136  15.798  0.00  0.00    +0.000 A 
ATOM     15  C   UNL     1       5.091   4.961  16.865  0.00  0.00    +0.000 A 
ATOM     16  C   UNL     1       6.245   5.763  16.812  0.00  0.00    +0.000 A 
ATOM     17  C   UNL     1       7.048   5.719  15.674  0.00  0.00    +0.000 A 
BRANCH  12  19
ATOM     18  C   UNL     1       6.816   4.005  12.393  0.00  0.00    +0.000 C 
ATOM     19  O   UNL     1       7.395   4.805  13.418  0.00  0.00    +0.000 OA
ENDBRANCH  12  19
BRANCH  16  20
ATOM     20  O   UNL     1       6.511   6.506  17.940  0.00  0.00    +0.000 OA
ATOM     21  C   UNL     1       7.771   7.153  18.018  0.00  0.00    +0.000 C 
ENDBRANCH  16  20
ENDBRANCH   1  15
BRANCH   3  22
ATOM     22  C   UNL     1       2.179   7.374  19.659  0.00  0.00    +0.000 C 
ATOM     23  O   UNL     1       2.163   8.313  18.874  0.00  0.00    +0.000 OA
ATOM     24  N   UNL     1       1.834   7.486  20.972  0.00  0.00    +0.000 N 
ATOM     25  H   UNL     1       1.872   6.716  21.625  0.00  0.00    +0.000 HD
BRANCH  24  26
ATOM     26  C   UNL     1       1.622   8.796  21.535  0.00  0.00    +0.000 C 
BRANCH  26  27
ATOM     27  C   UNL     1       0.176   9.192  21.274  0.00  0.00    +0.000 C 
ATOM     28  O   UNL     1      -0.759   8.478  21.655  0.00  0.00    +0.000 OA
ATOM     29  N   UNL     1      -0.015  10.398  20.650  0.00  0.00    +0.000 N 
ATOM     30  C   UNL     1       1.006  11.315  20.179  0.00  0.00    +0.000 C 
ATOM     31  C   UNL     1       0.402  12.671  20.484  0.00  0.00    +0.000 C 
ATOM     32  C   UNL     1      -1.084  12.452  20.208  0.00  0.00    +0.000 C 
ATOM     33  C   UNL     1      -1.334  10.991  20.568  0.00  0.00    +0.000 C 
ENDBRANCH  26  27
ENDBRANCH  24  26
ENDBRANCH   3  22
TORSDOF 6
ENDMDL
MODEL 2
REMARK VINA RESULT:      -8.8      1.226      1.778
REMARK  Name = 
REMARK  8 active torsions:
REMARK  status: ('A' for Active; 'I' for Inactive)
REMARK    1  A    between atoms: C_1  and  O_2
REMARK    2  A    between atoms: O_2  and  C_3
REMARK    3  A    between atoms: C_6  and  N_7
REMARK    4  A    between atoms: C_9  and  C_10
REMARK    5  A    between atoms: N_12  and  C_13
REMARK    6  A    between atoms: C_13  and  C_14
REMARK    7  A    between atoms: C_29  and  O_30
REMARK    8  A    between atoms: O_30  and  C_31
REMARK                            x       y       z     vdW  Elec       q    Type
REMARK                         _______ _______ _______ _____ _____    ______ ____
ROOT
ATOM      1  N   UNL     1       4.325   5.066  18.057  0.00  0.00    +0.000 N 
ATOM      2  N   UNL     1       3.503   6.152  18.217  0.00  0.00    +0.000 NA
ATOM      3  C   UNL     1       2.610   6.057  19.157  0.00  0.00    +0.000 A 
ATOM      4  C   UNL     1       2.328   4.797  19.875  0.00  0.00    +0.000 A 
ATOM      5  C   UNL     1       1.099   4.404  20.409  0.00  0.00    +0.000 A 
ATOM      6  C   UNL     1       0.997   3.199  21.115  0.00  0.00    +0.000 A 
ATOM      7  C   UNL     1       2.121   2.388  21.292  0.00  0.00    +0.000 A 
ATOM      8  C   UNL     1       3.334   2.750  20.706  0.00  0.00    +0.000 A 
ATOM      9  C   UNL     1       3.416   3.927  19.957  0.00  0.00    +0.000 A 
ATOM     10  C   UNL     1       4.588   4.183  19.106  0.00  0.00    +0.000 A 
ATOM     11  O   UNL     1       5.639   3.583  19.309  0.00  0.00    +0.000 OA
ENDROOT
BRANCH   1  15
ATOM     12  C   UNL     1       6.768   5.116  14.654  0.00  0.00    +0.000 A 
ATOM     13  C   UNL     1       5.579   4.380  14.644  0.00  0.00    +0.000 A 
ATOM     14  C   UNL     1       4.755   4.349  15.769  0.00  0.00    +0.000 A 
ATOM     15  C   UNL     1       5.115   5.093  16.892  0.00  0.00    +0.000 A 
ATOM     16  C   UNL     1       6.299   5.850  16.914  0.00  0.00    +0.000 A 
ATOM     17  C   UNL     1       7.129   5.842  15.794  0.00  0.00    +0.000 A 
BRANCH  12  19
ATOM     18  C   UNL     1       7.025   4.158  12.492  0.00  0.00    +0.000 C 
ATOM     19  O   UNL     1       7.496   5.052  13.495  0.00  0.00    +0.000 OA
ENDBRANCH  12  19
BRANCH  16  20
ATOM     20  O   UNL     1       6.567   6.511  18.091  0.00  0.00    +0.000 OA
ATOM     21  C   UNL     1       7.851   6.333  18.669  0.00  0.00    +0.000 C 
ENDBRANCH  16  20
ENDBRANCH   1  15
BRANCH   3  22
ATOM     22  C   UNL     1       2.065   7.376  19.649  0.00  0.00    +0.000 C 
ATOM     23  O   UNL     1       1.793   7.493  20.837  0.00  0.00    +0.000 OA
ATOM     24  N   UNL     1       1.842   8.353  18.726  0.00  0.00    +0.000 N 
ATOM     25  H   UNL     1       2.043   8.246  17.742  0.00  0.00    +0.000 HD
BRANCH  24  26
ATOM     26  C   UNL     1       1.076   9.514  19.103  0.00  0.00    +0.000 C 
BRANCH  26  27
ATOM     27  C   UNL     1       1.731  10.735  18.474  0.00  0.00    +0.000 C 
ATOM     28  O   UNL     1       2.485  10.624  17.501  0.00  0.00    +0.000 OA
ATOM     29  N   UNL     1       1.391  11.948  19.017  0.00  0.00    +0.000 N 
ATOM     30  C   UNL     1       0.508  12.190  20.143  0.00  0.00    +0.000 C 
ATOM     31  C   UNL     1      -0.215  13.457  19.732  0.00  0.00    +0.000 C 
ATOM     32  C   UNL     1       0.869  14.247  19.003  0.00  0.00    +0.000 C 
ATOM     33  C   UNL     1       1.753  13.185  18.357  0.00  0.00    +0.000 C 
ENDBRANCH  26  27
ENDBRANCH  24  26
ENDBRANCH   3  22
TORSDOF 6
ENDMDL
MODEL 3
REMARK VINA RESULT:      -8.6      1.270      1.555
REMARK  Name = 
REMARK  8 active torsions:
REMARK  status: ('A' for Active; 'I' for Inactive)
REMARK    1  A    between atoms: C_1  and  O_2
REMARK    2  A    between atoms: O_2  and  C_3
REMARK    3  A    between atoms: C_6  and  N_7
REMARK    4  A    between atoms: C_9  and  C_10
REMARK    5  A    between atoms: N_12  and  C_13
REMARK    6  A    between atoms: C_13  and  C_14
REMARK    7  A    between atoms: C_29  and  O_30
REMARK    8  A    between atoms: O_30  and  C_31
REMARK                            x       y       z     vdW  Elec       q    Type
REMARK                         _______ _______ _______ _____ _____    ______ ____
ROOT
ATOM      1  N   UNL     1       4.311   5.026  18.050  0.00  0.00    +0.000 N 
ATOM      2  N   UNL     1       3.527   6.140  18.216  0.00  0.00    +0.000 NA
ATOM      3  C   UNL     1       2.646   6.079  19.171  0.00  0.00    +0.000 A 
ATOM      4  C   UNL     1       2.334   4.833  19.899  0.00  0.00    +0.000 A 
ATOM      5  C   UNL     1       1.101   4.484  20.455  0.00  0.00    +0.000 A 
ATOM      6  C   UNL     1       0.970   3.286  21.169  0.00  0.00    +0.000 A 
ATOM      7  C   UNL     1       2.069   2.439  21.332  0.00  0.00    +0.000 A 
ATOM      8  C   UNL     1       3.285   2.758  20.726  0.00  0.00    +0.000 A 
ATOM      9  C   UNL     1       3.393   3.928  19.970  0.00  0.00    +0.000 A 
ATOM     10  C   UNL     1       4.560   4.140  19.099  0.00  0.00    +0.000 A 
ATOM     11  O   UNL     1       5.593   3.507  19.289  0.00  0.00    +0.000 OA
ENDROOT
BRANCH   1  15
ATOM     12  C   UNL     1       6.702   4.985  14.610  0.00  0.00    +0.000 A 
ATOM     13  C   UNL     1       5.523   4.233  14.646  0.00  0.00    +0.000 A 
ATOM     14  C   UNL     1       4.717   4.232  15.783  0.00  0.00    +0.000 A 
ATOM     15  C   UNL     1       5.082   5.022  16.873  0.00  0.00    +0.000 A 
ATOM     16  C   UNL     1       6.256   5.795  16.849  0.00  0.00    +0.000 A 
ATOM     17  C   UNL     1       7.069   5.758  15.718  0.00  0.00    +0.000 A 
BRANCH  12  19
ATOM     18  C   UNL     1       6.893   4.016  12.446  0.00  0.00    +0.000 C 
ATOM     19  O   UNL     1       7.413   4.889  13.443  0.00  0.00    +0.000 OA
ENDBRANCH  12  19
BRANCH  16  20
ATOM     20  O   UNL     1       6.531   6.503  17.997  0.00  0.00    +0.000 OA
ATOM     21  C   UNL     1       7.768   6.251  18.645  0.00  0.00    +0.000 C 
ENDBRANCH  16  20
ENDBRANCH   1  15
BRANCH   3  22
ATOM     22  C   UNL     1       2.153   7.418  19.664  0.00  0.00    +0.000 C 
ATOM     23  O   UNL     1       1.733   7.503  20.811  0.00  0.00    +0.000 OA
ATOM     24  N   UNL     1       2.140   8.454  18.779  0.00  0.00    +0.000 N 
ATOM     25  H   UNL     1       2.463   8.375  17.825  0.00  0.00    +0.000 HD
BRANCH  24  26
ATOM     26  C   UNL     1       1.431   9.661  19.120  0.00  0.00    +0.000 C 
BRANCH  26  27
ATOM     27  C   UNL     1       0.246   9.794  18.175  0.00  0.00    +0.000 C 
ATOM     28  O   UNL     1       0.077   8.995  17.248  0.00  0.00    +0.000 OA
ATOM     29  N   UNL     1      -0.633  10.811  18.450  0.00  0.00    +0.000 N 
ATOM     30  C   UNL     1      -0.537  11.789  19.518  0.00  0.00    +0.000 C 
ATOM     31  C   UNL     1      -1.982  11.960  19.943  0.00  0.00    +0.000 C 
ATOM     32  C   UNL     1      -2.742  11.850  18.624  0.00  0.00    +0.000 C 
ATOM     33  C   UNL     1      -1.914  10.887  17.779  0.00  0.00    +0.000 C 
ENDBRANCH  26  27
ENDBRANCH  24  26
ENDBRANCH   3  22
TORSDOF 6
ENDMDL
MODEL 4
REMARK VINA RESULT:      -7.7      0.892      1.664
REMARK  Name = 
REMARK  8 active torsions:
REMARK  status: ('A' for Active; 'I' for Inactive)
REMARK    1  A    between atoms: C_1  and  O_2
REMARK    2  A    between atoms: O_2  and  C_3
REMARK    3  A    between atoms: C_6  and  N_7
REMARK    4  A    between atoms: C_9  and  C_10
REMARK    5  A    between atoms: N_12  and  C_13
REMARK    6  A    between atoms: C_13  and  C_14
REMARK    7  A    between atoms: C_29  and  O_30
REMARK    8  A    between atoms: O_30  and  C_31
REMARK                            x       y       z     vdW  Elec       q    Type
REMARK                         _______ _______ _______ _____ _____    ______ ____
ROOT
ATOM      1  N   UNL     1       4.398   5.155  18.446  0.00  0.00    +0.000 N 
ATOM      2  N   UNL     1       3.606   6.268  18.579  0.00  0.00    +0.000 NA
ATOM      3  C   UNL     1       2.625   6.171  19.426  0.00  0.00    +0.000 A 
ATOM      4  C   UNL     1       2.229   4.894  20.055  0.00  0.00    +0.000 A 
ATOM      5  C   UNL     1       0.940   4.531  20.454  0.00  0.00    +0.000 A 
ATOM      6  C   UNL     1       0.726   3.303  21.091  0.00  0.00    +0.000 A 
ATOM      7  C   UNL     1       1.796   2.438  21.333  0.00  0.00    +0.000 A 
ATOM      8  C   UNL     1       3.072   2.773  20.880  0.00  0.00    +0.000 A 
ATOM      9  C   UNL     1       3.269   3.976  20.198  0.00  0.00    +0.000 A 
ATOM     10  C   UNL     1       4.526   4.219  19.472  0.00  0.00    +0.000 A 
ATOM     11  O   UNL     1       5.529   3.566  19.744  0.00  0.00    +0.000 OA
ENDROOT
BRANCH   1  15
ATOM     12  C   UNL     1       6.977   5.314  15.148  0.00  0.00    +0.000 A 
ATOM     13  C   UNL     1       7.275   6.050  16.299  0.00  0.00    +0.000 A 
ATOM     14  C   UNL     1       6.427   6.013  17.405  0.00  0.00    +0.000 A 
ATOM     15  C   UNL     1       5.294   5.199  17.362  0.00  0.00    +0.000 A 
ATOM     16  C   UNL     1       4.987   4.442  16.218  0.00  0.00    +0.000 A 
ATOM     17  C   UNL     1       5.827   4.518  15.109  0.00  0.00    +0.000 A 
BRANCH  12  19
ATOM     18  C   UNL     1       7.492   4.936  12.857  0.00  0.00    +0.000 C 
ATOM     19  O   UNL     1       7.880   5.450  14.126  0.00  0.00    +0.000 OA
ENDBRANCH  12  19
BRANCH  16  20
ATOM     20  O   UNL     1       3.824   3.708  16.280  0.00  0.00    +0.000 OA
ATOM     21  C   UNL     1       3.895   2.411  16.851  0.00  0.00    +0.000 C 
ENDBRANCH  16  20
ENDBRANCH   1  15
BRANCH   3  22
ATOM     22  C   UNL     1       2.086   7.489  19.926  0.00  0.00    +0.000 C 
ATOM     23  O   UNL     1       1.963   8.413  19.132  0.00  0.00    +0.000 OA
ATOM     24  N   UNL     1       1.822   7.602  21.258  0.00  0.00    +0.000 N 
ATOM     25  H   UNL     1       1.947   6.845  21.916  0.00  0.00    +0.000 HD
BRANCH  24  26
ATOM     26  C   UNL     1       1.570   8.906  21.817  0.00  0.00    +0.000 C 
BRANCH  26  27
ATOM     27  C   UNL     1       0.138   9.295  21.481  0.00  0.00    +0.000 C 
ATOM     28  O   UNL     1      -0.801   8.521  21.698  0.00  0.00    +0.000 OA
ATOM     29  N   UNL     1      -0.041  10.559  20.980  0.00  0.00    +0.000 N 
ATOM     30  C   UNL     1       0.985  11.548  20.704  0.00  0.00    +0.000 C 
ATOM     31  C   UNL     1       0.312  12.845  21.105  0.00  0.00    +0.000 C 
ATOM     32  C   UNL     1      -1.138  12.625  20.681  0.00  0.00    +0.000 C 
ATOM     33  C   UNL     1      -1.368  11.127  20.854  0.00  0.00    +0.000 C 
ENDBRANCH  26  27
ENDBRANCH  24  26
ENDBRANCH   3  22
TORSDOF 6
ENDMDL
MODEL 5
REMARK VINA RESULT:      -7.7      1.462      2.387
REMARK  Name = 
REMARK  8 active torsions:
REMARK  status: ('A' for Active; 'I' for Inactive)
REMARK    1  A    between atoms: C_1  and  O_2
REMARK    2  A    between atoms: O_2  and  C_3
REMARK    3  A    between atoms: C_6  and  N_7
REMARK    4  A    between atoms: C_9  and  C_10
REMARK    5  A    between atoms: N_12  and  C_13
REMARK    6  A    between atoms: C_13  and  C_14
REMARK    7  A    between atoms: C_29  and  O_30
REMARK    8  A    between atoms: O_30  and  C_31
REMARK                            x       y       z     vdW  Elec       q    Type
REMARK                         _______ _______ _______ _____ _____    ______ ____
ROOT
ATOM      1  N   UNL     1       4.392   5.150  18.480  0.00  0.00    +0.000 N 
ATOM      2  N   UNL     1       3.550   6.229  18.574  0.00  0.00    +0.000 NA
ATOM      3  C   UNL     1       2.571   6.115  19.422  0.00  0.00    +0.000 A 
ATOM      4  C   UNL     1       2.230   4.842  20.090  0.00  0.00    +0.000 A 
ATOM      5  C   UNL     1       0.957   4.434  20.496  0.00  0.00    +0.000 A 
ATOM      6  C   UNL     1       0.795   3.218  21.171  0.00  0.00    +0.000 A 
ATOM      7  C   UNL     1       1.903   2.410  21.444  0.00  0.00    +0.000 A 
ATOM      8  C   UNL     1       3.165   2.789  20.984  0.00  0.00    +0.000 A 
ATOM      9  C   UNL     1       3.310   3.978  20.265  0.00  0.00    +0.000 A 
ATOM     10  C   UNL     1       4.557   4.253  19.536  0.00  0.00    +0.000 A 
ATOM     11  O   UNL     1       5.588   3.656  19.831  0.00  0.00    +0.000 OA
ENDROOT
BRANCH   1  15
ATOM     12  C   UNL     1       6.977   5.326  15.187  0.00  0.00    +0.000 A 
ATOM     13  C   UNL     1       7.263   6.072  16.335  0.00  0.00    +0.000 A 
ATOM     14  C   UNL     1       6.412   6.029  17.439  0.00  0.00    +0.000 A 
ATOM     15  C   UNL     1       5.291   5.201  17.398  0.00  0.00    +0.000 A 
ATOM     16  C   UNL     1       4.996   4.433  16.258  0.00  0.00    +0.000 A 
ATOM     17  C   UNL     1       5.838   4.515  15.150  0.00  0.00    +0.000 A 
BRANCH  12  19
ATOM     18  C   UNL     1       7.498   4.953  12.897  0.00  0.00    +0.000 C 
ATOM     19  O   UNL     1       7.881   5.468  14.167  0.00  0.00    +0.000 OA
ENDBRANCH  12  19
BRANCH  16  20
ATOM     20  O   UNL     1       3.843   3.684  16.321  0.00  0.00    +0.000 OA
ATOM     21  C   UNL     1       3.920   2.408  16.937  0.00  0.00    +0.000 C 
ENDBRANCH  16  20
ENDBRANCH   1  15
BRANCH   3  22
ATOM     22  C   UNL     1       1.970   7.423  19.878  0.00  0.00    +0.000 C 
ATOM     23  O   UNL     1       1.591   7.523  21.037  0.00  0.00    +0.000 OA
ATOM     24  N   UNL     1       1.823   8.410  18.950  0.00  0.00    +0.000 N 
ATOM     25  H   UNL     1       2.113   8.316  17.987  0.00  0.00    +0.000 HD
BRANCH  24  26
ATOM     26  C   UNL     1       1.015   9.559  19.270  0.00  0.00    +0.000 C 
BRANCH  26  27
ATOM     27  C   UNL     1       1.623  10.770  18.575  0.00  0.00    +0.000 C 
ATOM     28  O   UNL     1       2.338  10.639  17.577  0.00  0.00    +0.000 OA
ATOM     29  N   UNL     1       1.283  11.994  19.092  0.00  0.00    +0.000 N 
ATOM     30  C   UNL     1       0.442  12.258  20.245  0.00  0.00    +0.000 C 
ATOM     31  C   UNL     1      -0.319  13.499  19.824  0.00  0.00    +0.000 C 
ATOM     32  C   UNL     1       0.720  14.282  19.025  0.00  0.00    +0.000 C 
ATOM     33  C   UNL     1       1.596  13.215  18.378  0.00  0.00    +0.000 C 
ENDBRANCH  26  27
ENDBRANCH  24  26
ENDBRANCH   3  22
TORSDOF 6
ENDMDL
MODEL 6
REMARK VINA RESULT:      -7.5      3.676      7.862
REMARK  Name = 
REMARK  8 active torsions:
REMARK  status: ('A' for Active; 'I' for Inactive)
REMARK    1  A    between atoms: C_1  and  O_2
REMARK    2  A    between atoms: O_2  and  C_3
REMARK    3  A    between atoms: C_6  and  N_7
REMARK    4  A    between atoms: C_9  and  C_10
REMARK    5  A    between atoms: N_12  and  C_13
REMARK    6  A    between atoms: C_13  and  C_14
REMARK    7  A    between atoms: C_29  and  O_30
REMARK    8  A    between atoms: O_30  and  C_31
REMARK                            x       y       z     vdW  Elec       q    Type
REMARK                         _______ _______ _______ _____ _____    ______ ____
ROOT
ATOM      1  N   UNL     1       0.679  10.457  18.781  0.00  0.00    +0.000 N 
ATOM      2  N   UNL     1      -0.668  10.366  18.542  0.00  0.00    +0.000 NA
ATOM      3  C   UNL     1      -1.331  11.484  18.586  0.00  0.00    +0.000 A 
ATOM      4  C   UNL     1      -0.745  12.748  19.075  0.00  0.00    +0.000 A 
ATOM      5  C   UNL     1      -1.426  13.784  19.720  0.00  0.00    +0.000 A 
ATOM      6  C   UNL     1      -0.742  14.953  20.078  0.00  0.00    +0.000 A 
ATOM      7  C   UNL     1       0.618  15.091  19.791  0.00  0.00    +0.000 A 
ATOM      8  C   UNL     1       1.312  14.032  19.203  0.00  0.00    +0.000 A 
ATOM      9  C   UNL     1       0.635  12.848  18.897  0.00  0.00    +0.000 A 
ATOM     10  C   UNL     1       1.389  11.635  18.545  0.00  0.00    +0.000 A 
ATOM     11  O   UNL     1       2.552  11.722  18.163  0.00  0.00    +0.000 OA
ENDROOT
BRANCH   1  15
ATOM     12  C   UNL     1       2.512   6.737  19.378  0.00  0.00    +0.000 A 
ATOM     13  C   UNL     1       2.468   7.292  18.095  0.00  0.00    +0.000 A 
ATOM     14  C   UNL     1       1.859   8.527  17.877  0.00  0.00    +0.000 A 
ATOM     15  C   UNL     1       1.327   9.221  18.964  0.00  0.00    +0.000 A 
ATOM     16  C   UNL     1       1.375   8.685  20.262  0.00  0.00    +0.000 A 
ATOM     17  C   UNL     1       1.957   7.434  20.457  0.00  0.00    +0.000 A 
BRANCH  12  19
ATOM     18  C   UNL     1       4.526   5.481  19.225  0.00  0.00    +0.000 C 
ATOM     19  O   UNL     1       3.122   5.513  19.457  0.00  0.00    +0.000 OA
ENDBRANCH  12  19
BRANCH  16  20
ATOM     20  O   UNL     1       0.785   9.445  21.246  0.00  0.00    +0.000 OA
ATOM     21  C   UNL     1      -0.336   8.893  21.919  0.00  0.00    +0.000 C 
ENDBRANCH  16  20
ENDBRANCH   1  15
BRANCH   3  22
ATOM     22  C   UNL     1      -2.655  11.465  17.862  0.00  0.00    +0.000 C 
ATOM     23  O   UNL     1      -2.656  11.470  16.638  0.00  0.00    +0.000 OA
ATOM     24  N   UNL     1      -3.791  11.508  18.615  0.00  0.00    +0.000 N 
ATOM     25  H   UNL     1      -3.788  11.530  19.625  0.00  0.00    +0.000 HD
BRANCH  24  26
ATOM     26  C   UNL     1      -5.053  11.766  17.970  0.00  0.00    +0.000 C 
BRANCH  26  27
ATOM     27  C   UNL     1      -6.156  11.195  18.849  0.00  0.00    +0.000 C 
ATOM     28  O   UNL     1      -6.600  10.058  18.657  0.00  0.00    +0.000 OA
ATOM     29  N   UNL     1      -6.579  11.994  19.881  0.00  0.00    +0.000 N 
ATOM     30  C   UNL     1      -6.116  13.332  20.202  0.00  0.00    +0.000 C 
ATOM     31  C   UNL     1      -6.114  13.328  21.717  0.00  0.00    +0.000 C 
ATOM     32  C   UNL     1      -7.339  12.483  22.058  0.00  0.00    +0.000 C 
ATOM     33  C   UNL     1      -7.439  11.471  20.921  0.00  0.00    +0.000 C 
ENDBRANCH  26  27
ENDBRANCH  24  26
ENDBRANCH   3  22
TORSDOF 6
ENDMDL
MODEL 7
REMARK VINA RESULT:      -7.5      3.682      8.966
REMARK  Name = 
REMARK  8 active torsions:
REMARK  status: ('A' for Active; 'I' for Inactive)
REMARK    1  A    between atoms: C_1  and  O_2
REMARK    2  A    between atoms: O_2  and  C_3
REMARK    3  A    between atoms: C_6  and  N_7
REMARK    4  A    between atoms: C_9  and  C_10
REMARK    5  A    between atoms: N_12  and  C_13
REMARK    6  A    between atoms: C_13  and  C_14
REMARK    7  A    between atoms: C_29  and  O_30
REMARK    8  A    between atoms: O_30  and  C_31
REMARK                            x       y       z     vdW  Elec       q    Type
REMARK                         _______ _______ _______ _____ _____    ______ ____
ROOT
ATOM      1  N   UNL     1       1.627  13.148  19.875  0.00  0.00    +0.000 N 
ATOM      2  N   UNL     1       1.904  11.996  19.184  0.00  0.00    +0.000 NA
ATOM      3  C   UNL     1       1.282  10.927  19.585  0.00  0.00    +0.000 A 
ATOM      4  C   UNL     1       0.494  10.876  20.834  0.00  0.00    +0.000 A 
ATOM      5  C   UNL     1       0.308   9.760  21.653  0.00  0.00    +0.000 A 
ATOM      6  C   UNL     1      -0.515   9.850  22.782  0.00  0.00    +0.000 A 
ATOM      7  C   UNL     1      -1.157  11.053  23.092  0.00  0.00    +0.000 A 
ATOM      8  C   UNL     1      -0.922  12.184  22.310  0.00  0.00    +0.000 A 
ATOM      9  C   UNL     1      -0.058  12.100  21.216  0.00  0.00    +0.000 A 
ATOM     10  C   UNL     1       0.421  13.324  20.555  0.00  0.00    +0.000 A 
ATOM     11  O   UNL     1      -0.189  14.379  20.698  0.00  0.00    +0.000 OA
ENDROOT
BRANCH   1  15
ATOM     12  C   UNL     1       4.262  16.291  19.019  0.00  0.00    +0.000 A 
ATOM     13  C   UNL     1       3.232  15.984  18.124  0.00  0.00    +0.000 A 
ATOM     14  C   UNL     1       2.348  14.940  18.390  0.00  0.00    +0.000 A 
ATOM     15  C   UNL     1       2.481  14.227  19.582  0.00  0.00    +0.000 A 
ATOM     16  C   UNL     1       3.501  14.531  20.500  0.00  0.00    +0.000 A 
ATOM     17  C   UNL     1       4.398  15.555  20.201  0.00  0.00    +0.000 A 
BRANCH  12  19
ATOM     18  C   UNL     1       6.452  17.219  18.968  0.00  0.00    +0.000 C 
ATOM     19  O   UNL     1       5.072  17.326  18.634  0.00  0.00    +0.000 OA
ENDBRANCH  12  19
BRANCH  16  20
ATOM     20  O   UNL     1       3.555  13.735  21.622  0.00  0.00    +0.000 OA
ATOM     21  C   UNL     1       4.734  13.788  22.410  0.00  0.00    +0.000 C 
ENDBRANCH  16  20
ENDBRANCH   1  15
BRANCH   3  22
ATOM     22  C   UNL     1       1.199   9.819  18.564  0.00  0.00    +0.000 C 
ATOM     23  O   UNL     1       0.179   9.711  17.896  0.00  0.00    +0.000 OA
ATOM     24  N   UNL     1       2.248   8.953  18.482  0.00  0.00    +0.000 N 
ATOM     25  H   UNL     1       3.079   9.029  19.052  0.00  0.00    +0.000 HD
BRANCH  24  26
ATOM     26  C   UNL     1       2.097   7.736  17.725  0.00  0.00    +0.000 C 
BRANCH  26  27
ATOM     27  C   UNL     1       2.787   6.616  18.491  0.00  0.00    +0.000 C 
ATOM     28  O   UNL     1       2.269   6.119  19.496  0.00  0.00    +0.000 OA
ATOM     29  N   UNL     1       3.973   6.169  17.966  0.00  0.00    +0.000 N 
ATOM     30  C   UNL     1       4.656   6.670  16.788  0.00  0.00    +0.000 C 
ATOM     31  C   UNL     1       5.223   5.407  16.171  0.00  0.00    +0.000 C 
ATOM     32  C   UNL     1       5.612   4.576  17.390  0.00  0.00    +0.000 C 
ATOM     33  C   UNL     1       4.593   4.957  18.460  0.00  0.00    +0.000 C 
ENDBRANCH  26  27
ENDBRANCH  24  26
ENDBRANCH   3  22
TORSDOF 6
ENDMDL
MODEL 8
REMARK VINA RESULT:      -7.5      1.524      2.266
REMARK  Name = 
REMARK  8 active torsions:
REMARK  status: ('A' for Active; 'I' for Inactive)
REMARK    1  A    between atoms: C_1  and  O_2
REMARK    2  A    between atoms: O_2  and  C_3
REMARK    3  A    between atoms: C_6  and  N_7
REMARK    4  A    between atoms: C_9  and  C_10
REMARK    5  A    between atoms: N_12  and  C_13
REMARK    6  A    between atoms: C_13  and  C_14
REMARK    7  A    between atoms: C_29  and  O_30
REMARK    8  A    between atoms: O_30  and  C_31
REMARK                            x       y       z     vdW  Elec       q    Type
REMARK                         _______ _______ _______ _____ _____    ______ ____
ROOT
ATOM      1  N   UNL     1       4.392   5.187  18.455  0.00  0.00    +0.000 N 
ATOM      2  N   UNL     1       3.590   6.294  18.571  0.00  0.00    +0.000 NA
ATOM      3  C   UNL     1       2.602   6.196  19.410  0.00  0.00    +0.000 A 
ATOM      4  C   UNL     1       2.209   4.921  20.044  0.00  0.00    +0.000 A 
ATOM      5  C   UNL     1       0.919   4.551  20.433  0.00  0.00    +0.000 A 
ATOM      6  C   UNL     1       0.707   3.326  21.077  0.00  0.00    +0.000 A 
ATOM      7  C   UNL     1       1.782   2.471  21.337  0.00  0.00    +0.000 A 
ATOM      8  C   UNL     1       3.060   2.813  20.894  0.00  0.00    +0.000 A 
ATOM      9  C   UNL     1       3.255   4.012  20.205  0.00  0.00    +0.000 A 
ATOM     10  C   UNL     1       4.516   4.259  19.490  0.00  0.00    +0.000 A 
ATOM     11  O   UNL     1       5.522   3.616  19.777  0.00  0.00    +0.000 OA
ENDROOT
BRANCH   1  15
ATOM     12  C   UNL     1       7.003   5.338  15.182  0.00  0.00    +0.000 A 
ATOM     13  C   UNL     1       7.274   6.101  16.323  0.00  0.00    +0.000 A 
ATOM     14  C   UNL     1       6.414   6.066  17.420  0.00  0.00    +0.000 A 
ATOM     15  C   UNL     1       5.299   5.229  17.380  0.00  0.00    +0.000 A 
ATOM     16  C   UNL     1       5.019   4.445  16.247  0.00  0.00    +0.000 A 
ATOM     17  C   UNL     1       5.870   4.519  15.145  0.00  0.00    +0.000 A 
BRANCH  12  19
ATOM     18  C   UNL     1       7.519   4.999  12.885  0.00  0.00    +0.000 C 
ATOM     19  O   UNL     1       7.914   5.474  14.168  0.00  0.00    +0.000 OA
ENDBRANCH  12  19
BRANCH  16  20
ATOM     20  O   UNL     1       3.871   3.689  16.310  0.00  0.00    +0.000 OA
ATOM     21  C   UNL     1       3.973   2.382  16.854  0.00  0.00    +0.000 C 
ENDBRANCH  16  20
ENDBRANCH   1  15
BRANCH   3  22
ATOM     22  C   UNL     1       2.048   7.513  19.894  0.00  0.00    +0.000 C 
ATOM     23  O   UNL     1       1.616   7.585  21.037  0.00  0.00    +0.000 OA
ATOM     24  N   UNL     1       1.998   8.545  19.005  0.00  0.00    +0.000 N 
ATOM     25  H   UNL     1       2.332   8.477  18.054  0.00  0.00    +0.000 HD
BRANCH  24  26
ATOM     26  C   UNL     1       1.236   9.722  19.336  0.00  0.00    +0.000 C 
BRANCH  26  27
ATOM     27  C   UNL     1       0.137   9.880  18.295  0.00  0.00    +0.000 C 
ATOM     28  O   UNL     1       0.056   9.111  17.332  0.00  0.00    +0.000 OA
ATOM     29  N   UNL     1      -0.772  10.882  18.525  0.00  0.00    +0.000 N 
ATOM     30  C   UNL     1      -0.777  11.826  19.628  0.00  0.00    +0.000 C 
ATOM     31  C   UNL     1      -2.255  11.974  19.930  0.00  0.00    +0.000 C 
ATOM     32  C   UNL     1      -2.896  11.904  18.546  0.00  0.00    +0.000 C 
ATOM     33  C   UNL     1      -1.989  10.973  17.747  0.00  0.00    +0.000 C 
ENDBRANCH  26  27
ENDBRANCH  24  26
ENDBRANCH   3  22
TORSDOF 6
ENDMDL
MODEL 9
REMARK VINA RESULT:      -7.4      3.468     10.097
REMARK  Name = 
REMARK  8 active torsions:
REMARK  status: ('A' for Active; 'I' for Inactive)
REMARK    1  A    between atoms: C_1  and  O_2
REMARK    2  A    between atoms: O_2  and  C_3
REMARK    3  A    between atoms: C_6  and  N_7
REMARK    4  A    between atoms: C_9  and  C_10
REMARK    5  A    between atoms: N_12  and  C_13
REMARK    6  A    between atoms: C_13  and  C_14
REMARK    7  A    between atoms: C_29  and  O_30
REMARK    8  A    between atoms: O_30  and  C_31
REMARK                            x       y       z     vdW  Elec       q    Type
REMARK                         _______ _______ _______ _____ _____    ______ ____
ROOT
ATOM      1  N   UNL     1      -1.552  11.934  18.964  0.00  0.00    +0.000 N 
ATOM      2  N   UNL     1      -1.016  10.697  19.217  0.00  0.00    +0.000 NA
ATOM      3  C   UNL     1       0.282  10.632  19.237  0.00  0.00    +0.000 A 
ATOM      4  C   UNL     1       1.150  11.746  18.803  0.00  0.00    +0.000 A 
ATOM      5  C   UNL     1       2.415  11.634  18.220  0.00  0.00    +0.000 A 
ATOM      6  C   UNL     1       3.146  12.787  17.911  0.00  0.00    +0.000 A 
ATOM      7  C   UNL     1       2.619  14.052  18.186  0.00  0.00    +0.000 A 
ATOM      8  C   UNL     1       1.331  14.165  18.711  0.00  0.00    +0.000 A 
ATOM      9  C   UNL     1       0.586  13.012  18.968  0.00  0.00    +0.000 A 
ATOM     10  C   UNL     1      -0.854  13.109  19.249  0.00  0.00    +0.000 A 
ATOM     11  O   UNL     1      -1.339  14.174  19.619  0.00  0.00    +0.000 OA
ENDROOT
BRANCH   1  15
ATOM     12  C   UNL     1      -5.666  11.820  18.176  0.00  0.00    +0.000 A 
ATOM     13  C   UNL     1      -5.210  12.219  19.437  0.00  0.00    +0.000 A 
ATOM     14  C   UNL     1      -3.846  12.260  19.718  0.00  0.00    +0.000 A 
ATOM     15  C   UNL     1      -2.937  11.933  18.712  0.00  0.00    +0.000 A 
ATOM     16  C   UNL     1      -3.376  11.543  17.435  0.00  0.00    +0.000 A 
ATOM     17  C   UNL     1      -4.745  11.474  17.181  0.00  0.00    +0.000 A 
BRANCH  12  19
ATOM     18  C   UNL     1      -7.768  12.703  18.852  0.00  0.00    +0.000 C 
ATOM     19  O   UNL     1      -7.028  11.806  18.032  0.00  0.00    +0.000 OA
ENDBRANCH  12  19
BRANCH  16  20
ATOM     20  O   UNL     1      -2.387  11.208  16.537  0.00  0.00    +0.000 OA
ATOM     21  C   UNL     1      -2.740  10.358  15.457  0.00  0.00    +0.000 C 
ENDBRANCH  16  20
ENDBRANCH   1  15
BRANCH   3  22
ATOM     22  C   UNL     1       0.847   9.444  19.977  0.00  0.00    +0.000 C 
ATOM     23  O   UNL     1       0.788   9.432  21.199  0.00  0.00    +0.000 OA
ATOM     24  N   UNL     1       1.454   8.470  19.243  0.00  0.00    +0.000 N 
ATOM     25  H   UNL     1       1.524   8.494  18.235  0.00  0.00    +0.000 HD
BRANCH  24  26
ATOM     26  C   UNL     1       2.238   7.467  19.917  0.00  0.00    +0.000 C 
BRANCH  26  27
ATOM     27  C   UNL     1       2.487   6.327  18.940  0.00  0.00    +0.000 C 
ATOM     28  O   UNL     1       3.123   6.510  17.896  0.00  0.00    +0.000 OA
ATOM     29  N   UNL     1       2.013   5.096  19.316  0.00  0.00    +0.000 N 
ATOM     30  C   UNL     1       1.271   4.771  20.520  0.00  0.00    +0.000 C 
ATOM     31  C   UNL     1       1.816   3.406  20.888  0.00  0.00    +0.000 C 
ATOM     32  C   UNL     1       2.036   2.749  19.528  0.00  0.00    +0.000 C 
ATOM     33  C   UNL     1       2.397   3.900  18.595  0.00  0.00    +0.000 C 
ENDBRANCH  26  27
ENDBRANCH  24  26
ENDBRANCH   3  22
TORSDOF 6
ENDMDL
