MODEL 1
REMARK VINA RESULT:      -5.7      0.000      0.000
REMARK  Name = 
REMARK  6 active torsions:
REMARK  status: ('A' for Active; 'I' for Inactive)
REMARK    1  A    between atoms: C_1  and  C_2
REMARK    2  A    between atoms: C_4  and  N_5
REMARK    3  A    between atoms: N_5  and  C_6
REMARK    4  A    between atoms: N_5  and  C_7
REMARK    5  A    between atoms: C_8  and  C_9
REMARK    6  A    between atoms: C_11  and  O_12
REMARK                            x       y       z     vdW  Elec       q    Type
REMARK                         _______ _______ _______ _____ _____    ______ ____
ROOT
ATOM      1  C   UNL     1       0.750   2.393  18.692  0.00  0.00    +0.000 C 
ATOM      2  C   UNL     1       2.077   3.086  18.779  0.00  0.00    +0.000 A 
ATOM      3  C   UNL     1       2.249   4.383  18.303  0.00  0.00    +0.000 A 
ATOM      4  C   UNL     1       3.483   5.054  18.429  0.00  0.00    +0.000 A 
ATOM      5  C   UNL     1       4.518   4.316  19.044  0.00  0.00    +0.000 A 
ATOM      6  C   UNL     1       4.265   3.007  19.471  0.00  0.00    +0.000 A 
ATOM      7  N   UNL     1       3.077   2.392  19.353  0.00  0.00    +0.000 NA
ENDROOT
BRANCH   4   8
ATOM      8  N   UNL     1       3.598   6.373  17.990  0.00  0.00    +0.000 N 
ATOM      9  C   UNL     1       2.669   7.415  18.428  0.00  0.00    +0.000 C 
ATOM     10  C   UNL     1       4.492   6.783  16.904  0.00  0.00    +0.000 C 
ENDBRANCH   4   8
BRANCH   5  11
ATOM     11  C   UNL     1       5.806   4.867  19.316  0.00  0.00    +0.000 C 
ATOM     12  N   UNL     1       6.814   5.373  19.604  0.00  0.00    +0.000 NA
ENDBRANCH   5  11
BRANCH   6  13
ATOM     13  O   UNL     1       5.199   2.209  20.075  0.00  0.00    +0.000 OA
ATOM     14  H   UNL     1       5.242   1.338  19.653  0.00  0.00    +0.000 HD
ENDBRANCH   6  13
TORSDOF 3
ENDMDL
MODEL 2
REMARK VINA RESULT:      -5.5      0.316      1.010
REMARK  Name = 
REMARK  6 active torsions:
REMARK  status: ('A' for Active; 'I' for Inactive)
REMARK    1  A    between atoms: C_1  and  C_2
REMARK    2  A    between atoms: C_4  and  N_5
REMARK    3  A    between atoms: N_5  and  C_6
REMARK    4  A    between atoms: N_5  and  C_7
REMARK    5  A    between atoms: C_8  and  C_9
REMARK    6  A    between atoms: C_11  and  O_12
REMARK                            x       y       z     vdW  Elec       q    Type
REMARK                         _______ _______ _______ _____ _____    ______ ____
ROOT
ATOM      1  C   UNL     1       0.769   2.449  18.668  0.00  0.00    +0.000 C 
ATOM      2  C   UNL     1       2.121   3.098  18.692  0.00  0.00    +0.000 A 
ATOM      3  C   UNL     1       2.345   4.328  18.080  0.00  0.00    +0.000 A 
ATOM      4  C   UNL     1       3.603   4.963  18.146  0.00  0.00    +0.000 A 
ATOM      5  C   UNL     1       4.605   4.258  18.848  0.00  0.00    +0.000 A 
ATOM      6  C   UNL     1       4.300   3.014  19.413  0.00  0.00    +0.000 A 
ATOM      7  N   UNL     1       3.090   2.434  19.349  0.00  0.00    +0.000 NA
ENDROOT
BRANCH   4   8
ATOM      8  N   UNL     1       3.770   6.220  17.567  0.00  0.00    +0.000 N 
ATOM      9  C   UNL     1       4.786   6.468  16.542  0.00  0.00    +0.000 C 
ATOM     10  C   UNL     1       3.122   7.432  18.074  0.00  0.00    +0.000 C 
ENDBRANCH   4   8
BRANCH   5  11
ATOM     11  C   UNL     1       5.911   4.787  19.072  0.00  0.00    +0.000 C 
ATOM     12  N   UNL     1       6.936   5.282  19.318  0.00  0.00    +0.000 NA
ENDBRANCH   5  11
BRANCH   6  13
ATOM     13  O   UNL     1       5.198   2.253  20.110  0.00  0.00    +0.000 OA
ATOM     14  H   UNL     1       4.749   1.661  20.732  0.00  0.00    +0.000 HD
ENDBRANCH   6  13
TORSDOF 3
ENDMDL
MODEL 3
REMARK VINA RESULT:      -5.5      1.526      3.760
REMARK  Name = 
REMARK  6 active torsions:
REMARK  status: ('A' for Active; 'I' for Inactive)
REMARK    1  A    between atoms: C_1  and  C_2
REMARK    2  A    between atoms: C_4  and  N_5
REMARK    3  A    between atoms: N_5  and  C_6
REMARK    4  A    between atoms: N_5  and  C_7
REMARK    5  A    between atoms: C_8  and  C_9
REMARK    6  A    between atoms: C_11  and  O_12
REMARK                            x       y       z     vdW  Elec       q    Type
REMARK                         _______ _______ _______ _____ _____    ______ ____
ROOT
ATOM      1  C   UNL     1       2.971   7.596  17.827  0.00  0.00    +0.000 C 
ATOM      2  C   UNL     1       3.307   6.272  18.445  0.00  0.00    +0.000 A 
ATOM      3  C   UNL     1       2.310   5.394  18.862  0.00  0.00    +0.000 A 
ATOM      4  C   UNL     1       2.624   4.127  19.397  0.00  0.00    +0.000 A 
ATOM      5  C   UNL     1       4.002   3.831  19.496  0.00  0.00    +0.000 A 
ATOM      6  C   UNL     1       4.938   4.784  19.076  0.00  0.00    +0.000 A 
ATOM      7  N   UNL     1       4.616   5.980  18.556  0.00  0.00    +0.000 NA
ENDROOT
BRANCH   4   8
ATOM      8  N   UNL     1       1.595   3.254  19.751  0.00  0.00    +0.000 N 
ATOM      9  C   UNL     1       1.261   2.984  21.150  0.00  0.00    +0.000 C 
ATOM     10  C   UNL     1       0.920   2.377  18.792  0.00  0.00    +0.000 C 
ENDBRANCH   4   8
BRANCH   5  11
ATOM     11  C   UNL     1       4.493   2.570  19.947  0.00  0.00    +0.000 C 
ATOM     12  N   UNL     1       4.979   1.584  20.332  0.00  0.00    +0.000 NA
ENDBRANCH   5  11
BRANCH   6  13
ATOM     13  O   UNL     1       6.293   4.596  19.132  0.00  0.00    +0.000 OA
ATOM     14  H   UNL     1       6.521   3.855  19.712  0.00  0.00    +0.000 HD
ENDBRANCH   6  13
TORSDOF 3
ENDMDL
MODEL 4
REMARK VINA RESULT:      -5.2      2.102      3.586
REMARK  Name = 
REMARK  6 active torsions:
REMARK  status: ('A' for Active; 'I' for Inactive)
REMARK    1  A    between atoms: C_1  and  C_2
REMARK    2  A    between atoms: C_4  and  N_5
REMARK    3  A    between atoms: N_5  and  C_6
REMARK    4  A    between atoms: N_5  and  C_7
REMARK    5  A    between atoms: C_8  and  C_9
REMARK    6  A    between atoms: C_11  and  O_12
REMARK                            x       y       z     vdW  Elec       q    Type
REMARK                         _______ _______ _______ _____ _____    ______ ____
ROOT
ATOM      1  C   UNL     1       2.572   8.302  17.871  0.00  0.00    +0.000 C 
ATOM      2  C   UNL     1       3.076   6.945  18.260  0.00  0.00    +0.000 A 
ATOM      3  C   UNL     1       4.120   6.334  17.570  0.00  0.00    +0.000 A 
ATOM      4  C   UNL     1       4.629   5.080  17.967  0.00  0.00    +0.000 A 
ATOM      5  C   UNL     1       3.997   4.492  19.084  0.00  0.00    +0.000 A 
ATOM      6  C   UNL     1       2.937   5.165  19.705  0.00  0.00    +0.000 A 
ATOM      7  N   UNL     1       2.478   6.366  19.317  0.00  0.00    +0.000 NA
ENDROOT
BRANCH   4   8
ATOM      8  N   UNL     1       5.711   4.528  17.282  0.00  0.00    +0.000 N 
ATOM      9  C   UNL     1       7.092   4.754  17.712  0.00  0.00    +0.000 C 
ATOM     10  C   UNL     1       5.588   3.878  15.975  0.00  0.00    +0.000 C 
ENDBRANCH   4   8
BRANCH   5  11
ATOM     11  C   UNL     1       4.432   3.262  19.662  0.00  0.00    +0.000 C 
ATOM     12  N   UNL     1       4.842   2.244  20.053  0.00  0.00    +0.000 NA
ENDBRANCH   5  11
BRANCH   6  13
ATOM     13  O   UNL     1       2.259   4.681  20.790  0.00  0.00    +0.000 OA
ATOM     14  H   UNL     1       1.982   5.398  21.380  0.00  0.00    +0.000 HD
ENDBRANCH   6  13
TORSDOF 3
ENDMDL
MODEL 5
REMARK VINA RESULT:      -5.2      2.679      3.801
REMARK  Name = 
REMARK  6 active torsions:
REMARK  status: ('A' for Active; 'I' for Inactive)
REMARK    1  A    between atoms: C_1  and  C_2
REMARK    2  A    between atoms: C_4  and  N_5
REMARK    3  A    between atoms: N_5  and  C_6
REMARK    4  A    between atoms: N_5  and  C_7
REMARK    5  A    between atoms: C_8  and  C_9
REMARK    6  A    between atoms: C_11  and  O_12
REMARK                            x       y       z     vdW  Elec       q    Type
REMARK                         _______ _______ _______ _____ _____    ______ ____
ROOT
ATOM      1  C   UNL     1       5.650   4.010  13.499  0.00  0.00    +0.000 C 
ATOM      2  C   UNL     1       5.818   4.411  14.934  0.00  0.00    +0.000 A 
ATOM      3  C   UNL     1       4.799   5.055  15.630  0.00  0.00    +0.000 A 
ATOM      4  C   UNL     1       4.937   5.387  16.994  0.00  0.00    +0.000 A 
ATOM      5  C   UNL     1       6.174   5.044  17.583  0.00  0.00    +0.000 A 
ATOM      6  C   UNL     1       7.154   4.421  16.802  0.00  0.00    +0.000 A 
ATOM      7  N   UNL     1       6.995   4.101  15.506  0.00  0.00    +0.000 NA
ENDROOT
BRANCH   4   8
ATOM      8  N   UNL     1       3.871   5.981  17.669  0.00  0.00    +0.000 N 
ATOM      9  C   UNL     1       2.792   5.186  18.259  0.00  0.00    +0.000 C 
ATOM     10  C   UNL     1       3.616   7.424  17.658  0.00  0.00    +0.000 C 
ENDBRANCH   4   8
BRANCH   5  11
ATOM     11  C   UNL     1       6.454   5.243  18.968  0.00  0.00    +0.000 C 
ATOM     12  N   UNL     1       6.775   5.379  20.079  0.00  0.00    +0.000 NA
ENDBRANCH   5  11
BRANCH   6  13
ATOM     13  O   UNL     1       8.384   4.050  17.275  0.00  0.00    +0.000 OA
ATOM     14  H   UNL     1       8.908   3.614  16.587  0.00  0.00    +0.000 HD
ENDBRANCH   6  13
TORSDOF 3
ENDMDL
MODEL 6
REMARK VINA RESULT:      -5.2      2.283      3.664
REMARK  Name = 
REMARK  6 active torsions:
REMARK  status: ('A' for Active; 'I' for Inactive)
REMARK    1  A    between atoms: C_1  and  C_2
REMARK    2  A    between atoms: C_4  and  N_5
REMARK    3  A    between atoms: N_5  and  C_6
REMARK    4  A    between atoms: N_5  and  C_7
REMARK    5  A    between atoms: C_8  and  C_9
REMARK    6  A    between atoms: C_11  and  O_12
REMARK                            x       y       z     vdW  Elec       q    Type
REMARK                         _______ _______ _______ _____ _____    ______ ____
ROOT
ATOM      1  C   UNL     1       2.191   8.905  17.884  0.00  0.00    +0.000 C 
ATOM      2  C   UNL     1       2.825   7.581  18.188  0.00  0.00    +0.000 A 
ATOM      3  C   UNL     1       3.790   7.031  17.348  0.00  0.00    +0.000 A 
ATOM      4  C   UNL     1       4.425   5.810  17.658  0.00  0.00    +0.000 A 
ATOM      5  C   UNL     1       3.998   5.188  18.852  0.00  0.00    +0.000 A 
ATOM      6  C   UNL     1       3.004   5.799  19.625  0.00  0.00    +0.000 A 
ATOM      7  N   UNL     1       2.423   6.970  19.317  0.00  0.00    +0.000 NA
ENDROOT
BRANCH   4   8
ATOM      8  N   UNL     1       5.425   5.321  16.819  0.00  0.00    +0.000 N 
ATOM      9  C   UNL     1       5.159   4.277  15.828  0.00  0.00    +0.000 C 
ATOM     10  C   UNL     1       6.846   5.631  16.997  0.00  0.00    +0.000 C 
ENDBRANCH   4   8
BRANCH   5  11
ATOM     11  C   UNL     1       4.585   3.987  19.352  0.00  0.00    +0.000 C 
ATOM     12  N   UNL     1       4.981   2.961  19.735  0.00  0.00    +0.000 NA
ENDBRANCH   5  11
BRANCH   6  13
ATOM     13  O   UNL     1       2.521   5.278  20.795  0.00  0.00    +0.000 OA
ATOM     14  H   UNL     1       1.889   4.564  20.627  0.00  0.00    +0.000 HD
ENDBRANCH   6  13
TORSDOF 3
ENDMDL
MODEL 7
REMARK VINA RESULT:      -5.1      1.752      1.888
REMARK  Name = 
REMARK  6 active torsions:
REMARK  status: ('A' for Active; 'I' for Inactive)
REMARK    1  A    between atoms: C_1  and  C_2
REMARK    2  A    between atoms: C_4  and  N_5
REMARK    3  A    between atoms: N_5  and  C_6
REMARK    4  A    between atoms: N_5  and  C_7
REMARK    5  A    between atoms: C_8  and  C_9
REMARK    6  A    between atoms: C_11  and  O_12
REMARK                            x       y       z     vdW  Elec       q    Type
REMARK                         _______ _______ _______ _____ _____    ______ ____
ROOT
ATOM      1  C   UNL     1       1.418   2.674  21.657  0.00  0.00    +0.000 C 
ATOM      2  C   UNL     1       2.284   3.509  20.763  0.00  0.00    +0.000 A 
ATOM      3  C   UNL     1       1.943   4.820  20.444  0.00  0.00    +0.000 A 
ATOM      4  C   UNL     1       2.782   5.624  19.644  0.00  0.00    +0.000 A 
ATOM      5  C   UNL     1       3.963   5.001  19.182  0.00  0.00    +0.000 A 
ATOM      6  C   UNL     1       4.216   3.669  19.531  0.00  0.00    +0.000 A 
ATOM      7  N   UNL     1       3.408   2.926  20.306  0.00  0.00    +0.000 NA
ENDROOT
BRANCH   4   8
ATOM      8  N   UNL     1       2.431   6.950  19.393  0.00  0.00    +0.000 N 
ATOM      9  C   UNL     1       1.845   7.802  20.429  0.00  0.00    +0.000 C 
ATOM     10  C   UNL     1       2.404   7.534  18.050  0.00  0.00    +0.000 C 
ENDBRANCH   4   8
BRANCH   5  11
ATOM     11  C   UNL     1       4.956   5.689  18.424  0.00  0.00    +0.000 C 
ATOM     12  N   UNL     1       5.820   6.257  17.887  0.00  0.00    +0.000 NA
ENDBRANCH   5  11
BRANCH   6  13
ATOM     13  O   UNL     1       5.327   2.975  19.135  0.00  0.00    +0.000 OA
ATOM     14  H   UNL     1       5.091   2.101  18.790  0.00  0.00    +0.000 HD
ENDBRANCH   6  13
TORSDOF 3
ENDMDL
MODEL 8
REMARK VINA RESULT:      -5.1      2.422      4.484
REMARK  Name = 
REMARK  6 active torsions:
REMARK  status: ('A' for Active; 'I' for Inactive)
REMARK    1  A    between atoms: C_1  and  C_2
REMARK    2  A    between atoms: C_4  and  N_5
REMARK    3  A    between atoms: N_5  and  C_6
REMARK    4  A    between atoms: N_5  and  C_7
REMARK    5  A    between atoms: C_8  and  C_9
REMARK    6  A    between atoms: C_11  and  O_12
REMARK                            x       y       z     vdW  Elec       q    Type
REMARK                         _______ _______ _______ _____ _____    ______ ____
ROOT
ATOM      1  C   UNL     1       4.294   6.996  17.286  0.00  0.00    +0.000 C 
ATOM      2  C   UNL     1       3.695   6.057  18.289  0.00  0.00    +0.000 A 
ATOM      3  C   UNL     1       3.984   4.695  18.269  0.00  0.00    +0.000 A 
ATOM      4  C   UNL     1       3.462   3.819  19.243  0.00  0.00    +0.000 A 
ATOM      5  C   UNL     1       2.621   4.413  20.209  0.00  0.00    +0.000 A 
ATOM      6  C   UNL     1       2.362   5.788  20.140  0.00  0.00    +0.000 A 
ATOM      7  N   UNL     1       2.883   6.606  19.211  0.00  0.00    +0.000 NA
ENDROOT
BRANCH   4   8
ATOM      8  N   UNL     1       3.821   2.471  19.221  0.00  0.00    +0.000 N 
ATOM      9  C   UNL     1       4.740   1.902  20.207  0.00  0.00    +0.000 C 
ATOM     10  C   UNL     1       3.502   1.574  18.108  0.00  0.00    +0.000 C 
ENDBRANCH   4   8
BRANCH   5  11
ATOM     11  C   UNL     1       2.067   3.687  21.306  0.00  0.00    +0.000 C 
ATOM     12  N   UNL     1       1.696   3.041  22.201  0.00  0.00    +0.000 NA
ENDBRANCH   5  11
BRANCH   6  13
ATOM     13  O   UNL     1       1.562   6.458  21.025  0.00  0.00    +0.000 OA
ATOM     14  H   UNL     1       1.395   7.365  20.730  0.00  0.00    +0.000 HD
ENDBRANCH   6  13
TORSDOF 3
ENDMDL
MODEL 9
REMARK VINA RESULT:      -5.1      2.243      4.227
REMARK  Name = 
REMARK  6 active torsions:
REMARK  status: ('A' for Active; 'I' for Inactive)
REMARK    1  A    between atoms: C_1  and  C_2
REMARK    2  A    between atoms: C_4  and  N_5
REMARK    3  A    between atoms: N_5  and  C_6
REMARK    4  A    between atoms: N_5  and  C_7
REMARK    5  A    between atoms: C_8  and  C_9
REMARK    6  A    between atoms: C_11  and  O_12
REMARK                            x       y       z     vdW  Elec       q    Type
REMARK                         _______ _______ _______ _____ _____    ______ ____
ROOT
ATOM      1  C   UNL     1       8.012   5.973  19.036  0.00  0.00    +0.000 C 
ATOM      2  C   UNL     1       6.703   5.344  18.664  0.00  0.00    +0.000 A 
ATOM      3  C   UNL     1       5.554   5.564  19.418  0.00  0.00    +0.000 A 
ATOM      4  C   UNL     1       4.310   5.014  19.041  0.00  0.00    +0.000 A 
ATOM      5  C   UNL     1       4.324   4.222  17.872  0.00  0.00    +0.000 A 
ATOM      6  C   UNL     1       5.531   4.032  17.187  0.00  0.00    +0.000 A 
ATOM      7  N   UNL     1       6.701   4.577  17.558  0.00  0.00    +0.000 NA
ENDROOT
BRANCH   4   8
ATOM      8  N   UNL     1       3.172   5.304  19.793  0.00  0.00    +0.000 N 
ATOM      9  C   UNL     1       2.561   4.311  20.678  0.00  0.00    +0.000 C 
ATOM     10  C   UNL     1       2.371   6.515  19.604  0.00  0.00    +0.000 C 
ENDBRANCH   4   8
BRANCH   5  11
ATOM     11  C   UNL     1       3.144   3.651  17.310  0.00  0.00    +0.000 C 
ATOM     12  N   UNL     1       2.150   3.167  16.941  0.00  0.00    +0.000 NA
ENDBRANCH   5  11
BRANCH   6  13
ATOM     13  O   UNL     1       5.651   3.283  16.049  0.00  0.00    +0.000 OA
ATOM     14  H   UNL     1       6.127   2.457  16.221  0.00  0.00    +0.000 HD
ENDBRANCH   6  13
TORSDOF 3
ENDMDL
