MODEL 1
REMARK VINA RESULT:      -6.8      0.000      0.000
REMARK  Name = 
REMARK  8 active torsions:
REMARK  status: ('A' for Active; 'I' for Inactive)
REMARK    1  A    between atoms: C_2  and  S_13
REMARK    2  A    between atoms: N_3  and  C_4
REMARK    3  A    between atoms: C_4  and  C_5
REMARK    4  A    between atoms: C_5  and  C_6
REMARK    5  A    between atoms: S_13  and  C_14
REMARK    6  A    between atoms: C_14  and  C_15
REMARK    7  A    between atoms: C_15  and  C_16
REMARK    8  A    between atoms: C_16  and  C_17
REMARK                            x       y       z     vdW  Elec       q    Type
REMARK                         _______ _______ _______ _____ _____    ______ ____
ROOT
ATOM      1  N   UNL     1       6.583   7.204  16.797  0.00  0.00    +0.000 NA
ATOM      2  C   UNL     1       7.247   6.988  17.857  0.00  0.00    +0.000 C 
ATOM      3  N   UNL     1       8.250   7.791  18.337  0.00  0.00    +0.000 N 
ATOM      4  H   UNL     1       6.952   8.042  16.337  0.00  0.00    +0.000 HD
ATOM      5  H   UNL     1       8.920   7.380  18.982  0.00  0.00    +0.000 HD
ENDROOT
BRANCH   3   6
ATOM      6  C   UNL     1       8.346   9.223  18.084  0.00  0.00    +0.000 C 
BRANCH   6   7
ATOM      7  C   UNL     1       9.154   9.966  19.145  0.00  0.00    +0.000 C 
BRANCH   7   8
ATOM      8  C   UNL     1       9.648  11.327  18.688  0.00  0.00    +0.000 A 
ATOM      9  C   UNL     1       9.139  12.500  19.267  0.00  0.00    +0.000 A 
ATOM     10  C   UNL     1       9.595  13.755  18.853  0.00  0.00    +0.000 A 
ATOM     11  C   UNL     1      10.558  13.850  17.851  0.00  0.00    +0.000 A 
ATOM     12 CL   UNL     1      11.123  15.395  17.348  0.00  0.00    +0.000 Cl
ATOM     13  C   UNL     1      11.067  12.696  17.258  0.00  0.00    +0.000 A 
ATOM     14  C   UNL     1      10.615  11.440  17.676  0.00  0.00    +0.000 A 
ENDBRANCH   7   8
ENDBRANCH   6   7
ENDBRANCH   3   6
BRANCH   2  15
ATOM     15  S   UNL     1       6.818   5.600  18.826  0.00  0.00    +0.000 S 
BRANCH  15  16
ATOM     16  C   UNL     1       5.317   4.943  17.978  0.00  0.00    +0.000 C 
BRANCH  16  17
ATOM     17  C   UNL     1       4.102   5.301  18.849  0.00  0.00    +0.000 C 
BRANCH  17  18
ATOM     18  C   UNL     1       2.769   5.226  18.096  0.00  0.00    +0.000 C 
BRANCH  18  19
ATOM     19  C   UNL     1       1.839   4.247  18.738  0.00  0.00    +0.000 A 
ATOM     20  C   UNL     1       1.358   4.231  20.031  0.00  0.00    +0.000 A 
ATOM     21  N   UNL     1       0.605   3.093  20.123  0.00  0.00    +0.000 N 
ATOM     22  C   UNL     1       0.636   2.480  18.903  0.00  0.00    +0.000 A 
ATOM     23  N   UNL     1       1.371   3.154  18.047  0.00  0.00    +0.000 NA
ATOM     24  H   UNL     1       0.125   2.755  20.946  0.00  0.00    +0.000 HD
ENDBRANCH  18  19
ENDBRANCH  17  18
ENDBRANCH  16  17
ENDBRANCH  15  16
ENDBRANCH   2  15
TORSDOF 8
ENDMDL
MODEL 2
REMARK VINA RESULT:      -6.8      5.951      7.022
REMARK  Name = 
REMARK  8 active torsions:
REMARK  status: ('A' for Active; 'I' for Inactive)
REMARK    1  A    between atoms: C_2  and  S_13
REMARK    2  A    between atoms: N_3  and  C_4
REMARK    3  A    between atoms: C_4  and  C_5
REMARK    4  A    between atoms: C_5  and  C_6
REMARK    5  A    between atoms: S_13  and  C_14
REMARK    6  A    between atoms: C_14  and  C_15
REMARK    7  A    between atoms: C_15  and  C_16
REMARK    8  A    between atoms: C_16  and  C_17
REMARK                            x       y       z     vdW  Elec       q    Type
REMARK                         _______ _______ _______ _____ _____    ______ ____
ROOT
ATOM      1  N   UNL     1       3.677   5.663  19.926  0.00  0.00    +0.000 NA
ATOM      2  C   UNL     1       4.020   5.635  18.704  0.00  0.00    +0.000 C 
ATOM      3  N   UNL     1       3.674   6.572  17.765  0.00  0.00    +0.000 N 
ATOM      4  H   UNL     1       3.061   6.467  20.081  0.00  0.00    +0.000 HD
ATOM      5  H   UNL     1       3.712   6.302  16.786  0.00  0.00    +0.000 HD
ENDROOT
BRANCH   3   6
ATOM      6  C   UNL     1       3.375   7.966  18.070  0.00  0.00    +0.000 C 
BRANCH   6   7
ATOM      7  C   UNL     1       1.894   8.307  17.922  0.00  0.00    +0.000 C 
BRANCH   7   8
ATOM      8  C   UNL     1       1.264   8.834  19.199  0.00  0.00    +0.000 A 
ATOM      9  C   UNL     1       0.379   9.922  19.160  0.00  0.00    +0.000 A 
ATOM     10  C   UNL     1      -0.208  10.407  20.333  0.00  0.00    +0.000 A 
ATOM     11  C   UNL     1       0.089   9.812  21.557  0.00  0.00    +0.000 A 
ATOM     12 CL   UNL     1      -0.639  10.405  22.998  0.00  0.00    +0.000 Cl
ATOM     13  C   UNL     1       0.973   8.737  21.616  0.00  0.00    +0.000 A 
ATOM     14  C   UNL     1       1.556   8.249  20.442  0.00  0.00    +0.000 A 
ENDBRANCH   7   8
ENDBRANCH   6   7
ENDBRANCH   3   6
BRANCH   2  15
ATOM     15  S   UNL     1       5.071   4.343  18.176  0.00  0.00    +0.000 S 
BRANCH  15  16
ATOM     16  C   UNL     1       4.222   3.699  16.671  0.00  0.00    +0.000 C 
BRANCH  16  17
ATOM     17  C   UNL     1       2.911   3.038  17.129  0.00  0.00    +0.000 C 
BRANCH  17  18
ATOM     18  C   UNL     1       3.100   2.039  18.276  0.00  0.00    +0.000 C 
BRANCH  18  19
ATOM     19  C   UNL     1       2.284   2.422  19.469  0.00  0.00    +0.000 A 
ATOM     20  C   UNL     1       0.931   2.681  19.543  0.00  0.00    +0.000 A 
ATOM     21  N   UNL     1       0.704   3.052  20.840  0.00  0.00    +0.000 N 
ATOM     22  C   UNL     1       1.898   2.988  21.501  0.00  0.00    +0.000 A 
ATOM     23  N   UNL     1       2.869   2.609  20.699  0.00  0.00    +0.000 NA
ATOM     24  H   UNL     1      -0.179   3.338  21.238  0.00  0.00    +0.000 HD
ENDBRANCH  18  19
ENDBRANCH  17  18
ENDBRANCH  16  17
ENDBRANCH  15  16
ENDBRANCH   2  15
TORSDOF 8
ENDMDL
MODEL 3
REMARK VINA RESULT:      -6.7      1.759      2.297
REMARK  Name = 
REMARK  8 active torsions:
REMARK  status: ('A' for Active; 'I' for Inactive)
REMARK    1  A    between atoms: C_2  and  S_13
REMARK    2  A    between atoms: N_3  and  C_4
REMARK    3  A    between atoms: C_4  and  C_5
REMARK    4  A    between atoms: C_5  and  C_6
REMARK    5  A    between atoms: S_13  and  C_14
REMARK    6  A    between atoms: C_14  and  C_15
REMARK    7  A    between atoms: C_15  and  C_16
REMARK    8  A    between atoms: C_16  and  C_17
REMARK                            x       y       z     vdW  Elec       q    Type
REMARK                         _______ _______ _______ _____ _____    ______ ____
ROOT
ATOM      1  N   UNL     1       7.442   5.204  19.333  0.00  0.00    +0.000 NA
ATOM      2  C   UNL     1       6.937   5.708  18.283  0.00  0.00    +0.000 C 
ATOM      3  N   UNL     1       7.053   7.021  17.902  0.00  0.00    +0.000 N 
ATOM      4  H   UNL     1       7.902   5.946  19.870  0.00  0.00    +0.000 HD
ATOM      5  H   UNL     1       6.366   7.389  17.251  0.00  0.00    +0.000 HD
ENDROOT
BRANCH   3   6
ATOM      6  C   UNL     1       8.167   7.885  18.271  0.00  0.00    +0.000 C 
BRANCH   6   7
ATOM      7  C   UNL     1       8.148   9.229  17.546  0.00  0.00    +0.000 C 
BRANCH   7   8
ATOM      8  C   UNL     1       8.787  10.355  18.340  0.00  0.00    +0.000 A 
ATOM      9  C   UNL     1       9.326  10.110  19.612  0.00  0.00    +0.000 A 
ATOM     10  C   UNL     1       9.921  11.143  20.344  0.00  0.00    +0.000 A 
ATOM     11  C   UNL     1       9.976  12.430  19.814  0.00  0.00    +0.000 A 
ATOM     12 CL   UNL     1      10.714  13.697  20.713  0.00  0.00    +0.000 Cl
ATOM     13  C   UNL     1       9.436  12.692  18.556  0.00  0.00    +0.000 A 
ATOM     14  C   UNL     1       8.846  11.659  17.822  0.00  0.00    +0.000 A 
ENDBRANCH   7   8
ENDBRANCH   6   7
ENDBRANCH   3   6
BRANCH   2  15
ATOM     15  S   UNL     1       6.080   4.645  17.192  0.00  0.00    +0.000 S 
BRANCH  15  16
ATOM     16  C   UNL     1       4.436   4.448  18.004  0.00  0.00    +0.000 C 
BRANCH  16  17
ATOM     17  C   UNL     1       3.779   3.189  17.413  0.00  0.00    +0.000 C 
BRANCH  17  18
ATOM     18  C   UNL     1       3.516   2.093  18.453  0.00  0.00    +0.000 C 
BRANCH  18  19
ATOM     19  C   UNL     1       2.396   2.473  19.368  0.00  0.00    +0.000 A 
ATOM     20  C   UNL     1       1.090   2.784  19.052  0.00  0.00    +0.000 A 
ATOM     21  N   UNL     1       0.502   3.124  20.239  0.00  0.00    +0.000 N 
ATOM     22  C   UNL     1       1.445   2.991  21.218  0.00  0.00    +0.000 A 
ATOM     23  N   UNL     1       2.598   2.597  20.723  0.00  0.00    +0.000 NA
ATOM     24  H   UNL     1      -0.451   3.434  20.372  0.00  0.00    +0.000 HD
ENDBRANCH  18  19
ENDBRANCH  17  18
ENDBRANCH  16  17
ENDBRANCH  15  16
ENDBRANCH   2  15
TORSDOF 8
ENDMDL
MODEL 4
REMARK VINA RESULT:      -6.6      1.482      1.801
REMARK  Name = 
REMARK  8 active torsions:
REMARK  status: ('A' for Active; 'I' for Inactive)
REMARK    1  A    between atoms: C_2  and  S_13
REMARK    2  A    between atoms: N_3  and  C_4
REMARK    3  A    between atoms: C_4  and  C_5
REMARK    4  A    between atoms: C_5  and  C_6
REMARK    5  A    between atoms: S_13  and  C_14
REMARK    6  A    between atoms: C_14  and  C_15
REMARK    7  A    between atoms: C_15  and  C_16
REMARK    8  A    between atoms: C_16  and  C_17
REMARK                            x       y       z     vdW  Elec       q    Type
REMARK                         _______ _______ _______ _____ _____    ______ ____
ROOT
ATOM      1  N   UNL     1       5.539   6.868  16.202  0.00  0.00    +0.000 NA
ATOM      2  C   UNL     1       6.585   6.339  16.690  0.00  0.00    +0.000 C 
ATOM      3  N   UNL     1       7.692   7.027  17.118  0.00  0.00    +0.000 N 
ATOM      4  H   UNL     1       5.678   7.881  16.135  0.00  0.00    +0.000 HD
ATOM      5  H   UNL     1       8.572   6.522  17.179  0.00  0.00    +0.000 HD
ENDROOT
BRANCH   3   6
ATOM      6  C   UNL     1       7.663   8.398  17.612  0.00  0.00    +0.000 C 
BRANCH   6   7
ATOM      7  C   UNL     1       8.745   8.682  18.653  0.00  0.00    +0.000 C 
BRANCH   7   8
ATOM      8  C   UNL     1       9.019  10.162  18.853  0.00  0.00    +0.000 A 
ATOM      9  C   UNL     1       9.523  10.633  20.075  0.00  0.00    +0.000 A 
ATOM     10  C   UNL     1       9.783  11.995  20.262  0.00  0.00    +0.000 A 
ATOM     11  C   UNL     1       9.534  12.898  19.231  0.00  0.00    +0.000 A 
ATOM     12 CL   UNL     1       9.860  14.571  19.460  0.00  0.00    +0.000 Cl
ATOM     13  C   UNL     1       9.024  12.449  18.014  0.00  0.00    +0.000 A 
ATOM     14  C   UNL     1       8.769  11.087  17.826  0.00  0.00    +0.000 A 
ENDBRANCH   7   8
ENDBRANCH   6   7
ENDBRANCH   3   6
BRANCH   2  15
ATOM     15  S   UNL     1       6.607   4.605  16.899  0.00  0.00    +0.000 S 
BRANCH  15  16
ATOM     16  C   UNL     1       5.713   4.363  18.495  0.00  0.00    +0.000 C 
BRANCH  16  17
ATOM     17  C   UNL     1       4.224   4.167  18.163  0.00  0.00    +0.000 C 
BRANCH  17  18
ATOM     18  C   UNL     1       3.287   4.978  19.064  0.00  0.00    +0.000 C 
BRANCH  18  19
ATOM     19  C   UNL     1       2.299   4.093  19.755  0.00  0.00    +0.000 A 
ATOM     20  C   UNL     1       1.087   3.624  19.293  0.00  0.00    +0.000 A 
ATOM     21  N   UNL     1       0.551   2.917  20.334  0.00  0.00    +0.000 N 
ATOM     22  C   UNL     1       1.446   2.962  21.365  0.00  0.00    +0.000 A 
ATOM     23  N   UNL     1       2.512   3.663  21.044  0.00  0.00    +0.000 NA
ATOM     24  H   UNL     1      -0.348   2.458  20.349  0.00  0.00    +0.000 HD
ENDBRANCH  18  19
ENDBRANCH  17  18
ENDBRANCH  16  17
ENDBRANCH  15  16
ENDBRANCH   2  15
TORSDOF 8
ENDMDL
MODEL 5
REMARK VINA RESULT:      -6.6      6.576      8.281
REMARK  Name = 
REMARK  8 active torsions:
REMARK  status: ('A' for Active; 'I' for Inactive)
REMARK    1  A    between atoms: C_2  and  S_13
REMARK    2  A    between atoms: N_3  and  C_4
REMARK    3  A    between atoms: C_4  and  C_5
REMARK    4  A    between atoms: C_5  and  C_6
REMARK    5  A    between atoms: S_13  and  C_14
REMARK    6  A    between atoms: C_14  and  C_15
REMARK    7  A    between atoms: C_15  and  C_16
REMARK    8  A    between atoms: C_16  and  C_17
REMARK                            x       y       z     vdW  Elec       q    Type
REMARK                         _______ _______ _______ _____ _____    ______ ____
ROOT
ATOM      1  N   UNL     1       2.481   6.367  19.465  0.00  0.00    +0.000 NA
ATOM      2  C   UNL     1       2.742   7.144  18.495  0.00  0.00    +0.000 C 
ATOM      3  N   UNL     1       2.022   8.263  18.165  0.00  0.00    +0.000 N 
ATOM      4  H   UNL     1       1.622   6.685  19.924  0.00  0.00    +0.000 HD
ATOM      5  H   UNL     1       2.103   8.618  17.215  0.00  0.00    +0.000 HD
ENDROOT
BRANCH   3   6
ATOM      6  C   UNL     1       1.249   9.051  19.117  0.00  0.00    +0.000 C 
BRANCH   6   7
ATOM      7  C   UNL     1       0.878  10.434  18.587  0.00  0.00    +0.000 C 
BRANCH   7   8
ATOM      8  C   UNL     1      -0.612  10.614  18.354  0.00  0.00    +0.000 A 
ATOM      9  C   UNL     1      -1.322  11.617  19.031  0.00  0.00    +0.000 A 
ATOM     10  C   UNL     1      -2.693  11.789  18.815  0.00  0.00    +0.000 A 
ATOM     11  C   UNL     1      -3.367  10.957  17.925  0.00  0.00    +0.000 A 
ATOM     12 CL   UNL     1      -5.052  11.175  17.655  0.00  0.00    +0.000 Cl
ATOM     13  C   UNL     1      -2.679   9.949  17.251  0.00  0.00    +0.000 A 
ATOM     14  C   UNL     1      -1.308   9.780  17.464  0.00  0.00    +0.000 A 
ENDBRANCH   7   8
ENDBRANCH   6   7
ENDBRANCH   3   6
BRANCH   2  15
ATOM     15  S   UNL     1       4.164   6.810  17.536  0.00  0.00    +0.000 S 
BRANCH  15  16
ATOM     16  C   UNL     1       5.018   5.488  18.498  0.00  0.00    +0.000 C 
BRANCH  16  17
ATOM     17  C   UNL     1       5.152   4.263  17.577  0.00  0.00    +0.000 C 
BRANCH  17  18
ATOM     18  C   UNL     1       3.873   3.945  16.795  0.00  0.00    +0.000 C 
BRANCH  18  19
ATOM     19  C   UNL     1       2.915   3.150  17.623  0.00  0.00    +0.000 A 
ATOM     20  C   UNL     1       3.091   1.907  18.195  0.00  0.00    +0.000 A 
ATOM     21  N   UNL     1       1.894   1.607  18.784  0.00  0.00    +0.000 N 
ATOM     22  C   UNL     1       1.055   2.664  18.573  0.00  0.00    +0.000 A 
ATOM     23  N   UNL     1       1.644   3.612  17.877  0.00  0.00    +0.000 NA
ATOM     24  H   UNL     1       1.661   0.753  19.272  0.00  0.00    +0.000 HD
ENDBRANCH  18  19
ENDBRANCH  17  18
ENDBRANCH  16  17
ENDBRANCH  15  16
ENDBRANCH   2  15
TORSDOF 8
ENDMDL
MODEL 6
REMARK VINA RESULT:      -6.6      5.083      6.313
REMARK  Name = 
REMARK  8 active torsions:
REMARK  status: ('A' for Active; 'I' for Inactive)
REMARK    1  A    between atoms: C_2  and  S_13
REMARK    2  A    between atoms: N_3  and  C_4
REMARK    3  A    between atoms: C_4  and  C_5
REMARK    4  A    between atoms: C_5  and  C_6
REMARK    5  A    between atoms: S_13  and  C_14
REMARK    6  A    between atoms: C_14  and  C_15
REMARK    7  A    between atoms: C_15  and  C_16
REMARK    8  A    between atoms: C_16  and  C_17
REMARK                            x       y       z     vdW  Elec       q    Type
REMARK                         _______ _______ _______ _____ _____    ______ ____
ROOT
ATOM      1  N   UNL     1       5.334   3.652  18.939  0.00  0.00    +0.000 NA
ATOM      2  C   UNL     1       5.135   4.853  19.300  0.00  0.00    +0.000 C 
ATOM      3  N   UNL     1       6.117   5.752  19.628  0.00  0.00    +0.000 N 
ATOM      4  H   UNL     1       6.339   3.453  18.983  0.00  0.00    +0.000 HD
ATOM      5  H   UNL     1       5.859   6.550  20.202  0.00  0.00    +0.000 HD
ENDROOT
BRANCH   3   6
ATOM      6  C   UNL     1       7.478   5.706  19.106  0.00  0.00    +0.000 C 
BRANCH   6   7
ATOM      7  C   UNL     1       7.644   6.479  17.800  0.00  0.00    +0.000 C 
BRANCH   7   8
ATOM      8  C   UNL     1       6.967   5.815  16.614  0.00  0.00    +0.000 A 
ATOM      9  C   UNL     1       7.463   4.609  16.096  0.00  0.00    +0.000 A 
ATOM     10  C   UNL     1       6.840   3.992  15.006  0.00  0.00    +0.000 A 
ATOM     11  C   UNL     1       5.720   4.577  14.422  0.00  0.00    +0.000 A 
ATOM     12 CL   UNL     1       4.950   3.813  13.087  0.00  0.00    +0.000 Cl
ATOM     13  C   UNL     1       5.220   5.780  14.917  0.00  0.00    +0.000 A 
ATOM     14  C   UNL     1       5.840   6.395  16.010  0.00  0.00    +0.000 A 
ENDBRANCH   7   8
ENDBRANCH   6   7
ENDBRANCH   3   6
BRANCH   2  15
ATOM     15  S   UNL     1       3.490   5.442  19.321  0.00  0.00    +0.000 S 
BRANCH  15  16
ATOM     16  C   UNL     1       2.745   4.554  20.756  0.00  0.00    +0.000 C 
BRANCH  16  17
ATOM     17  C   UNL     1       1.218   4.584  20.573  0.00  0.00    +0.000 C 
BRANCH  17  18
ATOM     18  C   UNL     1       0.638   3.258  20.068  0.00  0.00    +0.000 C 
BRANCH  18  19
ATOM     19  C   UNL     1       1.585   2.573  19.136  0.00  0.00    +0.000 A 
ATOM     20  C   UNL     1       2.514   1.592  19.414  0.00  0.00    +0.000 A 
ATOM     21  N   UNL     1       3.164   1.363  18.232  0.00  0.00    +0.000 N 
ATOM     22  C   UNL     1       2.605   2.181  17.292  0.00  0.00    +0.000 A 
ATOM     23  N   UNL     1       1.649   2.921  17.807  0.00  0.00    +0.000 NA
ATOM     24  H   UNL     1       3.928   0.720  18.081  0.00  0.00    +0.000 HD
ENDBRANCH  18  19
ENDBRANCH  17  18
ENDBRANCH  16  17
ENDBRANCH  15  16
ENDBRANCH   2  15
TORSDOF 8
ENDMDL
MODEL 7
REMARK VINA RESULT:      -6.6      5.909      7.011
REMARK  Name = 
REMARK  8 active torsions:
REMARK  status: ('A' for Active; 'I' for Inactive)
REMARK    1  A    between atoms: C_2  and  S_13
REMARK    2  A    between atoms: N_3  and  C_4
REMARK    3  A    between atoms: C_4  and  C_5
REMARK    4  A    between atoms: C_5  and  C_6
REMARK    5  A    between atoms: S_13  and  C_14
REMARK    6  A    between atoms: C_14  and  C_15
REMARK    7  A    between atoms: C_15  and  C_16
REMARK    8  A    between atoms: C_16  and  C_17
REMARK                            x       y       z     vdW  Elec       q    Type
REMARK                         _______ _______ _______ _____ _____    ______ ____
ROOT
ATOM      1  N   UNL     1       3.795   5.799  19.796  0.00  0.00    +0.000 NA
ATOM      2  C   UNL     1       4.170   5.855  18.584  0.00  0.00    +0.000 C 
ATOM      3  N   UNL     1       3.753   6.790  17.671  0.00  0.00    +0.000 N 
ATOM      4  H   UNL     1       3.097   6.531  19.963  0.00  0.00    +0.000 HD
ATOM      5  H   UNL     1       3.844   6.564  16.684  0.00  0.00    +0.000 HD
ENDROOT
BRANCH   3   6
ATOM      6  C   UNL     1       3.308   8.134  18.019  0.00  0.00    +0.000 C 
BRANCH   6   7
ATOM      7  C   UNL     1       1.794   8.307  17.917  0.00  0.00    +0.000 C 
BRANCH   7   8
ATOM      8  C   UNL     1       1.166   8.893  19.169  0.00  0.00    +0.000 A 
ATOM      9  C   UNL     1       1.469   8.362  20.432  0.00  0.00    +0.000 A 
ATOM     10  C   UNL     1       0.896   8.902  21.589  0.00  0.00    +0.000 A 
ATOM     11  C   UNL     1       0.012   9.973  21.492  0.00  0.00    +0.000 A 
ATOM     12 CL   UNL     1      -0.685  10.641  22.916  0.00  0.00    +0.000 Cl
ATOM     13  C   UNL     1      -0.307  10.507  20.245  0.00  0.00    +0.000 A 
ATOM     14  C   UNL     1       0.269   9.971  19.089  0.00  0.00    +0.000 A 
ENDBRANCH   7   8
ENDBRANCH   6   7
ENDBRANCH   3   6
BRANCH   2  15
ATOM     15  S   UNL     1       5.360   4.697  18.038  0.00  0.00    +0.000 S 
BRANCH  15  16
ATOM     16  C   UNL     1       4.424   3.677  16.819  0.00  0.00    +0.000 C 
BRANCH  16  17
ATOM     17  C   UNL     1       3.758   2.528  17.594  0.00  0.00    +0.000 C 
BRANCH  17  18
ATOM     18  C   UNL     1       2.263   2.750  17.849  0.00  0.00    +0.000 C 
BRANCH  18  19
ATOM     19  C   UNL     1       1.961   2.768  19.313  0.00  0.00    +0.000 A 
ATOM     20  C   UNL     1       0.736   2.854  19.942  0.00  0.00    +0.000 A 
ATOM     21  N   UNL     1       1.018   2.902  21.279  0.00  0.00    +0.000 N 
ATOM     22  C   UNL     1       2.375   2.825  21.416  0.00  0.00    +0.000 A 
ATOM     23  N   UNL     1       2.971   2.742  20.247  0.00  0.00    +0.000 NA
ATOM     24  H   UNL     1       0.350   2.995  22.032  0.00  0.00    +0.000 HD
ENDBRANCH  18  19
ENDBRANCH  17  18
ENDBRANCH  16  17
ENDBRANCH  15  16
ENDBRANCH   2  15
TORSDOF 8
ENDMDL
MODEL 8
REMARK VINA RESULT:      -6.5      1.507      1.799
REMARK  Name = 
REMARK  8 active torsions:
REMARK  status: ('A' for Active; 'I' for Inactive)
REMARK    1  A    between atoms: C_2  and  S_13
REMARK    2  A    between atoms: N_3  and  C_4
REMARK    3  A    between atoms: C_4  and  C_5
REMARK    4  A    between atoms: C_5  and  C_6
REMARK    5  A    between atoms: S_13  and  C_14
REMARK    6  A    between atoms: C_14  and  C_15
REMARK    7  A    between atoms: C_15  and  C_16
REMARK    8  A    between atoms: C_16  and  C_17
REMARK                            x       y       z     vdW  Elec       q    Type
REMARK                         _______ _______ _______ _____ _____    ______ ____
ROOT
ATOM      1  N   UNL     1       5.118   7.097  17.383  0.00  0.00    +0.000 NA
ATOM      2  C   UNL     1       6.251   6.524  17.377  0.00  0.00    +0.000 C 
ATOM      3  N   UNL     1       7.453   7.155  17.181  0.00  0.00    +0.000 N 
ATOM      4  H   UNL     1       5.246   8.091  17.168  0.00  0.00    +0.000 HD
ATOM      5  H   UNL     1       8.241   6.591  16.873  0.00  0.00    +0.000 HD
ENDROOT
BRANCH   3   6
ATOM      6  C   UNL     1       7.708   8.553  17.506  0.00  0.00    +0.000 C 
BRANCH   6   7
ATOM      7  C   UNL     1       8.640   8.729  18.703  0.00  0.00    +0.000 C 
BRANCH   7   8
ATOM      8  C   UNL     1       9.083  10.165  18.919  0.00  0.00    +0.000 A 
ATOM      9  C   UNL     1       9.587  10.574  20.164  0.00  0.00    +0.000 A 
ATOM     10  C   UNL     1      10.001  11.895  20.365  0.00  0.00    +0.000 A 
ATOM     11  C   UNL     1       9.910  12.819  19.328  0.00  0.00    +0.000 A 
ATOM     12 CL   UNL     1      10.427  14.440  19.575  0.00  0.00    +0.000 Cl
ATOM     13  C   UNL     1       9.404  12.432  18.088  0.00  0.00    +0.000 A 
ATOM     14  C   UNL     1       8.994  11.110  17.885  0.00  0.00    +0.000 A 
ENDBRANCH   7   8
ENDBRANCH   6   7
ENDBRANCH   3   6
BRANCH   2  15
ATOM     15  S   UNL     1       6.306   4.809  17.708  0.00  0.00    +0.000 S 
BRANCH  15  16
ATOM     16  C   UNL     1       4.897   4.146  16.720  0.00  0.00    +0.000 C 
BRANCH  16  17
ATOM     17  C   UNL     1       4.036   3.289  17.664  0.00  0.00    +0.000 C 
BRANCH  17  18
ATOM     18  C   UNL     1       4.147   3.704  19.135  0.00  0.00    +0.000 C 
BRANCH  18  19
ATOM     19  C   UNL     1       2.845   3.524  19.848  0.00  0.00    +0.000 A 
ATOM     20  C   UNL     1       2.580   2.806  20.996  0.00  0.00    +0.000 A 
ATOM     21  N   UNL     1       1.229   2.907  21.183  0.00  0.00    +0.000 N 
ATOM     22  C   UNL     1       0.732   3.684  20.175  0.00  0.00    +0.000 A 
ATOM     23  N   UNL     1       1.684   4.072  19.355  0.00  0.00    +0.000 NA
ATOM     24  H   UNL     1       0.689   2.475  21.920  0.00  0.00    +0.000 HD
ENDBRANCH  18  19
ENDBRANCH  17  18
ENDBRANCH  16  17
ENDBRANCH  15  16
ENDBRANCH   2  15
TORSDOF 8
ENDMDL
MODEL 9
REMARK VINA RESULT:      -6.5      4.757      7.774
REMARK  Name = 
REMARK  8 active torsions:
REMARK  status: ('A' for Active; 'I' for Inactive)
REMARK    1  A    between atoms: C_2  and  S_13
REMARK    2  A    between atoms: N_3  and  C_4
REMARK    3  A    between atoms: C_4  and  C_5
REMARK    4  A    between atoms: C_5  and  C_6
REMARK    5  A    between atoms: S_13  and  C_14
REMARK    6  A    between atoms: C_14  and  C_15
REMARK    7  A    between atoms: C_15  and  C_16
REMARK    8  A    between atoms: C_16  and  C_17
REMARK                            x       y       z     vdW  Elec       q    Type
REMARK                         _______ _______ _______ _____ _____    ______ ____
ROOT
ATOM      1  N   UNL     1       2.776   2.664  21.203  0.00  0.00    +0.000 NA
ATOM      2  C   UNL     1       2.404   2.984  20.032  0.00  0.00    +0.000 C 
ATOM      3  N   UNL     1       1.656   4.089  19.716  0.00  0.00    +0.000 N 
ATOM      4  H   UNL     1       2.384   3.334  21.872  0.00  0.00    +0.000 HD
ATOM      5  H   UNL     1       1.147   4.082  18.836  0.00  0.00    +0.000 HD
ENDROOT
BRANCH   3   6
ATOM      6  C   UNL     1       1.644   5.321  20.495  0.00  0.00    +0.000 C 
BRANCH   6   7
ATOM      7  C   UNL     1       2.640   6.360  19.987  0.00  0.00    +0.000 C 
BRANCH   7   8
ATOM      8  C   UNL     1       2.004   7.700  19.662  0.00  0.00    +0.000 A 
ATOM      9  C   UNL     1       2.115   8.246  18.374  0.00  0.00    +0.000 A 
ATOM     10  C   UNL     1       1.526   9.478  18.069  0.00  0.00    +0.000 A 
ATOM     11  C   UNL     1       0.826  10.177  19.050  0.00  0.00    +0.000 A 
ATOM     12 CL   UNL     1       0.097  11.687  18.671  0.00  0.00    +0.000 Cl
ATOM     13  C   UNL     1       0.715   9.654  20.337  0.00  0.00    +0.000 A 
ATOM     14  C   UNL     1       1.299   8.420  20.641  0.00  0.00    +0.000 A 
ENDBRANCH   7   8
ENDBRANCH   6   7
ENDBRANCH   3   6
BRANCH   2  15
ATOM     15  S   UNL     1       2.934   1.984  18.701  0.00  0.00    +0.000 S 
BRANCH  15  16
ATOM     16  C   UNL     1       2.957   3.158  17.278  0.00  0.00    +0.000 C 
BRANCH  16  17
ATOM     17  C   UNL     1       4.425   3.539  17.018  0.00  0.00    +0.000 C 
BRANCH  17  18
ATOM     18  C   UNL     1       5.107   4.194  18.224  0.00  0.00    +0.000 C 
BRANCH  18  19
ATOM     19  C   UNL     1       6.097   5.227  17.791  0.00  0.00    +0.000 A 
ATOM     20  C   UNL     1       6.413   5.639  16.513  0.00  0.00    +0.000 A 
ATOM     21  N   UNL     1       7.422   6.550  16.665  0.00  0.00    +0.000 N 
ATOM     22  C   UNL     1       7.666   6.673  18.003  0.00  0.00    +0.000 A 
ATOM     23  N   UNL     1       6.881   5.888  18.708  0.00  0.00    +0.000 NA
ATOM     24  H   UNL     1       7.913   7.033  15.925  0.00  0.00    +0.000 HD
ENDBRANCH  18  19
ENDBRANCH  17  18
ENDBRANCH  16  17
ENDBRANCH  15  16
ENDBRANCH   2  15
TORSDOF 8
ENDMDL
