MODEL 1
REMARK VINA RESULT:      -6.4      0.000      0.000
REMARK  Name = 
REMARK  8 active torsions:
REMARK  status: ('A' for Active; 'I' for Inactive)
REMARK    1  A    between atoms: C_1  and  C_2
REMARK    2  A    between atoms: C_2  and  N_3
REMARK    3  A    between atoms: C_2  and  C_4
REMARK    4  A    between atoms: C_2  and  C_13
REMARK    5  A    between atoms: C_4  and  C_5
REMARK    6  A    between atoms: C_8  and  O_9
REMARK    7  A    between atoms: C_10  and  O_11
REMARK    8  A    between atoms: C_13  and  O_15
REMARK                            x       y       z     vdW  Elec       q    Type
REMARK                         _______ _______ _______ _____ _____    ______ ____
ROOT
ATOM      1  C   UNL     1       5.045   5.715  18.147  0.00  0.00    +0.000 C 
ENDROOT
BRANCH   1   2
ATOM      2  C   UNL     1       3.934   4.693  18.179  0.00  0.00    +0.000 A 
ATOM      3  C   UNL     1       2.597   5.103  18.023  0.00  0.00    +0.000 A 
ATOM      4  C   UNL     1       1.553   4.172  18.024  0.00  0.00    +0.000 A 
ATOM      5  C   UNL     1       1.850   2.825  18.178  0.00  0.00    +0.000 A 
ATOM      6  C   UNL     1       3.170   2.411  18.335  0.00  0.00    +0.000 A 
ATOM      7  C   UNL     1       4.213   3.328  18.339  0.00  0.00    +0.000 A 
BRANCH   5   8
ATOM      8  O   UNL     1       0.875   1.867  18.176  0.00  0.00    +0.000 OA
ATOM      9  H   UNL     1       1.298   1.011  18.363  0.00  0.00    +0.000 HD
ENDBRANCH   5   8
BRANCH   6  10
ATOM     10  O   UNL     1       3.449   1.081  18.483  0.00  0.00    +0.000 OA
ATOM     11  H   UNL     1       4.291   0.958  18.000  0.00  0.00    +0.000 HD
ENDBRANCH   6  10
ENDBRANCH   1   2
BRANCH   1  13
ATOM     12  C   UNL     1       5.302   5.223  15.640  0.00  0.00    +0.000 C 
ATOM     13  C   UNL     1       5.993   5.689  16.922  0.00  0.00    +0.000 C 
BRANCH  13  14
ATOM     14  N   UNL     1       6.502   7.098  16.714  0.00  0.00    +0.000 NA
ATOM     15  H   UNL     1       5.762   7.750  16.987  0.00  0.00    +0.000 HD
ATOM     16  H   UNL     1       6.611   7.252  15.705  0.00  0.00    +0.000 HD
ENDBRANCH  13  14
BRANCH  13  17
ATOM     17  C   UNL     1       7.236   4.809  17.214  0.00  0.00    +0.000 C 
ATOM     18  O   UNL     1       7.617   4.431  18.309  0.00  0.00    +0.000 OA
BRANCH  17  19
ATOM     19  O   UNL     1       7.884   4.492  16.060  0.00  0.00    +0.000 OA
ATOM     20  H   UNL     1       8.849   4.482  16.288  0.00  0.00    +0.000 HD
ENDBRANCH  17  19
ENDBRANCH  13  17
ENDBRANCH   1  13
TORSDOF 7
ENDMDL
MODEL 2
REMARK VINA RESULT:      -6.4      1.432      1.829
REMARK  Name = 
REMARK  8 active torsions:
REMARK  status: ('A' for Active; 'I' for Inactive)
REMARK    1  A    between atoms: C_1  and  C_2
REMARK    2  A    between atoms: C_2  and  N_3
REMARK    3  A    between atoms: C_2  and  C_4
REMARK    4  A    between atoms: C_2  and  C_13
REMARK    5  A    between atoms: C_4  and  C_5
REMARK    6  A    between atoms: C_8  and  O_9
REMARK    7  A    between atoms: C_10  and  O_11
REMARK    8  A    between atoms: C_13  and  O_15
REMARK                            x       y       z     vdW  Elec       q    Type
REMARK                         _______ _______ _______ _____ _____    ______ ____
ROOT
ATOM      1  C   UNL     1       4.688   4.572  16.633  0.00  0.00    +0.000 C 
ENDROOT
BRANCH   1   2
ATOM      2  C   UNL     1       3.553   4.224  17.566  0.00  0.00    +0.000 A 
ATOM      3  C   UNL     1       2.846   5.245  18.225  0.00  0.00    +0.000 A 
ATOM      4  C   UNL     1       1.775   4.948  19.073  0.00  0.00    +0.000 A 
ATOM      5  C   UNL     1       1.409   3.623  19.260  0.00  0.00    +0.000 A 
ATOM      6  C   UNL     1       2.104   2.605  18.614  0.00  0.00    +0.000 A 
ATOM      7  C   UNL     1       3.172   2.890  17.772  0.00  0.00    +0.000 A 
BRANCH   5   8
ATOM      8  O   UNL     1       0.363   3.270  20.068  0.00  0.00    +0.000 OA
ATOM      9  H   UNL     1       0.394   2.305  20.191  0.00  0.00    +0.000 HD
ENDBRANCH   5   8
BRANCH   6  10
ATOM     10  O   UNL     1       1.733   1.304  18.804  0.00  0.00    +0.000 OA
ATOM     11  H   UNL     1       0.764   1.308  18.667  0.00  0.00    +0.000 HD
ENDBRANCH   6  10
ENDBRANCH   1   2
BRANCH   1  13
ATOM     12  C   UNL     1       5.928   6.587  17.632  0.00  0.00    +0.000 C 
ATOM     13  C   UNL     1       5.994   5.100  17.276  0.00  0.00    +0.000 C 
BRANCH  13  14
ATOM     14  N   UNL     1       6.229   4.309  18.543  0.00  0.00    +0.000 NA
ATOM     15  H   UNL     1       6.985   3.642  18.368  0.00  0.00    +0.000 HD
ATOM     16  H   UNL     1       5.406   3.717  18.707  0.00  0.00    +0.000 HD
ENDBRANCH  13  14
BRANCH  13  17
ATOM     17  C   UNL     1       7.208   4.823  16.351  0.00  0.00    +0.000 C 
ATOM     18  O   UNL     1       7.351   5.212  15.205  0.00  0.00    +0.000 OA
BRANCH  17  19
ATOM     19  O   UNL     1       8.138   4.062  16.991  0.00  0.00    +0.000 OA
ATOM     20  H   UNL     1       8.155   3.196  16.507  0.00  0.00    +0.000 HD
ENDBRANCH  17  19
ENDBRANCH  13  17
ENDBRANCH   1  13
TORSDOF 7
ENDMDL
MODEL 3
REMARK VINA RESULT:      -6.4      0.990      1.059
REMARK  Name = 
REMARK  8 active torsions:
REMARK  status: ('A' for Active; 'I' for Inactive)
REMARK    1  A    between atoms: C_1  and  C_2
REMARK    2  A    between atoms: C_2  and  N_3
REMARK    3  A    between atoms: C_2  and  C_4
REMARK    4  A    between atoms: C_2  and  C_13
REMARK    5  A    between atoms: C_4  and  C_5
REMARK    6  A    between atoms: C_8  and  O_9
REMARK    7  A    between atoms: C_10  and  O_11
REMARK    8  A    between atoms: C_13  and  O_15
REMARK                            x       y       z     vdW  Elec       q    Type
REMARK                         _______ _______ _______ _____ _____    ______ ____
ROOT
ATOM      1  C   UNL     1       4.663   5.770  17.387  0.00  0.00    +0.000 C 
ENDROOT
BRANCH   1   2
ATOM      2  C   UNL     1       3.752   4.620  17.740  0.00  0.00    +0.000 A 
ATOM      3  C   UNL     1       2.359   4.811  17.778  0.00  0.00    +0.000 A 
ATOM      4  C   UNL     1       1.494   3.755  18.078  0.00  0.00    +0.000 A 
ATOM      5  C   UNL     1       2.026   2.499  18.337  0.00  0.00    +0.000 A 
ATOM      6  C   UNL     1       3.403   2.301  18.304  0.00  0.00    +0.000 A 
ATOM      7  C   UNL     1       4.271   3.345  18.011  0.00  0.00    +0.000 A 
BRANCH   5   8
ATOM      8  O   UNL     1       1.231   1.425  18.625  0.00  0.00    +0.000 OA
ATOM      9  H   UNL     1       0.758   1.618  19.453  0.00  0.00    +0.000 HD
ENDBRANCH   5   8
BRANCH   6  10
ATOM     10  O   UNL     1       3.915   1.059  18.559  0.00  0.00    +0.000 OA
ATOM     11  H   UNL     1       3.240   0.633  19.125  0.00  0.00    +0.000 HD
ENDBRANCH   6  10
ENDBRANCH   1   2
BRANCH   1  13
ATOM     12  C   UNL     1       5.195   4.373  15.300  0.00  0.00    +0.000 C 
ATOM     13  C   UNL     1       5.549   5.609  16.128  0.00  0.00    +0.000 C 
BRANCH  13  14
ATOM     14  N   UNL     1       5.349   6.839  15.271  0.00  0.00    +0.000 NA
ATOM     15  H   UNL     1       4.542   6.678  14.663  0.00  0.00    +0.000 HD
ATOM     16  H   UNL     1       6.141   6.909  14.622  0.00  0.00    +0.000 HD
ENDBRANCH  13  14
BRANCH  13  17
ATOM     17  C   UNL     1       7.051   5.582  16.517  0.00  0.00    +0.000 C 
ATOM     18  O   UNL     1       7.709   4.597  16.802  0.00  0.00    +0.000 OA
BRANCH  17  19
ATOM     19  O   UNL     1       7.574   6.838  16.505  0.00  0.00    +0.000 OA
ATOM     20  H   UNL     1       7.023   7.353  15.860  0.00  0.00    +0.000 HD
ENDBRANCH  17  19
ENDBRANCH  13  17
ENDBRANCH   1  13
TORSDOF 7
ENDMDL
MODEL 4
REMARK VINA RESULT:      -6.3      2.420      4.956
REMARK  Name = 
REMARK  8 active torsions:
REMARK  status: ('A' for Active; 'I' for Inactive)
REMARK    1  A    between atoms: C_1  and  C_2
REMARK    2  A    between atoms: C_2  and  N_3
REMARK    3  A    between atoms: C_2  and  C_4
REMARK    4  A    between atoms: C_2  and  C_13
REMARK    5  A    between atoms: C_4  and  C_5
REMARK    6  A    between atoms: C_8  and  O_9
REMARK    7  A    between atoms: C_10  and  O_11
REMARK    8  A    between atoms: C_13  and  O_15
REMARK                            x       y       z     vdW  Elec       q    Type
REMARK                         _______ _______ _______ _____ _____    ______ ____
ROOT
ATOM      1  C   UNL     1       3.072   3.418  17.213  0.00  0.00    +0.000 C 
ENDROOT
BRANCH   1   2
ATOM      2  C   UNL     1       4.208   4.404  17.093  0.00  0.00    +0.000 A 
ATOM      3  C   UNL     1       3.989   5.766  17.368  0.00  0.00    +0.000 A 
ATOM      4  C   UNL     1       5.031   6.695  17.288  0.00  0.00    +0.000 A 
ATOM      5  C   UNL     1       6.300   6.256  16.934  0.00  0.00    +0.000 A 
ATOM      6  C   UNL     1       6.526   4.911  16.657  0.00  0.00    +0.000 A 
ATOM      7  C   UNL     1       5.496   3.982  16.731  0.00  0.00    +0.000 A 
BRANCH   5   8
ATOM      8  O   UNL     1       7.362   7.114  16.849  0.00  0.00    +0.000 OA
ATOM      9  H   UNL     1       7.464   7.370  15.916  0.00  0.00    +0.000 HD
ENDBRANCH   5   8
BRANCH   6  10
ATOM     10  O   UNL     1       7.780   4.492  16.311  0.00  0.00    +0.000 OA
ATOM     11  H   UNL     1       7.822   3.570  16.635  0.00  0.00    +0.000 HD
ENDBRANCH   6  10
ENDBRANCH   1   2
BRANCH   1  13
ATOM     12  C   UNL     1       2.351   3.870  19.636  0.00  0.00    +0.000 C 
ATOM     13  C   UNL     1       2.800   2.821  18.616  0.00  0.00    +0.000 C 
BRANCH  13  14
ATOM     14  N   UNL     1       1.704   1.790  18.466  0.00  0.00    +0.000 NA
ATOM     15  H   UNL     1       0.806   2.280  18.436  0.00  0.00    +0.000 HD
ATOM     16  H   UNL     1       1.661   1.242  19.333  0.00  0.00    +0.000 HD
ENDBRANCH  13  14
BRANCH  13  17
ATOM     17  C   UNL     1       4.049   2.065  19.139  0.00  0.00    +0.000 C 
ATOM     18  O   UNL     1       4.820   2.446  20.003  0.00  0.00    +0.000 OA
BRANCH  17  19
ATOM     19  O   UNL     1       4.196   0.874  18.496  0.00  0.00    +0.000 OA
ATOM     20  H   UNL     1       3.799   0.193  19.098  0.00  0.00    +0.000 HD
ENDBRANCH  17  19
ENDBRANCH  13  17
ENDBRANCH   1  13
TORSDOF 7
ENDMDL
MODEL 5
REMARK VINA RESULT:      -6.3      1.742      2.127
REMARK  Name = 
REMARK  8 active torsions:
REMARK  status: ('A' for Active; 'I' for Inactive)
REMARK    1  A    between atoms: C_1  and  C_2
REMARK    2  A    between atoms: C_2  and  N_3
REMARK    3  A    between atoms: C_2  and  C_4
REMARK    4  A    between atoms: C_2  and  C_13
REMARK    5  A    between atoms: C_4  and  C_5
REMARK    6  A    between atoms: C_8  and  O_9
REMARK    7  A    between atoms: C_10  and  O_11
REMARK    8  A    between atoms: C_13  and  O_15
REMARK                            x       y       z     vdW  Elec       q    Type
REMARK                         _______ _______ _______ _____ _____    ______ ____
ROOT
ATOM      1  C   UNL     1       4.692   5.489  17.442  0.00  0.00    +0.000 C 
ENDROOT
BRANCH   1   2
ATOM      2  C   UNL     1       3.568   4.876  18.241  0.00  0.00    +0.000 A 
ATOM      3  C   UNL     1       3.135   5.488  19.431  0.00  0.00    +0.000 A 
ATOM      4  C   UNL     1       2.079   4.953  20.175  0.00  0.00    +0.000 A 
ATOM      5  C   UNL     1       1.450   3.801  19.722  0.00  0.00    +0.000 A 
ATOM      6  C   UNL     1       1.872   3.188  18.546  0.00  0.00    +0.000 A 
ATOM      7  C   UNL     1       2.923   3.710  17.803  0.00  0.00    +0.000 A 
BRANCH   5   8
ATOM      8  O   UNL     1       0.405   3.237  20.399  0.00  0.00    +0.000 OA
ATOM      9  H   UNL     1       0.730   2.426  20.827  0.00  0.00    +0.000 HD
ENDBRANCH   5   8
BRANCH   6  10
ATOM     10  O   UNL     1       1.244   2.055  18.110  0.00  0.00    +0.000 OA
ATOM     11  H   UNL     1       1.962   1.396  18.035  0.00  0.00    +0.000 HD
ENDBRANCH   6  10
ENDBRANCH   1   2
BRANCH   1  13
ATOM     12  C   UNL     1       7.041   6.098  18.284  0.00  0.00    +0.000 C 
ATOM     13  C   UNL     1       6.127   4.994  17.747  0.00  0.00    +0.000 C 
BRANCH  13  14
ATOM     14  N   UNL     1       6.019   3.905  18.791  0.00  0.00    +0.000 NA
ATOM     15  H   UNL     1       5.638   3.068  18.342  0.00  0.00    +0.000 HD
ATOM     16  H   UNL     1       5.295   4.179  19.464  0.00  0.00    +0.000 HD
ENDBRANCH  13  14
BRANCH  13  17
ATOM     17  C   UNL     1       6.757   4.339  16.490  0.00  0.00    +0.000 C 
ATOM     18  O   UNL     1       7.833   4.617  15.989  0.00  0.00    +0.000 OA
BRANCH  17  19
ATOM     19  O   UNL     1       5.937   3.377  15.986  0.00  0.00    +0.000 OA
ATOM     20  H   UNL     1       6.483   2.548  15.956  0.00  0.00    +0.000 HD
ENDBRANCH  17  19
ENDBRANCH  13  17
ENDBRANCH   1  13
TORSDOF 7
ENDMDL
MODEL 6
REMARK VINA RESULT:      -6.3      1.089      1.286
REMARK  Name = 
REMARK  8 active torsions:
REMARK  status: ('A' for Active; 'I' for Inactive)
REMARK    1  A    between atoms: C_1  and  C_2
REMARK    2  A    between atoms: C_2  and  N_3
REMARK    3  A    between atoms: C_2  and  C_4
REMARK    4  A    between atoms: C_2  and  C_13
REMARK    5  A    between atoms: C_4  and  C_5
REMARK    6  A    between atoms: C_8  and  O_9
REMARK    7  A    between atoms: C_10  and  O_11
REMARK    8  A    between atoms: C_13  and  O_15
REMARK                            x       y       z     vdW  Elec       q    Type
REMARK                         _______ _______ _______ _____ _____    ______ ____
ROOT
ATOM      1  C   UNL     1       5.003   5.412  16.732  0.00  0.00    +0.000 C 
ENDROOT
BRANCH   1   2
ATOM      2  C   UNL     1       4.048   4.401  17.320  0.00  0.00    +0.000 A 
ATOM      3  C   UNL     1       2.750   4.794  17.693  0.00  0.00    +0.000 A 
ATOM      4  C   UNL     1       1.840   3.871  18.216  0.00  0.00    +0.000 A 
ATOM      5  C   UNL     1       2.230   2.547  18.362  0.00  0.00    +0.000 A 
ATOM      6  C   UNL     1       3.513   2.149  17.997  0.00  0.00    +0.000 A 
ATOM      7  C   UNL     1       4.426   3.060  17.481  0.00  0.00    +0.000 A 
BRANCH   5   8
ATOM      8  O   UNL     1       1.382   1.595  18.856  0.00  0.00    +0.000 OA
ATOM      9  H   UNL     1       1.290   0.899  18.183  0.00  0.00    +0.000 HD
ENDBRANCH   5   8
BRANCH   6  10
ATOM     10  O   UNL     1       3.885   0.842  18.144  0.00  0.00    +0.000 OA
ATOM     11  H   UNL     1       4.600   0.870  18.811  0.00  0.00    +0.000 HD
ENDBRANCH   6  10
ENDBRANCH   1   2
BRANCH   1  13
ATOM     12  C   UNL     1       6.786   7.135  17.402  0.00  0.00    +0.000 C 
ATOM     13  C   UNL     1       6.313   5.685  17.513  0.00  0.00    +0.000 C 
BRANCH  13  14
ATOM     14  N   UNL     1       6.046   5.372  18.969  0.00  0.00    +0.000 NA
ATOM     15  H   UNL     1       5.894   6.256  19.463  0.00  0.00    +0.000 HD
ATOM     16  H   UNL     1       6.911   5.002  19.379  0.00  0.00    +0.000 HD
ENDBRANCH  13  14
BRANCH  13  17
ATOM     17  C   UNL     1       7.434   4.717  17.053  0.00  0.00    +0.000 C 
ATOM     18  O   UNL     1       8.233   4.138  17.769  0.00  0.00    +0.000 OA
BRANCH  17  19
ATOM     19  O   UNL     1       7.426   4.580  15.698  0.00  0.00    +0.000 OA
ATOM     20  H   UNL     1       8.148   5.174  15.365  0.00  0.00    +0.000 HD
ENDBRANCH  17  19
ENDBRANCH  13  17
ENDBRANCH   1  13
TORSDOF 7
ENDMDL
MODEL 7
REMARK VINA RESULT:      -6.3      2.128      2.584
REMARK  Name = 
REMARK  8 active torsions:
REMARK  status: ('A' for Active; 'I' for Inactive)
REMARK    1  A    between atoms: C_1  and  C_2
REMARK    2  A    between atoms: C_2  and  N_3
REMARK    3  A    between atoms: C_2  and  C_4
REMARK    4  A    between atoms: C_2  and  C_13
REMARK    5  A    between atoms: C_4  and  C_5
REMARK    6  A    between atoms: C_8  and  O_9
REMARK    7  A    between atoms: C_10  and  O_11
REMARK    8  A    between atoms: C_13  and  O_15
REMARK                            x       y       z     vdW  Elec       q    Type
REMARK                         _______ _______ _______ _____ _____    ______ ____
ROOT
ATOM      1  C   UNL     1       4.657   5.505  16.935  0.00  0.00    +0.000 C 
ENDROOT
BRANCH   1   2
ATOM      2  C   UNL     1       3.544   5.027  17.836  0.00  0.00    +0.000 A 
ATOM      3  C   UNL     1       2.701   3.981  17.419  0.00  0.00    +0.000 A 
ATOM      4  C   UNL     1       1.680   3.504  18.247  0.00  0.00    +0.000 A 
ATOM      5  C   UNL     1       1.504   4.076  19.499  0.00  0.00    +0.000 A 
ATOM      6  C   UNL     1       2.332   5.113  19.920  0.00  0.00    +0.000 A 
ATOM      7  C   UNL     1       3.346   5.595  19.103  0.00  0.00    +0.000 A 
BRANCH   5   8
ATOM      8  O   UNL     1       0.531   3.646  20.358  0.00  0.00    +0.000 OA
ATOM      9  H   UNL     1       0.798   2.774  20.698  0.00  0.00    +0.000 HD
ENDBRANCH   5   8
BRANCH   6  10
ATOM     10  O   UNL     1       2.150   5.666  21.156  0.00  0.00    +0.000 OA
ATOM     11  H   UNL     1       2.891   6.297  21.248  0.00  0.00    +0.000 HD
ENDBRANCH   6  10
ENDBRANCH   1   2
BRANCH   1  13
ATOM     12  C   UNL     1       6.987   6.102  17.833  0.00  0.00    +0.000 C 
ATOM     13  C   UNL     1       6.088   5.008  17.255  0.00  0.00    +0.000 C 
BRANCH  13  14
ATOM     14  N   UNL     1       5.965   3.894  18.271  0.00  0.00    +0.000 NA
ATOM     15  H   UNL     1       5.090   4.026  18.786  0.00  0.00    +0.000 HD
ATOM     16  H   UNL     1       6.695   4.027  18.980  0.00  0.00    +0.000 HD
ENDBRANCH  13  14
BRANCH  13  17
ATOM     17  C   UNL     1       6.743   4.384  15.994  0.00  0.00    +0.000 C 
ATOM     18  O   UNL     1       7.658   4.858  15.342  0.00  0.00    +0.000 OA
BRANCH  17  19
ATOM     19  O   UNL     1       6.155   3.197  15.683  0.00  0.00    +0.000 OA
ATOM     20  H   UNL     1       5.572   2.975  16.455  0.00  0.00    +0.000 HD
ENDBRANCH  17  19
ENDBRANCH  13  17
ENDBRANCH   1  13
TORSDOF 7
ENDMDL
MODEL 8
REMARK VINA RESULT:      -6.2      2.379      5.425
REMARK  Name = 
REMARK  8 active torsions:
REMARK  status: ('A' for Active; 'I' for Inactive)
REMARK    1  A    between atoms: C_1  and  C_2
REMARK    2  A    between atoms: C_2  and  N_3
REMARK    3  A    between atoms: C_2  and  C_4
REMARK    4  A    between atoms: C_2  and  C_13
REMARK    5  A    between atoms: C_4  and  C_5
REMARK    6  A    between atoms: C_8  and  O_9
REMARK    7  A    between atoms: C_10  and  O_11
REMARK    8  A    between atoms: C_13  and  O_15
REMARK                            x       y       z     vdW  Elec       q    Type
REMARK                         _______ _______ _______ _____ _____    ______ ____
ROOT
ATOM      1  C   UNL     1       2.355   4.620  18.889  0.00  0.00    +0.000 C 
ENDROOT
BRANCH   1   2
ATOM      2  C   UNL     1       3.808   4.607  18.480  0.00  0.00    +0.000 A 
ATOM      3  C   UNL     1       4.172   4.185  17.188  0.00  0.00    +0.000 A 
ATOM      4  C   UNL     1       5.508   4.188  16.778  0.00  0.00    +0.000 A 
ATOM      5  C   UNL     1       6.485   4.620  17.665  0.00  0.00    +0.000 A 
ATOM      6  C   UNL     1       6.136   5.037  18.945  0.00  0.00    +0.000 A 
ATOM      7  C   UNL     1       4.810   5.034  19.362  0.00  0.00    +0.000 A 
BRANCH   5   8
ATOM      8  O   UNL     1       7.808   4.656  17.318  0.00  0.00    +0.000 OA
ATOM      9  H   UNL     1       8.330   4.690  18.139  0.00  0.00    +0.000 HD
ENDBRANCH   5   8
BRANCH   6  10
ATOM     10  O   UNL     1       7.106   5.462  19.808  0.00  0.00    +0.000 OA
ATOM     11  H   UNL     1       7.278   6.387  19.540  0.00  0.00    +0.000 HD
ENDBRANCH   6  10
ENDBRANCH   1   2
BRANCH   1  13
ATOM     12  C   UNL     1       2.879   2.870  20.693  0.00  0.00    +0.000 C 
ATOM     13  C   UNL     1       1.841   3.411  19.708  0.00  0.00    +0.000 C 
BRANCH  13  14
ATOM     14  N   UNL     1       0.629   3.872  20.486  0.00  0.00    +0.000 NA
ATOM     15  H   UNL     1      -0.087   3.144  20.425  0.00  0.00    +0.000 HD
ATOM     16  H   UNL     1       0.216   4.671  19.990  0.00  0.00    +0.000 HD
ENDBRANCH  13  14
BRANCH  13  17
ATOM     17  C   UNL     1       1.355   2.280  18.764  0.00  0.00    +0.000 C 
ATOM     18  O   UNL     1       0.223   2.127  18.337  0.00  0.00    +0.000 OA
BRANCH  17  19
ATOM     19  O   UNL     1       2.379   1.439  18.452  0.00  0.00    +0.000 OA
ATOM     20  H   UNL     1       1.967   0.688  17.951  0.00  0.00    +0.000 HD
ENDBRANCH  17  19
ENDBRANCH  13  17
ENDBRANCH   1  13
TORSDOF 7
ENDMDL
MODEL 9
REMARK VINA RESULT:      -6.2      1.684      1.909
REMARK  Name = 
REMARK  8 active torsions:
REMARK  status: ('A' for Active; 'I' for Inactive)
REMARK    1  A    between atoms: C_1  and  C_2
REMARK    2  A    between atoms: C_2  and  N_3
REMARK    3  A    between atoms: C_2  and  C_4
REMARK    4  A    between atoms: C_2  and  C_13
REMARK    5  A    between atoms: C_4  and  C_5
REMARK    6  A    between atoms: C_8  and  O_9
REMARK    7  A    between atoms: C_10  and  O_11
REMARK    8  A    between atoms: C_13  and  O_15
REMARK                            x       y       z     vdW  Elec       q    Type
REMARK                         _______ _______ _______ _____ _____    ______ ____
ROOT
ATOM      1  C   UNL     1       4.939   3.786  17.010  0.00  0.00    +0.000 C 
ENDROOT
BRANCH   1   2
ATOM      2  C   UNL     1       3.809   3.651  18.002  0.00  0.00    +0.000 A 
ATOM      3  C   UNL     1       2.501   4.011  17.632  0.00  0.00    +0.000 A 
ATOM      4  C   UNL     1       1.435   3.870  18.525  0.00  0.00    +0.000 A 
ATOM      5  C   UNL     1       1.679   3.363  19.794  0.00  0.00    +0.000 A 
ATOM      6  C   UNL     1       2.971   3.006  20.170  0.00  0.00    +0.000 A 
ATOM      7  C   UNL     1       4.037   3.146  19.290  0.00  0.00    +0.000 A 
BRANCH   5   8
ATOM      8  O   UNL     1       0.676   3.192  20.708  0.00  0.00    +0.000 OA
ATOM      9  H   UNL     1       1.088   3.035  21.576  0.00  0.00    +0.000 HD
ENDBRANCH   5   8
BRANCH   6  10
ATOM     10  O   UNL     1       3.199   2.506  21.421  0.00  0.00    +0.000 OA
ATOM     11  H   UNL     1       3.367   3.299  21.969  0.00  0.00    +0.000 HD
ENDBRANCH   6  10
ENDBRANCH   1   2
BRANCH   1  13
ATOM     12  C   UNL     1       4.986   6.270  16.360  0.00  0.00    +0.000 C 
ATOM     13  C   UNL     1       5.736   5.114  17.023  0.00  0.00    +0.000 C 
BRANCH  13  14
ATOM     14  N   UNL     1       5.997   5.471  18.469  0.00  0.00    +0.000 NA
ATOM     15  H   UNL     1       5.770   4.657  19.047  0.00  0.00    +0.000 HD
ATOM     16  H   UNL     1       5.309   6.178  18.752  0.00  0.00    +0.000 HD
ENDBRANCH  13  14
BRANCH  13  17
ATOM     17  C   UNL     1       7.125   4.923  16.358  0.00  0.00    +0.000 C 
ATOM     18  O   UNL     1       7.482   5.371  15.283  0.00  0.00    +0.000 OA
BRANCH  17  19
ATOM     19  O   UNL     1       7.935   4.163  17.145  0.00  0.00    +0.000 OA
ATOM     20  H   UNL     1       8.624   4.784  17.498  0.00  0.00    +0.000 HD
ENDBRANCH  17  19
ENDBRANCH  13  17
ENDBRANCH   1  13
TORSDOF 7
ENDMDL
