MODEL 1
REMARK VINA RESULT:      -9.2      0.000      0.000
REMARK  Name = 
REMARK  8 active torsions:
REMARK  status: ('A' for Active; 'I' for Inactive)
REMARK    1  A    between atoms: C_1  and  C_2
REMARK    2  A    between atoms: C_6  and  C_7
REMARK    3  A    between atoms: C_7  and  C_8
REMARK    4  A    between atoms: C_8  and  O_10
REMARK    5  A    between atoms: O_10  and  C_11
REMARK    6  A    between atoms: C_11  and  C_12
REMARK    7  A    between atoms: N_18  and  C_19
REMARK    8  A    between atoms: C_24  and  C_25
REMARK                            x       y       z     vdW  Elec       q    Type
REMARK                         _______ _______ _______ _____ _____    ______ ____
ROOT
ATOM      1  C   UNL     1       7.184   7.156  17.359  0.00  0.00    +0.000 A 
ATOM      2  N   UNL     1       7.540   6.469  16.272  0.00  0.00    +0.000 NA
ATOM      3  C   UNL     1       7.012   5.262  16.174  0.00  0.00    +0.000 A 
ATOM      4  N   UNL     1       7.344   4.504  15.071  0.00  0.00    +0.000 N 
ATOM      5  N   UNL     1       6.154   4.744  17.030  0.00  0.00    +0.000 NA
ATOM      6  C   UNL     1       5.852   5.492  18.089  0.00  0.00    +0.000 A 
ATOM      7  N   UNL     1       4.961   5.010  19.054  0.00  0.00    +0.000 N 
ATOM      8  N   UNL     1       6.366   6.697  18.311  0.00  0.00    +0.000 NA
ATOM      9  H   UNL     1       7.613   5.093  14.296  0.00  0.00    +0.000 HD
ATOM     10  H   UNL     1       6.635   3.803  14.900  0.00  0.00    +0.000 HD
ATOM     11  H   UNL     1       4.809   5.729  19.748  0.00  0.00    +0.000 HD
ENDROOT
BRANCH   7  12
ATOM     12  C   UNL     1       3.839   4.176  18.857  0.00  0.00    +0.000 A 
ATOM     13  C   UNL     1       3.921   2.786  19.053  0.00  0.00    +0.000 A 
ATOM     14  C   UNL     1       2.816   1.958  18.861  0.00  0.00    +0.000 A 
ATOM     15  C   UNL     1       1.600   2.507  18.475  0.00  0.00    +0.000 A 
ATOM     16  C   UNL     1       1.497   3.881  18.263  0.00  0.00    +0.000 A 
ATOM     17  C   UNL     1       2.610   4.725  18.437  0.00  0.00    +0.000 A 
ATOM     18  C   UNL     1       2.450   6.199  18.180  0.00  0.00    +0.000 C 
ENDBRANCH   7  12
BRANCH   1  19
ATOM     19  C   UNL     1       7.783   8.534  17.548  0.00  0.00    +0.000 C 
BRANCH  19  20
ATOM     20  O   UNL     1       8.592   8.631  18.738  0.00  0.00    +0.000 OA
BRANCH  20  21
ATOM     21  C   UNL     1       8.988   9.895  19.055  0.00  0.00    +0.000 C 
ATOM     22  O   UNL     1       9.454  10.219  20.138  0.00  0.00    +0.000 OA
BRANCH  21  23
ATOM     23  C   UNL     1       8.820  10.822  17.878  0.00  0.00    +0.000 C 
BRANCH  23  29
ATOM     24  C   UNL     1       9.805  17.734  18.134  0.00  0.00    +0.000 C 
ATOM     25  C   UNL     1       9.682  16.241  18.049  0.00  0.00    +0.000 A 
ATOM     26  C   UNL     1       8.426  15.628  18.117  0.00  0.00    +0.000 A 
ATOM     27  C   UNL     1       8.287  14.232  18.052  0.00  0.00    +0.000 A 
ATOM     28  C   UNL     1       9.434  13.423  17.920  0.00  0.00    +0.000 A 
ATOM     29  C   UNL     1       9.720  12.018  17.846  0.00  0.00    +0.000 A 
ATOM     30  C   UNL     1      11.097  11.940  17.718  0.00  0.00    +0.000 A 
ATOM     31  O   UNL     1      11.669  13.166  17.717  0.00  0.00    +0.000 OA
ATOM     32  C   UNL     1      10.662  14.071  17.847  0.00  0.00    +0.000 A 
ATOM     33  C   UNL     1      10.836  15.455  17.903  0.00  0.00    +0.000 A 
ENDBRANCH  23  29
ENDBRANCH  21  23
ENDBRANCH  20  21
ENDBRANCH  19  20
ENDBRANCH   1  19
TORSDOF 6
ENDMDL
MODEL 2
REMARK VINA RESULT:      -9.1      1.096      1.547
REMARK  Name = 
REMARK  8 active torsions:
REMARK  status: ('A' for Active; 'I' for Inactive)
REMARK    1  A    between atoms: C_1  and  C_2
REMARK    2  A    between atoms: C_6  and  C_7
REMARK    3  A    between atoms: C_7  and  C_8
REMARK    4  A    between atoms: C_8  and  O_10
REMARK    5  A    between atoms: O_10  and  C_11
REMARK    6  A    between atoms: C_11  and  C_12
REMARK    7  A    between atoms: N_18  and  C_19
REMARK    8  A    between atoms: C_24  and  C_25
REMARK                            x       y       z     vdW  Elec       q    Type
REMARK                         _______ _______ _______ _____ _____    ______ ____
ROOT
ATOM      1  C   UNL     1       7.167   7.228  17.448  0.00  0.00    +0.000 A 
ATOM      2  N   UNL     1       7.543   6.570  16.349  0.00  0.00    +0.000 NA
ATOM      3  C   UNL     1       7.033   5.359  16.219  0.00  0.00    +0.000 A 
ATOM      4  N   UNL     1       7.386   4.631  15.102  0.00  0.00    +0.000 N 
ATOM      5  N   UNL     1       6.172   4.810  17.054  0.00  0.00    +0.000 NA
ATOM      6  C   UNL     1       5.849   5.530  18.126  0.00  0.00    +0.000 A 
ATOM      7  N   UNL     1       4.955   5.014  19.070  0.00  0.00    +0.000 N 
ATOM      8  N   UNL     1       6.345   6.737  18.380  0.00  0.00    +0.000 NA
ATOM      9  H   UNL     1       7.654   5.240  14.343  0.00  0.00    +0.000 HD
ATOM     10  H   UNL     1       6.689   3.924  14.908  0.00  0.00    +0.000 HD
ATOM     11  H   UNL     1       4.787   5.715  19.779  0.00  0.00    +0.000 HD
ENDROOT
BRANCH   7  12
ATOM     12  C   UNL     1       3.847   4.170  18.843  0.00  0.00    +0.000 A 
ATOM     13  C   UNL     1       3.961   2.774  18.955  0.00  0.00    +0.000 A 
ATOM     14  C   UNL     1       2.869   1.935  18.733  0.00  0.00    +0.000 A 
ATOM     15  C   UNL     1       1.636   2.480  18.400  0.00  0.00    +0.000 A 
ATOM     16  C   UNL     1       1.502   3.861  18.270  0.00  0.00    +0.000 A 
ATOM     17  C   UNL     1       2.600   4.717  18.476  0.00  0.00    +0.000 A 
ATOM     18  C   UNL     1       2.407   6.199  18.308  0.00  0.00    +0.000 C 
ENDBRANCH   7  12
BRANCH   1  19
ATOM     19  C   UNL     1       7.744   8.609  17.673  0.00  0.00    +0.000 C 
BRANCH  19  20
ATOM     20  O   UNL     1       8.718   8.638  18.736  0.00  0.00    +0.000 OA
BRANCH  20  21
ATOM     21  C   UNL     1       9.114   9.886  19.111  0.00  0.00    +0.000 C 
ATOM     22  O   UNL     1       9.141  10.281  20.269  0.00  0.00    +0.000 OA
BRANCH  21  23
ATOM     23  C   UNL     1       9.560  10.690  17.917  0.00  0.00    +0.000 C 
BRANCH  23  29
ATOM     24  C   UNL     1      12.306  16.866  19.689  0.00  0.00    +0.000 C 
ATOM     25  C   UNL     1      11.633  15.581  19.302  0.00  0.00    +0.000 A 
ATOM     26  C   UNL     1      12.297  14.359  19.454  0.00  0.00    +0.000 A 
ATOM     27  C   UNL     1      11.691  13.146  19.088  0.00  0.00    +0.000 A 
ATOM     28  C   UNL     1      10.389  13.152  18.550  0.00  0.00    +0.000 A 
ATOM     29  C   UNL     1       9.460  12.179  18.048  0.00  0.00    +0.000 A 
ATOM     30  C   UNL     1       8.344  12.909  17.675  0.00  0.00    +0.000 A 
ATOM     31  O   UNL     1       8.516  14.232  17.897  0.00  0.00    +0.000 OA
ATOM     32  C   UNL     1       9.760  14.386  18.423  0.00  0.00    +0.000 A 
ATOM     33  C   UNL     1      10.330  15.609  18.781  0.00  0.00    +0.000 A 
ENDBRANCH  23  29
ENDBRANCH  21  23
ENDBRANCH  20  21
ENDBRANCH  19  20
ENDBRANCH   1  19
TORSDOF 6
ENDMDL
MODEL 3
REMARK VINA RESULT:      -9.0      0.512      1.317
REMARK  Name = 
REMARK  8 active torsions:
REMARK  status: ('A' for Active; 'I' for Inactive)
REMARK    1  A    between atoms: C_1  and  C_2
REMARK    2  A    between atoms: C_6  and  C_7
REMARK    3  A    between atoms: C_7  and  C_8
REMARK    4  A    between atoms: C_8  and  O_10
REMARK    5  A    between atoms: O_10  and  C_11
REMARK    6  A    between atoms: C_11  and  C_12
REMARK    7  A    between atoms: N_18  and  C_19
REMARK    8  A    between atoms: C_24  and  C_25
REMARK                            x       y       z     vdW  Elec       q    Type
REMARK                         _______ _______ _______ _____ _____    ______ ____
ROOT
ATOM      1  C   UNL     1       7.113   6.947  17.245  0.00  0.00    +0.000 A 
ATOM      2  N   UNL     1       7.379   6.240  16.144  0.00  0.00    +0.000 NA
ATOM      3  C   UNL     1       6.762   5.075  16.063  0.00  0.00    +0.000 A 
ATOM      4  N   UNL     1       6.999   4.300  14.947  0.00  0.00    +0.000 N 
ATOM      5  N   UNL     1       5.899   4.616  16.948  0.00  0.00    +0.000 NA
ATOM      6  C   UNL     1       5.690   5.380  18.019  0.00  0.00    +0.000 A 
ATOM      7  N   UNL     1       4.802   4.958  19.014  0.00  0.00    +0.000 N 
ATOM      8  N   UNL     1       6.297   6.544  18.224  0.00  0.00    +0.000 NA
ATOM      9  H   UNL     1       7.281   4.872  14.164  0.00  0.00    +0.000 HD
ATOM     10  H   UNL     1       6.236   3.653  14.800  0.00  0.00    +0.000 HD
ATOM     11  H   UNL     1       4.727   5.683  19.714  0.00  0.00    +0.000 HD
ENDROOT
BRANCH   7  12
ATOM     12  C   UNL     1       3.616   4.208  18.856  0.00  0.00    +0.000 A 
ATOM     13  C   UNL     1       2.515   4.726  18.152  0.00  0.00    +0.000 A 
ATOM     14  C   UNL     1       1.343   3.990  17.992  0.00  0.00    +0.000 A 
ATOM     15  C   UNL     1       1.250   2.712  18.529  0.00  0.00    +0.000 A 
ATOM     16  C   UNL     1       2.324   2.182  19.242  0.00  0.00    +0.000 A 
ATOM     17  C   UNL     1       3.507   2.922  19.424  0.00  0.00    +0.000 A 
ATOM     18  C   UNL     1       4.632   2.311  20.215  0.00  0.00    +0.000 C 
ENDBRANCH   7  12
BRANCH   1  19
ATOM     19  C   UNL     1       7.815   8.277  17.415  0.00  0.00    +0.000 C 
BRANCH  19  20
ATOM     20  O   UNL     1       8.474   8.399  18.691  0.00  0.00    +0.000 OA
BRANCH  20  21
ATOM     21  C   UNL     1       8.913   9.654  18.988  0.00  0.00    +0.000 C 
ATOM     22  O   UNL     1       9.338   9.995  20.083  0.00  0.00    +0.000 OA
BRANCH  21  23
ATOM     23  C   UNL     1       8.849  10.546  17.774  0.00  0.00    +0.000 C 
BRANCH  23  29
ATOM     24  C   UNL     1       8.854  17.518  18.228  0.00  0.00    +0.000 C 
ATOM     25  C   UNL     1       8.945  16.024  18.113  0.00  0.00    +0.000 A 
ATOM     26  C   UNL     1       7.784  15.250  18.007  0.00  0.00    +0.000 A 
ATOM     27  C   UNL     1       7.844  13.850  17.910  0.00  0.00    +0.000 A 
ATOM     28  C   UNL     1       9.096  13.204  17.924  0.00  0.00    +0.000 A 
ATOM     29  C   UNL     1       9.576  11.851  17.874  0.00  0.00    +0.000 A 
ATOM     30  C   UNL     1      10.956  11.959  17.931  0.00  0.00    +0.000 A 
ATOM     31  O   UNL     1      11.353  13.249  18.019  0.00  0.00    +0.000 OA
ATOM     32  C   UNL     1      10.226  14.010  18.022  0.00  0.00    +0.000 A 
ATOM     33  C   UNL     1      10.203  15.402  18.115  0.00  0.00    +0.000 A 
ENDBRANCH  23  29
ENDBRANCH  21  23
ENDBRANCH  20  21
ENDBRANCH  19  20
ENDBRANCH   1  19
TORSDOF 6
ENDMDL
MODEL 4
REMARK VINA RESULT:      -9.0      1.649      1.686
REMARK  Name = 
REMARK  8 active torsions:
REMARK  status: ('A' for Active; 'I' for Inactive)
REMARK    1  A    between atoms: C_1  and  C_2
REMARK    2  A    between atoms: C_6  and  C_7
REMARK    3  A    between atoms: C_7  and  C_8
REMARK    4  A    between atoms: C_8  and  O_10
REMARK    5  A    between atoms: O_10  and  C_11
REMARK    6  A    between atoms: C_11  and  C_12
REMARK    7  A    between atoms: N_18  and  C_19
REMARK    8  A    between atoms: C_24  and  C_25
REMARK                            x       y       z     vdW  Elec       q    Type
REMARK                         _______ _______ _______ _____ _____    ______ ____
ROOT
ATOM      1  C   UNL     1       7.481   6.638  17.942  0.00  0.00    +0.000 A 
ATOM      2  N   UNL     1       7.440   6.513  16.614  0.00  0.00    +0.000 NA
ATOM      3  C   UNL     1       6.645   5.560  16.165  0.00  0.00    +0.000 A 
ATOM      4  N   UNL     1       6.561   5.383  14.800  0.00  0.00    +0.000 N 
ATOM      5  N   UNL     1       5.886   4.792  16.923  0.00  0.00    +0.000 NA
ATOM      6  C   UNL     1       5.986   4.978  18.237  0.00  0.00    +0.000 A 
ATOM      7  N   UNL     1       5.227   4.195  19.113  0.00  0.00    +0.000 N 
ATOM      8  N   UNL     1       6.794   5.874  18.795  0.00  0.00    +0.000 NA
ATOM      9  H   UNL     1       6.791   6.236  14.310  0.00  0.00    +0.000 HD
ATOM     10  H   UNL     1       5.693   4.926  14.556  0.00  0.00    +0.000 HD
ATOM     11  H   UNL     1       5.389   4.511  20.059  0.00  0.00    +0.000 HD
ENDROOT
BRANCH   7  12
ATOM     12  C   UNL     1       3.930   3.677  18.909  0.00  0.00    +0.000 A 
ATOM     13  C   UNL     1       3.733   2.352  18.483  0.00  0.00    +0.000 A 
ATOM     14  C   UNL     1       2.454   1.835  18.282  0.00  0.00    +0.000 A 
ATOM     15  C   UNL     1       1.342   2.635  18.510  0.00  0.00    +0.000 A 
ATOM     16  C   UNL     1       1.512   3.956  18.921  0.00  0.00    +0.000 A 
ATOM     17  C   UNL     1       2.798   4.494  19.111  0.00  0.00    +0.000 A 
ATOM     18  C   UNL     1       2.928   5.930  19.540  0.00  0.00    +0.000 C 
ENDBRANCH   7  12
BRANCH   1  19
ATOM     19  C   UNL     1       8.402   7.691  18.522  0.00  0.00    +0.000 C 
BRANCH  19  20
ATOM     20  O   UNL     1       8.224   8.984  17.909  0.00  0.00    +0.000 OA
BRANCH  20  21
ATOM     21  C   UNL     1       8.810  10.016  18.579  0.00  0.00    +0.000 C 
ATOM     22  O   UNL     1       9.430   9.894  19.626  0.00  0.00    +0.000 OA
BRANCH  21  23
ATOM     23  C   UNL     1       8.631  11.312  17.830  0.00  0.00    +0.000 C 
BRANCH  23  29
ATOM     24  C   UNL     1      10.736  16.058  22.505  0.00  0.00    +0.000 C 
ATOM     25  C   UNL     1      10.335  15.084  21.436  0.00  0.00    +0.000 A 
ATOM     26  C   UNL     1       9.277  14.194  21.650  0.00  0.00    +0.000 A 
ATOM     27  C   UNL     1       8.892  13.265  20.669  0.00  0.00    +0.000 A 
ATOM     28  C   UNL     1       9.584  13.219  19.443  0.00  0.00    +0.000 A 
ATOM     29  C   UNL     1       9.528  12.440  18.238  0.00  0.00    +0.000 A 
ATOM     30  C   UNL     1      10.529  12.955  17.432  0.00  0.00    +0.000 A 
ATOM     31  O   UNL     1      11.190  13.966  18.041  0.00  0.00    +0.000 OA
ATOM     32  C   UNL     1      10.623  14.126  19.266  0.00  0.00    +0.000 A 
ATOM     33  C   UNL     1      11.029  15.065  20.216  0.00  0.00    +0.000 A 
ENDBRANCH  23  29
ENDBRANCH  21  23
ENDBRANCH  20  21
ENDBRANCH  19  20
ENDBRANCH   1  19
TORSDOF 6
ENDMDL
MODEL 5
REMARK VINA RESULT:      -8.9      3.099     10.551
REMARK  Name = 
REMARK  8 active torsions:
REMARK  status: ('A' for Active; 'I' for Inactive)
REMARK    1  A    between atoms: C_1  and  C_2
REMARK    2  A    between atoms: C_6  and  C_7
REMARK    3  A    between atoms: C_7  and  C_8
REMARK    4  A    between atoms: C_8  and  O_10
REMARK    5  A    between atoms: O_10  and  C_11
REMARK    6  A    between atoms: C_11  and  C_12
REMARK    7  A    between atoms: N_18  and  C_19
REMARK    8  A    between atoms: C_24  and  C_25
REMARK                            x       y       z     vdW  Elec       q    Type
REMARK                         _______ _______ _______ _____ _____    ______ ____
ROOT
ATOM      1  C   UNL     1       8.726  10.424  18.476  0.00  0.00    +0.000 A 
ATOM      2  N   UNL     1       9.275  10.434  19.692  0.00  0.00    +0.000 NA
ATOM      3  C   UNL     1       9.776  11.595  20.072  0.00  0.00    +0.000 A 
ATOM      4  N   UNL     1      10.357  11.666  21.321  0.00  0.00    +0.000 N 
ATOM      5  N   UNL     1       9.720  12.707  19.365  0.00  0.00    +0.000 NA
ATOM      6  C   UNL     1       9.158  12.613  18.162  0.00  0.00    +0.000 A 
ATOM      7  N   UNL     1       9.074  13.743  17.341  0.00  0.00    +0.000 N 
ATOM      8  N   UNL     1       8.670  11.482  17.663  0.00  0.00    +0.000 NA
ATOM      9  H   UNL     1       9.980  10.959  21.936  0.00  0.00    +0.000 HD
ATOM     10  H   UNL     1      10.359  12.621  21.655  0.00  0.00    +0.000 HD
ATOM     11  H   UNL     1       8.572  13.498  16.499  0.00  0.00    +0.000 HD
ENDROOT
BRANCH   7  12
ATOM     12  C   UNL     1       8.890  15.086  17.732  0.00  0.00    +0.000 A 
ATOM     13  C   UNL     1       7.663  15.531  18.256  0.00  0.00    +0.000 A 
ATOM     14  C   UNL     1       7.477  16.857  18.645  0.00  0.00    +0.000 A 
ATOM     15  C   UNL     1       8.520  17.765  18.524  0.00  0.00    +0.000 A 
ATOM     16  C   UNL     1       9.742  17.351  17.996  0.00  0.00    +0.000 A 
ATOM     17  C   UNL     1       9.937  16.020  17.585  0.00  0.00    +0.000 A 
ATOM     18  C   UNL     1      11.269  15.627  17.007  0.00  0.00    +0.000 C 
ENDBRANCH   7  12
BRANCH   1  19
ATOM     19  C   UNL     1       8.165   9.113  17.968  0.00  0.00    +0.000 C 
BRANCH  19  20
ATOM     20  O   UNL     1       8.676   7.973  18.686  0.00  0.00    +0.000 OA
BRANCH  20  21
ATOM     21  C   UNL     1       7.952   6.829  18.530  0.00  0.00    +0.000 C 
ATOM     22  O   UNL     1       7.780   5.997  19.409  0.00  0.00    +0.000 OA
BRANCH  21  23
ATOM     23  C   UNL     1       7.354   6.758  17.148  0.00  0.00    +0.000 C 
BRANCH  23  29
ATOM     24  C   UNL     1       1.215   3.577  18.154  0.00  0.00    +0.000 C 
ATOM     25  C   UNL     1       2.565   4.181  17.898  0.00  0.00    +0.000 A 
ATOM     26  C   UNL     1       2.933   5.381  18.517  0.00  0.00    +0.000 A 
ATOM     27  C   UNL     1       4.186   5.971  18.283  0.00  0.00    +0.000 A 
ATOM     28  C   UNL     1       5.096   5.350  17.404  0.00  0.00    +0.000 A 
ATOM     29  C   UNL     1       6.410   5.624  16.894  0.00  0.00    +0.000 A 
ATOM     30  C   UNL     1       6.696   4.560  16.054  0.00  0.00    +0.000 A 
ATOM     31  O   UNL     1       5.673   3.676  16.003  0.00  0.00    +0.000 OA
ATOM     32  C   UNL     1       4.695   4.155  16.816  0.00  0.00    +0.000 A 
ATOM     33  C   UNL     1       3.461   3.538  17.030  0.00  0.00    +0.000 A 
ENDBRANCH  23  29
ENDBRANCH  21  23
ENDBRANCH  20  21
ENDBRANCH  19  20
ENDBRANCH   1  19
TORSDOF 6
ENDMDL
MODEL 6
REMARK VINA RESULT:      -8.9      7.139      9.750
REMARK  Name = 
REMARK  8 active torsions:
REMARK  status: ('A' for Active; 'I' for Inactive)
REMARK    1  A    between atoms: C_1  and  C_2
REMARK    2  A    between atoms: C_6  and  C_7
REMARK    3  A    between atoms: C_7  and  C_8
REMARK    4  A    between atoms: C_8  and  O_10
REMARK    5  A    between atoms: O_10  and  C_11
REMARK    6  A    between atoms: C_11  and  C_12
REMARK    7  A    between atoms: N_18  and  C_19
REMARK    8  A    between atoms: C_24  and  C_25
REMARK                            x       y       z     vdW  Elec       q    Type
REMARK                         _______ _______ _______ _____ _____    ______ ____
ROOT
ATOM      1  C   UNL     1       0.964   9.046  20.892  0.00  0.00    +0.000 A 
ATOM      2  N   UNL     1       1.094   9.637  19.703  0.00  0.00    +0.000 NA
ATOM      3  C   UNL     1       1.715   8.920  18.784  0.00  0.00    +0.000 A 
ATOM      4  N   UNL     1       1.879   9.479  17.535  0.00  0.00    +0.000 N 
ATOM      5  N   UNL     1       2.150   7.687  18.958  0.00  0.00    +0.000 NA
ATOM      6  C   UNL     1       1.985   7.169  20.174  0.00  0.00    +0.000 A 
ATOM      7  N   UNL     1       2.434   5.873  20.447  0.00  0.00    +0.000 N 
ATOM      8  N   UNL     1       1.420   7.824  21.183  0.00  0.00    +0.000 NA
ATOM      9  H   UNL     1       1.171  10.177  17.356  0.00  0.00    +0.000 HD
ATOM     10  H   UNL     1       2.005   8.756  16.839  0.00  0.00    +0.000 HD
ATOM     11  H   UNL     1       2.175   5.630  21.394  0.00  0.00    +0.000 HD
ENDROOT
BRANCH   7  12
ATOM     12  C   UNL     1       2.465   4.765  19.573  0.00  0.00    +0.000 A 
ATOM     13  C   UNL     1       1.316   3.991  19.337  0.00  0.00    +0.000 A 
ATOM     14  C   UNL     1       1.341   2.896  18.474  0.00  0.00    +0.000 A 
ATOM     15  C   UNL     1       2.520   2.557  17.823  0.00  0.00    +0.000 A 
ATOM     16  C   UNL     1       3.676   3.302  18.050  0.00  0.00    +0.000 A 
ATOM     17  C   UNL     1       3.667   4.399  18.932  0.00  0.00    +0.000 A 
ATOM     18  C   UNL     1       4.945   5.161  19.156  0.00  0.00    +0.000 C 
ENDBRANCH   7  12
BRANCH   1  19
ATOM     19  C   UNL     1       0.292   9.830  21.999  0.00  0.00    +0.000 C 
BRANCH  19  20
ATOM     20  O   UNL     1      -0.096  11.155  21.585  0.00  0.00    +0.000 OA
BRANCH  20  21
ATOM     21  C   UNL     1      -1.244  11.616  22.156  0.00  0.00    +0.000 C 
ATOM     22  O   UNL     1      -1.732  11.167  23.184  0.00  0.00    +0.000 OA
BRANCH  21  23
ATOM     23  C   UNL     1      -1.800  12.782  21.378  0.00  0.00    +0.000 C 
BRANCH  23  29
ATOM     24  C   UNL     1      -3.226   9.753  15.246  0.00  0.00    +0.000 C 
ATOM     25  C   UNL     1      -3.002  10.448  16.557  0.00  0.00    +0.000 A 
ATOM     26  C   UNL     1      -1.736  10.444  17.154  0.00  0.00    +0.000 A 
ATOM     27  C   UNL     1      -1.506  11.077  18.386  0.00  0.00    +0.000 A 
ATOM     28  C   UNL     1      -2.568  11.730  19.044  0.00  0.00    +0.000 A 
ATOM     29  C   UNL     1      -2.754  12.446  20.275  0.00  0.00    +0.000 A 
ATOM     30  C   UNL     1      -4.088  12.819  20.273  0.00  0.00    +0.000 A 
ATOM     31  O   UNL     1      -4.726  12.387  19.160  0.00  0.00    +0.000 OA
ATOM     32  C   UNL     1      -3.807  11.719  18.413  0.00  0.00    +0.000 A 
ATOM     33  C   UNL     1      -4.071  11.104  17.188  0.00  0.00    +0.000 A 
ENDBRANCH  23  29
ENDBRANCH  21  23
ENDBRANCH  20  21
ENDBRANCH  19  20
ENDBRANCH   1  19
TORSDOF 6
ENDMDL
MODEL 7
REMARK VINA RESULT:      -8.8      1.172      1.606
REMARK  Name = 
REMARK  8 active torsions:
REMARK  status: ('A' for Active; 'I' for Inactive)
REMARK    1  A    between atoms: C_1  and  C_2
REMARK    2  A    between atoms: C_6  and  C_7
REMARK    3  A    between atoms: C_7  and  C_8
REMARK    4  A    between atoms: C_8  and  O_10
REMARK    5  A    between atoms: O_10  and  C_11
REMARK    6  A    between atoms: C_11  and  C_12
REMARK    7  A    between atoms: N_18  and  C_19
REMARK    8  A    between atoms: C_24  and  C_25
REMARK                            x       y       z     vdW  Elec       q    Type
REMARK                         _______ _______ _______ _____ _____    ______ ____
ROOT
ATOM      1  C   UNL     1       7.636   6.736  18.138  0.00  0.00    +0.000 A 
ATOM      2  N   UNL     1       7.653   6.634  16.807  0.00  0.00    +0.000 NA
ATOM      3  C   UNL     1       6.902   5.669  16.309  0.00  0.00    +0.000 A 
ATOM      4  N   UNL     1       6.880   5.516  14.938  0.00  0.00    +0.000 N 
ATOM      5  N   UNL     1       6.134   4.869  17.021  0.00  0.00    +0.000 NA
ATOM      6  C   UNL     1       6.175   5.033  18.341  0.00  0.00    +0.000 A 
ATOM      7  N   UNL     1       5.402   4.213  19.171  0.00  0.00    +0.000 N 
ATOM      8  N   UNL     1       6.935   5.938  18.948  0.00  0.00    +0.000 NA
ATOM      9  H   UNL     1       7.106   6.384  14.474  0.00  0.00    +0.000 HD
ATOM     10  H   UNL     1       6.034   5.041  14.651  0.00  0.00    +0.000 HD
ATOM     11  H   UNL     1       5.516   4.517  20.129  0.00  0.00    +0.000 HD
ENDROOT
BRANCH   7  12
ATOM     12  C   UNL     1       4.128   3.666  18.905  0.00  0.00    +0.000 A 
ATOM     13  C   UNL     1       3.981   2.328  18.501  0.00  0.00    +0.000 A 
ATOM     14  C   UNL     1       2.725   1.782  18.238  0.00  0.00    +0.000 A 
ATOM     15  C   UNL     1       1.587   2.565  18.381  0.00  0.00    +0.000 A 
ATOM     16  C   UNL     1       1.709   3.899  18.768  0.00  0.00    +0.000 A 
ATOM     17  C   UNL     1       2.972   4.466  19.020  0.00  0.00    +0.000 A 
ATOM     18  C   UNL     1       3.051   5.914  19.420  0.00  0.00    +0.000 C 
ENDBRANCH   7  12
BRANCH   1  19
ATOM     19  C   UNL     1       8.504   7.801  18.773  0.00  0.00    +0.000 C 
BRANCH  19  20
ATOM     20  O   UNL     1       8.396   9.076  18.110  0.00  0.00    +0.000 OA
BRANCH  20  21
ATOM     21  C   UNL     1       9.063  10.094  18.722  0.00  0.00    +0.000 C 
ATOM     22  O   UNL     1       9.130  10.243  19.934  0.00  0.00    +0.000 OA
BRANCH  21  23
ATOM     23  C   UNL     1       9.743  10.978  17.707  0.00  0.00    +0.000 C 
BRANCH  23  29
ATOM     24  C   UNL     1      12.135  17.540  17.533  0.00  0.00    +0.000 C 
ATOM     25  C   UNL     1      11.545  16.162  17.614  0.00  0.00    +0.000 A 
ATOM     26  C   UNL     1      12.333  15.037  17.352  0.00  0.00    +0.000 A 
ATOM     27  C   UNL     1      11.800  13.739  17.410  0.00  0.00    +0.000 A 
ATOM     28  C   UNL     1      10.440  13.558  17.734  0.00  0.00    +0.000 A 
ATOM     29  C   UNL     1       9.535  12.452  17.870  0.00  0.00    +0.000 A 
ATOM     30  C   UNL     1       8.322  13.022  18.218  0.00  0.00    +0.000 A 
ATOM     31  O   UNL     1       8.409  14.371  18.296  0.00  0.00    +0.000 OA
ATOM     32  C   UNL     1       9.693  14.702  17.996  0.00  0.00    +0.000 A 
ATOM     33  C   UNL     1      10.191  16.005  17.952  0.00  0.00    +0.000 A 
ENDBRANCH  23  29
ENDBRANCH  21  23
ENDBRANCH  20  21
ENDBRANCH  19  20
ENDBRANCH   1  19
TORSDOF 6
ENDMDL
MODEL 8
REMARK VINA RESULT:      -8.7      3.037     10.291
REMARK  Name = 
REMARK  8 active torsions:
REMARK  status: ('A' for Active; 'I' for Inactive)
REMARK    1  A    between atoms: C_1  and  C_2
REMARK    2  A    between atoms: C_6  and  C_7
REMARK    3  A    between atoms: C_7  and  C_8
REMARK    4  A    between atoms: C_8  and  O_10
REMARK    5  A    between atoms: O_10  and  C_11
REMARK    6  A    between atoms: C_11  and  C_12
REMARK    7  A    between atoms: N_18  and  C_19
REMARK    8  A    between atoms: C_24  and  C_25
REMARK                            x       y       z     vdW  Elec       q    Type
REMARK                         _______ _______ _______ _____ _____    ______ ____
ROOT
ATOM      1  C   UNL     1       8.578   9.957  18.313  0.00  0.00    +0.000 A 
ATOM      2  N   UNL     1       9.179  10.007  19.503  0.00  0.00    +0.000 NA
ATOM      3  C   UNL     1       9.489  11.219  19.924  0.00  0.00    +0.000 A 
ATOM      4  N   UNL     1      10.113  11.334  21.149  0.00  0.00    +0.000 N 
ATOM      5  N   UNL     1       9.206  12.336  19.282  0.00  0.00    +0.000 NA
ATOM      6  C   UNL     1       8.607  12.200  18.100  0.00  0.00    +0.000 A 
ATOM      7  N   UNL     1       8.286  13.334  17.346  0.00  0.00    +0.000 N 
ATOM      8  N   UNL     1       8.298  11.026  17.561  0.00  0.00    +0.000 NA
ATOM      9  H   UNL     1       9.896  10.544  21.740  0.00  0.00    +0.000 HD
ATOM     10  H   UNL     1       9.966  12.257  21.534  0.00  0.00    +0.000 HD
ATOM     11  H   UNL     1       7.791  13.044  16.514  0.00  0.00    +0.000 HD
ENDROOT
BRANCH   7  12
ATOM     12  C   UNL     1       7.892  14.605  17.818  0.00  0.00    +0.000 A 
ATOM     13  C   UNL     1       6.560  14.866  18.181  0.00  0.00    +0.000 A 
ATOM     14  C   UNL     1       6.165  16.119  18.648  0.00  0.00    +0.000 A 
ATOM     15  C   UNL     1       7.102  17.137  18.768  0.00  0.00    +0.000 A 
ATOM     16  C   UNL     1       8.427  16.906  18.403  0.00  0.00    +0.000 A 
ATOM     17  C   UNL     1       8.833  15.651  17.914  0.00  0.00    +0.000 A 
ATOM     18  C   UNL     1      10.272  15.457  17.518  0.00  0.00    +0.000 C 
ENDBRANCH   7  12
BRANCH   1  19
ATOM     19  C   UNL     1       8.228   8.593  17.758  0.00  0.00    +0.000 C 
BRANCH  19  20
ATOM     20  O   UNL     1       8.378   7.540  18.732  0.00  0.00    +0.000 OA
BRANCH  20  21
ATOM     21  C   UNL     1       7.700   6.395  18.441  0.00  0.00    +0.000 C 
ATOM     22  O   UNL     1       7.857   5.333  19.029  0.00  0.00    +0.000 OA
BRANCH  21  23
ATOM     23  C   UNL     1       6.701   6.627  17.336  0.00  0.00    +0.000 C 
BRANCH  23  29
ATOM     24  C   UNL     1       0.932   3.654  19.924  0.00  0.00    +0.000 C 
ATOM     25  C   UNL     1       2.176   4.224  19.305  0.00  0.00    +0.000 A 
ATOM     26  C   UNL     1       2.899   5.225  19.961  0.00  0.00    +0.000 A 
ATOM     27  C   UNL     1       4.058   5.782  19.396  0.00  0.00    +0.000 A 
ATOM     28  C   UNL     1       4.506   5.329  18.139  0.00  0.00    +0.000 A 
ATOM     29  C   UNL     1       5.582   5.638  17.239  0.00  0.00    +0.000 A 
ATOM     30  C   UNL     1       5.405   4.782  16.164  0.00  0.00    +0.000 A 
ATOM     31  O   UNL     1       4.318   3.993  16.328  0.00  0.00    +0.000 OA
ATOM     32  C   UNL     1       3.764   4.327  17.524  0.00  0.00    +0.000 A 
ATOM     33  C   UNL     1       2.612   3.749  18.058  0.00  0.00    +0.000 A 
ENDBRANCH  23  29
ENDBRANCH  21  23
ENDBRANCH  20  21
ENDBRANCH  19  20
ENDBRANCH   1  19
TORSDOF 6
ENDMDL
MODEL 9
REMARK VINA RESULT:      -8.7      1.143      1.587
REMARK  Name = 
REMARK  8 active torsions:
REMARK  status: ('A' for Active; 'I' for Inactive)
REMARK    1  A    between atoms: C_1  and  C_2
REMARK    2  A    between atoms: C_6  and  C_7
REMARK    3  A    between atoms: C_7  and  C_8
REMARK    4  A    between atoms: C_8  and  O_10
REMARK    5  A    between atoms: O_10  and  C_11
REMARK    6  A    between atoms: C_11  and  C_12
REMARK    7  A    between atoms: N_18  and  C_19
REMARK    8  A    between atoms: C_24  and  C_25
REMARK                            x       y       z     vdW  Elec       q    Type
REMARK                         _______ _______ _______ _____ _____    ______ ____
ROOT
ATOM      1  C   UNL     1       7.087   6.769  17.957  0.00  0.00    +0.000 A 
ATOM      2  N   UNL     1       6.671   6.881  16.694  0.00  0.00    +0.000 NA
ATOM      3  C   UNL     1       5.661   6.097  16.365  0.00  0.00    +0.000 A 
ATOM      4  N   UNL     1       5.188   6.169  15.072  0.00  0.00    +0.000 N 
ATOM      5  N   UNL     1       5.040   5.280  17.193  0.00  0.00    +0.000 NA
ATOM      6  C   UNL     1       5.517   5.224  18.435  0.00  0.00    +0.000 A 
ATOM      7  N   UNL     1       4.925   4.372  19.372  0.00  0.00    +0.000 N 
ATOM      8  N   UNL     1       6.560   5.932  18.856  0.00  0.00    +0.000 NA
ATOM      9  H   UNL     1       5.389   7.070  14.663  0.00  0.00    +0.000 HD
ATOM     10  H   UNL     1       4.232   5.841  15.028  0.00  0.00    +0.000 HD
ATOM     11  H   UNL     1       5.378   4.503  20.266  0.00  0.00    +0.000 HD
ENDROOT
BRANCH   7  12
ATOM     12  C   UNL     1       3.563   4.016  19.482  0.00  0.00    +0.000 A 
ATOM     13  C   UNL     1       2.666   4.796  20.232  0.00  0.00    +0.000 A 
ATOM     14  C   UNL     1       1.320   4.450  20.343  0.00  0.00    +0.000 A 
ATOM     15  C   UNL     1       0.842   3.317  19.697  0.00  0.00    +0.000 A 
ATOM     16  C   UNL     1       1.715   2.521  18.958  0.00  0.00    +0.000 A 
ATOM     17  C   UNL     1       3.079   2.851  18.853  0.00  0.00    +0.000 A 
ATOM     18  C   UNL     1       3.984   1.950  18.056  0.00  0.00    +0.000 C 
ENDBRANCH   7  12
BRANCH   1  19
ATOM     19  C   UNL     1       8.264   7.617  18.389  0.00  0.00    +0.000 C 
BRANCH  19  20
ATOM     20  O   UNL     1       8.274   8.916  17.763  0.00  0.00    +0.000 OA
BRANCH  20  21
ATOM     21  C   UNL     1       8.770   9.918  18.540  0.00  0.00    +0.000 C 
ATOM     22  O   UNL     1       9.347   9.744  19.605  0.00  0.00    +0.000 OA
BRANCH  21  23
ATOM     23  C   UNL     1       8.556  11.260  17.887  0.00  0.00    +0.000 C 
BRANCH  23  29
ATOM     24  C   UNL     1      11.508  17.593  17.930  0.00  0.00    +0.000 C 
ATOM     25  C   UNL     1      10.954  16.198  17.887  0.00  0.00    +0.000 A 
ATOM     26  C   UNL     1       9.580  15.977  18.030  0.00  0.00    +0.000 A 
ATOM     27  C   UNL     1       9.041  14.680  18.006  0.00  0.00    +0.000 A 
ATOM     28  C   UNL     1       9.896  13.573  17.838  0.00  0.00    +0.000 A 
ATOM     29  C   UNL     1       9.760  12.144  17.784  0.00  0.00    +0.000 A 
ATOM     30  C   UNL     1      11.047  11.669  17.592  0.00  0.00    +0.000 A 
ATOM     31  O   UNL     1      11.947  12.677  17.535  0.00  0.00    +0.000 OA
ATOM     32  C   UNL     1      11.254  13.836  17.691  0.00  0.00    +0.000 A 
ATOM     33  C   UNL     1      11.823  15.111  17.706  0.00  0.00    +0.000 A 
ENDBRANCH  23  29
ENDBRANCH  21  23
ENDBRANCH  20  21
ENDBRANCH  19  20
ENDBRANCH   1  19
TORSDOF 6
ENDMDL
