MODEL 1
REMARK VINA RESULT:      -8.4      0.000      0.000
REMARK  Name = 
REMARK  3 active torsions:
REMARK  status: ('A' for Active; 'I' for Inactive)
REMARK    1  A    between atoms: C_2  and  C_3
REMARK    2  A    between atoms: C_3  and  C_4
REMARK    3  A    between atoms: N_7  and  C_8
REMARK                            x       y       z     vdW  Elec       q    Type
REMARK                         _______ _______ _______ _____ _____    ______ ____
ROOT
ATOM      1  C   UNL     1       4.820   4.409  17.221  0.00  0.00    +0.000 C 
ATOM      2  C   UNL     1       5.795   3.619  16.327  0.00  0.00    +0.000 C 
ATOM      3  N   UNL     1       6.510   4.562  15.481  0.00  0.00    +0.000 N 
ATOM      4  C   UNL     1       6.653   4.335  14.135  0.00  0.00    +0.000 A 
ATOM      5  N   UNL     1       5.976   3.317  13.580  0.00  0.00    +0.000 NA
ATOM      6  C   UNL     1       6.066   3.162  12.246  0.00  0.00    +0.000 A 
ATOM      7  C   UNL     1       6.815   3.979  11.438  0.00  0.00    +0.000 A 
ATOM      8  C   UNL     1       7.480   4.984  12.091  0.00  0.00    +0.000 A 
ATOM      9  N   UNL     1       7.420   5.172  13.419  0.00  0.00    +0.000 NA
ATOM     10  C   UNL     1       7.293   5.588  16.150  0.00  0.00    +0.000 C 
ATOM     11  C   UNL     1       6.361   6.397  17.072  0.00  0.00    +0.000 C 
ATOM     12  C   UNL     1       7.121   7.428  17.899  0.00  0.00    +0.000 C 
ATOM     13  C   UNL     1       8.102   6.747  18.836  0.00  0.00    +0.000 C 
ATOM     14  C   UNL     1       7.513   5.547  19.575  0.00  0.00    +0.000 C 
ATOM     15  O   UNL     1       6.577   4.752  18.852  0.00  0.00    +0.000 OA
ATOM     16  C   UNL     1       5.624   5.457  18.035  0.00  0.00    +0.000 C 
ENDROOT
BRANCH   1  19
ATOM     17  O   UNL     1       2.233   3.401  16.717  0.00  0.00    +0.000 OA
ATOM     18  C   UNL     1       2.778   3.124  17.781  0.00  0.00    +0.000 C 
ATOM     19  N   UNL     1       4.060   3.514  18.093  0.00  0.00    +0.000 N 
ATOM     20  H   UNL     1       4.335   3.518  19.066  0.00  0.00    +0.000 HD
BRANCH  18  21
ATOM     21  C   UNL     1       2.097   2.226  18.810  0.00  0.00    +0.000 C 
BRANCH  21  22
ATOM     22  C   UNL     1       1.049   2.893  19.659  0.00  0.00    +0.000 C 
ATOM     23  C   UNL     1       1.256   3.037  21.146  0.00  0.00    +0.000 C 
ATOM     24  C   UNL     1       1.304   4.251  20.263  0.00  0.00    +0.000 C 
ENDBRANCH  21  22
ENDBRANCH  18  21
ENDBRANCH   1  19
TORSDOF 3
ENDMDL
MODEL 2
REMARK VINA RESULT:      -7.4      3.132      7.001
REMARK  Name = 
REMARK  3 active torsions:
REMARK  status: ('A' for Active; 'I' for Inactive)
REMARK    1  A    between atoms: C_2  and  C_3
REMARK    2  A    between atoms: C_3  and  C_4
REMARK    3  A    between atoms: N_7  and  C_8
REMARK                            x       y       z     vdW  Elec       q    Type
REMARK                         _______ _______ _______ _____ _____    ______ ____
ROOT
ATOM      1  C   UNL     1       3.102   4.492  17.593  0.00  0.00    +0.000 C 
ATOM      2  C   UNL     1       3.609   5.812  18.207  0.00  0.00    +0.000 C 
ATOM      3  N   UNL     1       2.565   6.350  19.065  0.00  0.00    +0.000 N 
ATOM      4  C   UNL     1       2.208   7.674  18.997  0.00  0.00    +0.000 A 
ATOM      5  N   UNL     1       2.715   8.425  18.006  0.00  0.00    +0.000 NA
ATOM      6  C   UNL     1       2.289   9.698  17.909  0.00  0.00    +0.000 A 
ATOM      7  C   UNL     1       1.379  10.259  18.768  0.00  0.00    +0.000 A 
ATOM      8  C   UNL     1       0.923   9.424  19.753  0.00  0.00    +0.000 A 
ATOM      9  N   UNL     1       1.324   8.149  19.889  0.00  0.00    +0.000 NA
ATOM     10  C   UNL     1       2.122   5.516  20.171  0.00  0.00    +0.000 C 
ATOM     11  C   UNL     1       1.620   4.174  19.606  0.00  0.00    +0.000 C 
ATOM     12  C   UNL     1       1.236   3.192  20.707  0.00  0.00    +0.000 C 
ATOM     13  C   UNL     1       2.446   2.832  21.551  0.00  0.00    +0.000 C 
ATOM     14  C   UNL     1       3.695   2.517  20.729  0.00  0.00    +0.000 C 
ATOM     15  O   UNL     1       3.880   3.275  19.537  0.00  0.00    +0.000 OA
ATOM     16  C   UNL     1       2.708   3.525  18.740  0.00  0.00    +0.000 C 
ENDROOT
BRANCH   1  19
ATOM     17  O   UNL     1       4.936   5.909  15.983  0.00  0.00    +0.000 OA
ATOM     18  C   UNL     1       4.917   4.684  15.919  0.00  0.00    +0.000 C 
ATOM     19  N   UNL     1       4.105   3.902  16.709  0.00  0.00    +0.000 N 
ATOM     20  H   UNL     1       3.919   2.954  16.410  0.00  0.00    +0.000 HD
BRANCH  18  21
ATOM     21  C   UNL     1       5.883   3.923  15.015  0.00  0.00    +0.000 C 
BRANCH  21  22
ATOM     22  C   UNL     1       5.781   4.238  13.548  0.00  0.00    +0.000 C 
ATOM     23  C   UNL     1       6.995   4.124  12.660  0.00  0.00    +0.000 C 
ATOM     24  C   UNL     1       5.871   3.138  12.521  0.00  0.00    +0.000 C 
ENDBRANCH  21  22
ENDBRANCH  18  21
ENDBRANCH   1  19
TORSDOF 3
ENDMDL
MODEL 3
REMARK VINA RESULT:      -7.2      2.290      5.657
REMARK  Name = 
REMARK  3 active torsions:
REMARK  status: ('A' for Active; 'I' for Inactive)
REMARK    1  A    between atoms: C_2  and  C_3
REMARK    2  A    between atoms: C_3  and  C_4
REMARK    3  A    between atoms: N_7  and  C_8
REMARK                            x       y       z     vdW  Elec       q    Type
REMARK                         _______ _______ _______ _____ _____    ______ ____
ROOT
ATOM      1  C   UNL     1       7.284   5.622  17.879  0.00  0.00    +0.000 C 
ATOM      2  C   UNL     1       6.800   6.114  16.501  0.00  0.00    +0.000 C 
ATOM      3  N   UNL     1       6.178   4.999  15.806  0.00  0.00    +0.000 N 
ATOM      4  C   UNL     1       6.482   4.725  14.496  0.00  0.00    +0.000 A 
ATOM      5  N   UNL     1       7.491   5.397  13.917  0.00  0.00    +0.000 NA
ATOM      6  C   UNL     1       7.825   5.055  12.659  0.00  0.00    +0.000 A 
ATOM      7  C   UNL     1       7.187   4.073  11.946  0.00  0.00    +0.000 A 
ATOM      8  C   UNL     1       6.164   3.449  12.610  0.00  0.00    +0.000 A 
ATOM      9  N   UNL     1       5.796   3.759  13.864  0.00  0.00    +0.000 NA
ATOM     10  C   UNL     1       5.036   4.372  16.451  0.00  0.00    +0.000 C 
ATOM     11  C   UNL     1       5.468   3.876  17.845  0.00  0.00    +0.000 C 
ATOM     12  C   UNL     1       4.301   3.300  18.640  0.00  0.00    +0.000 C 
ATOM     13  C   UNL     1       3.258   4.369  18.912  0.00  0.00    +0.000 C 
ATOM     14  C   UNL     1       3.848   5.695  19.387  0.00  0.00    +0.000 C 
ATOM     15  O   UNL     1       5.099   6.075  18.820  0.00  0.00    +0.000 OA
ATOM     16  C   UNL     1       6.076   5.030  18.652  0.00  0.00    +0.000 C 
ENDROOT
BRANCH   1  19
ATOM     17  O   UNL     1       7.587   8.292  17.019  0.00  0.00    +0.000 OA
ATOM     18  C   UNL     1       8.078   7.958  18.093  0.00  0.00    +0.000 C 
ATOM     19  N   UNL     1       7.930   6.698  18.627  0.00  0.00    +0.000 N 
ATOM     20  H   UNL     1       8.586   6.402  19.338  0.00  0.00    +0.000 HD
BRANCH  18  21
ATOM     21  C   UNL     1       8.813   8.963  18.975  0.00  0.00    +0.000 C 
BRANCH  21  22
ATOM     22  C   UNL     1       8.857  10.373  18.452  0.00  0.00    +0.000 C 
ATOM     23  C   UNL     1       9.460  11.475  19.287  0.00  0.00    +0.000 C 
ATOM     24  C   UNL     1      10.169  11.000  18.052  0.00  0.00    +0.000 C 
ENDBRANCH  21  22
ENDBRANCH  18  21
ENDBRANCH   1  19
TORSDOF 3
ENDMDL
MODEL 4
REMARK VINA RESULT:      -7.1      1.751      6.402
REMARK  Name = 
REMARK  3 active torsions:
REMARK  status: ('A' for Active; 'I' for Inactive)
REMARK    1  A    between atoms: C_2  and  C_3
REMARK    2  A    between atoms: C_3  and  C_4
REMARK    3  A    between atoms: N_7  and  C_8
REMARK                            x       y       z     vdW  Elec       q    Type
REMARK                         _______ _______ _______ _____ _____    ______ ____
ROOT
ATOM      1  C   UNL     1       5.360   4.077  16.553  0.00  0.00    +0.000 C 
ATOM      2  C   UNL     1       4.060   4.691  17.109  0.00  0.00    +0.000 C 
ATOM      3  N   UNL     1       4.161   4.745  18.559  0.00  0.00    +0.000 N 
ATOM      4  C   UNL     1       3.128   4.319  19.355  0.00  0.00    +0.000 A 
ATOM      5  N   UNL     1       2.091   3.689  18.779  0.00  0.00    +0.000 NA
ATOM      6  C   UNL     1       1.128   3.206  19.586  0.00  0.00    +0.000 A 
ATOM      7  C   UNL     1       1.151   3.333  20.951  0.00  0.00    +0.000 A 
ATOM      8  C   UNL     1       2.240   3.998  21.451  0.00  0.00    +0.000 A 
ATOM      9  N   UNL     1       3.221   4.498  20.682  0.00  0.00    +0.000 NA
ATOM     10  C   UNL     1       5.260   5.516  19.116  0.00  0.00    +0.000 C 
ATOM     11  C   UNL     1       6.586   4.948  18.575  0.00  0.00    +0.000 C 
ATOM     12  C   UNL     1       7.791   5.767  19.023  0.00  0.00    +0.000 C 
ATOM     13  C   UNL     1       7.716   7.179  18.469  0.00  0.00    +0.000 C 
ATOM     14  C   UNL     1       7.333   7.239  16.992  0.00  0.00    +0.000 C 
ATOM     15  O   UNL     1       6.399   6.264  16.536  0.00  0.00    +0.000 OA
ATOM     16  C   UNL     1       6.563   4.926  17.040  0.00  0.00    +0.000 C 
ENDROOT
BRANCH   1  19
ATOM     17  O   UNL     1       7.568   4.309  14.810  0.00  0.00    +0.000 OA
ATOM     18  C   UNL     1       6.447   4.169  14.329  0.00  0.00    +0.000 C 
ATOM     19  N   UNL     1       5.318   3.985  15.095  0.00  0.00    +0.000 N 
ATOM     20  H   UNL     1       4.419   4.174  14.672  0.00  0.00    +0.000 HD
BRANCH  18  21
ATOM     21  C   UNL     1       6.238   4.089  12.820  0.00  0.00    +0.000 C 
BRANCH  21  22
ATOM     22  C   UNL     1       5.108   3.203  12.369  0.00  0.00    +0.000 C 
ATOM     23  C   UNL     1       4.429   3.453  11.046  0.00  0.00    +0.000 C 
ATOM     24  C   UNL     1       5.300   2.242  11.223  0.00  0.00    +0.000 C 
ENDBRANCH  21  22
ENDBRANCH  18  21
ENDBRANCH   1  19
TORSDOF 3
ENDMDL
MODEL 5
REMARK VINA RESULT:      -7.0      1.021      1.336
REMARK  Name = 
REMARK  3 active torsions:
REMARK  status: ('A' for Active; 'I' for Inactive)
REMARK    1  A    between atoms: C_2  and  C_3
REMARK    2  A    between atoms: C_3  and  C_4
REMARK    3  A    between atoms: N_7  and  C_8
REMARK                            x       y       z     vdW  Elec       q    Type
REMARK                         _______ _______ _______ _____ _____    ______ ____
ROOT
ATOM      1  C   UNL     1       4.634   5.225  17.105  0.00  0.00    +0.000 C 
ATOM      2  C   UNL     1       5.436   4.165  16.324  0.00  0.00    +0.000 C 
ATOM      3  N   UNL     1       6.413   4.849  15.491  0.00  0.00    +0.000 N 
ATOM      4  C   UNL     1       6.578   4.508  14.172  0.00  0.00    +0.000 A 
ATOM      5  N   UNL     1       5.705   3.652  13.616  0.00  0.00    +0.000 NA
ATOM      6  C   UNL     1       5.836   3.395  12.301  0.00  0.00    +0.000 A 
ATOM      7  C   UNL     1       6.812   3.952  11.515  0.00  0.00    +0.000 A 
ATOM      8  C   UNL     1       7.664   4.804  12.168  0.00  0.00    +0.000 A 
ATOM      9  N   UNL     1       7.571   5.086  13.477  0.00  0.00    +0.000 NA
ATOM     10  C   UNL     1       7.383   5.694  16.168  0.00  0.00    +0.000 C 
ATOM     11  C   UNL     1       6.625   6.764  16.979  0.00  0.00    +0.000 C 
ATOM     12  C   UNL     1       7.564   7.630  17.811  0.00  0.00    +0.000 C 
ATOM     13  C   UNL     1       8.287   6.792  18.850  0.00  0.00    +0.000 C 
ATOM     14  C   UNL     1       7.375   5.821  19.598  0.00  0.00    +0.000 C 
ATOM     15  O   UNL     1       6.317   5.233  18.846  0.00  0.00    +0.000 OA
ATOM     16  C   UNL     1       5.621   6.095  17.927  0.00  0.00    +0.000 C 
ENDROOT
BRANCH   1  19
ATOM     17  O   UNL     1       2.233   6.418  17.985  0.00  0.00    +0.000 OA
ATOM     18  C   UNL     1       2.511   5.290  18.379  0.00  0.00    +0.000 C 
ATOM     19  N   UNL     1       3.624   4.600  17.958  0.00  0.00    +0.000 N 
ATOM     20  H   UNL     1       3.951   3.829  18.525  0.00  0.00    +0.000 HD
BRANCH  18  21
ATOM     21  C   UNL     1       1.571   4.519  19.302  0.00  0.00    +0.000 C 
BRANCH  21  22
ATOM     22  C   UNL     1       0.917   3.308  18.695  0.00  0.00    +0.000 C 
ATOM     23  C   UNL     1       1.708   2.041  18.488  0.00  0.00    +0.000 C 
ATOM     24  C   UNL     1       0.635   2.089  19.537  0.00  0.00    +0.000 C 
ENDBRANCH  21  22
ENDBRANCH  18  21
ENDBRANCH   1  19
TORSDOF 3
ENDMDL
MODEL 6
REMARK VINA RESULT:      -6.9      2.383      6.901
REMARK  Name = 
REMARK  3 active torsions:
REMARK  status: ('A' for Active; 'I' for Inactive)
REMARK    1  A    between atoms: C_2  and  C_3
REMARK    2  A    between atoms: C_3  and  C_4
REMARK    3  A    between atoms: N_7  and  C_8
REMARK                            x       y       z     vdW  Elec       q    Type
REMARK                         _______ _______ _______ _____ _____    ______ ____
ROOT
ATOM      1  C   UNL     1       6.056   5.994  17.726  0.00  0.00    +0.000 C 
ATOM      2  C   UNL     1       5.873   4.634  18.428  0.00  0.00    +0.000 C 
ATOM      3  N   UNL     1       4.714   3.971  17.850  0.00  0.00    +0.000 N 
ATOM      4  C   UNL     1       3.761   3.391  18.650  0.00  0.00    +0.000 A 
ATOM      5  N   UNL     1       3.824   3.596  19.976  0.00  0.00    +0.000 NA
ATOM      6  C   UNL     1       2.834   3.087  20.732  0.00  0.00    +0.000 A 
ATOM      7  C   UNL     1       1.782   2.371  20.221  0.00  0.00    +0.000 A 
ATOM      8  C   UNL     1       1.805   2.203  18.861  0.00  0.00    +0.000 A 
ATOM      9  N   UNL     1       2.774   2.690  18.070  0.00  0.00    +0.000 NA
ATOM     10  C   UNL     1       4.750   3.704  16.422  0.00  0.00    +0.000 C 
ATOM     11  C   UNL     1       4.948   5.037  15.675  0.00  0.00    +0.000 C 
ATOM     12  C   UNL     1       5.107   4.838  14.172  0.00  0.00    +0.000 C 
ATOM     13  C   UNL     1       6.355   4.030  13.866  0.00  0.00    +0.000 C 
ATOM     14  C   UNL     1       7.585   4.481  14.651  0.00  0.00    +0.000 C 
ATOM     15  O   UNL     1       7.360   4.932  15.984  0.00  0.00    +0.000 OA
ATOM     16  C   UNL     1       6.199   5.755  16.200  0.00  0.00    +0.000 C 
ENDROOT
BRANCH   1  19
ATOM     17  O   UNL     1       6.810   8.636  17.081  0.00  0.00    +0.000 OA
ATOM     18  C   UNL     1       7.519   7.989  17.846  0.00  0.00    +0.000 C 
ATOM     19  N   UNL     1       7.203   6.718  18.270  0.00  0.00    +0.000 N 
ATOM     20  H   UNL     1       7.945   6.141  18.642  0.00  0.00    +0.000 HD
BRANCH  18  21
ATOM     21  C   UNL     1       8.771   8.597  18.471  0.00  0.00    +0.000 C 
BRANCH  21  22
ATOM     22  C   UNL     1       8.763  10.096  18.608  0.00  0.00    +0.000 C 
ATOM     23  C   UNL     1       9.453  10.755  19.777  0.00  0.00    +0.000 C 
ATOM     24  C   UNL     1      10.027  10.890  18.396  0.00  0.00    +0.000 C 
ENDBRANCH  21  22
ENDBRANCH  18  21
ENDBRANCH   1  19
TORSDOF 3
ENDMDL
MODEL 7
REMARK VINA RESULT:      -6.8      3.498      7.757
REMARK  Name = 
REMARK  3 active torsions:
REMARK  status: ('A' for Active; 'I' for Inactive)
REMARK    1  A    between atoms: C_2  and  C_3
REMARK    2  A    between atoms: C_3  and  C_4
REMARK    3  A    between atoms: N_7  and  C_8
REMARK                            x       y       z     vdW  Elec       q    Type
REMARK                         _______ _______ _______ _____ _____    ______ ____
ROOT
ATOM      1  C   UNL     1       2.700   5.424  18.327  0.00  0.00    +0.000 C 
ATOM      2  C   UNL     1       2.960   6.541  19.357  0.00  0.00    +0.000 C 
ATOM      3  N   UNL     1       1.835   6.589  20.277  0.00  0.00    +0.000 N 
ATOM      4  C   UNL     1       1.245   7.783  20.610  0.00  0.00    +0.000 A 
ATOM      5  N   UNL     1       1.611   8.888  19.940  0.00  0.00    +0.000 NA
ATOM      6  C   UNL     1       0.963  10.033  20.226  0.00  0.00    +0.000 A 
ATOM      7  C   UNL     1      -0.035  10.124  21.162  0.00  0.00    +0.000 A 
ATOM      8  C   UNL     1      -0.334   8.951  21.803  0.00  0.00    +0.000 A 
ATOM      9  N   UNL     1       0.289   7.788  21.552  0.00  0.00    +0.000 NA
ATOM     10  C   UNL     1       1.548   5.381  21.033  0.00  0.00    +0.000 C 
ATOM     11  C   UNL     1       1.296   4.227  20.043  0.00  0.00    +0.000 C 
ATOM     12  C   UNL     1       1.094   2.893  20.752  0.00  0.00    +0.000 C 
ATOM     13  C   UNL     1       2.347   2.491  21.509  0.00  0.00    +0.000 C 
ATOM     14  C   UNL     1       3.633   2.675  20.706  0.00  0.00    +0.000 C 
ATOM     15  O   UNL     1       3.682   3.797  19.829  0.00  0.00    +0.000 OA
ATOM     16  C   UNL     1       2.485   4.086  19.083  0.00  0.00    +0.000 C 
ENDROOT
BRANCH   1  19
ATOM     17  O   UNL     1       4.030   7.593  17.106  0.00  0.00    +0.000 OA
ATOM     18  C   UNL     1       4.340   6.451  16.780  0.00  0.00    +0.000 C 
ATOM     19  N   UNL     1       3.795   5.330  17.363  0.00  0.00    +0.000 N 
ATOM     20  H   UNL     1       3.861   4.453  16.863  0.00  0.00    +0.000 HD
BRANCH  18  21
ATOM     21  C   UNL     1       5.444   6.191  15.760  0.00  0.00    +0.000 C 
BRANCH  21  22
ATOM     22  C   UNL     1       5.731   4.742  15.472  0.00  0.00    +0.000 C 
ATOM     23  C   UNL     1       5.476   4.176  14.097  0.00  0.00    +0.000 C 
ATOM     24  C   UNL     1       6.886   4.354  14.584  0.00  0.00    +0.000 C 
ENDBRANCH  21  22
ENDBRANCH  18  21
ENDBRANCH   1  19
TORSDOF 3
ENDMDL
MODEL 8
REMARK VINA RESULT:      -6.8      3.350      7.598
REMARK  Name = 
REMARK  3 active torsions:
REMARK  status: ('A' for Active; 'I' for Inactive)
REMARK    1  A    between atoms: C_2  and  C_3
REMARK    2  A    between atoms: C_3  and  C_4
REMARK    3  A    between atoms: N_7  and  C_8
REMARK                            x       y       z     vdW  Elec       q    Type
REMARK                         _______ _______ _______ _____ _____    ______ ____
ROOT
ATOM      1  C   UNL     1       2.953   5.334  18.376  0.00  0.00    +0.000 C 
ATOM      2  C   UNL     1       3.143   6.505  19.361  0.00  0.00    +0.000 C 
ATOM      3  N   UNL     1       1.921   6.658  20.134  0.00  0.00    +0.000 N 
ATOM      4  C   UNL     1       1.354   7.894  20.322  0.00  0.00    +0.000 A 
ATOM      5  N   UNL     1       1.849   8.938  19.636  0.00  0.00    +0.000 NA
ATOM      6  C   UNL     1       1.227  10.124  19.772  0.00  0.00    +0.000 A 
ATOM      7  C   UNL     1       0.132  10.316  20.575  0.00  0.00    +0.000 A 
ATOM      8  C   UNL     1      -0.297   9.200  21.244  0.00  0.00    +0.000 A 
ATOM      9  N   UNL     1       0.295   8.000  21.139  0.00  0.00    +0.000 NA
ATOM     10  C   UNL     1       1.489   5.515  20.921  0.00  0.00    +0.000 C 
ATOM     11  C   UNL     1       1.300   4.310  19.979  0.00  0.00    +0.000 C 
ATOM     12  C   UNL     1       0.952   3.034  20.736  0.00  0.00    +0.000 C 
ATOM     13  C   UNL     1       2.086   2.632  21.662  0.00  0.00    +0.000 C 
ATOM     14  C   UNL     1       3.466   2.711  21.011  0.00  0.00    +0.000 C 
ATOM     15  O   UNL     1       3.671   3.770  20.080  0.00  0.00    +0.000 OA
ATOM     16  C   UNL     1       2.586   4.059  19.179  0.00  0.00    +0.000 C 
ENDROOT
BRANCH   1  19
ATOM     17  O   UNL     1       3.373   3.237  16.535  0.00  0.00    +0.000 OA
ATOM     18  C   UNL     1       4.278   4.042  16.730  0.00  0.00    +0.000 C 
ATOM     19  N   UNL     1       4.148   5.133  17.559  0.00  0.00    +0.000 N 
ATOM     20  H   UNL     1       4.991   5.573  17.904  0.00  0.00    +0.000 HD
BRANCH  18  21
ATOM     21  C   UNL     1       5.600   3.945  15.975  0.00  0.00    +0.000 C 
BRANCH  21  22
ATOM     22  C   UNL     1       5.618   4.587  14.614  0.00  0.00    +0.000 C 
ATOM     23  C   UNL     1       6.921   4.767  13.877  0.00  0.00    +0.000 C 
ATOM     24  C   UNL     1       5.916   3.766  13.385  0.00  0.00    +0.000 C 
ENDBRANCH  21  22
ENDBRANCH  18  21
ENDBRANCH   1  19
TORSDOF 3
ENDMDL
MODEL 9
REMARK VINA RESULT:      -6.6      1.526      6.313
REMARK  Name = 
REMARK  3 active torsions:
REMARK  status: ('A' for Active; 'I' for Inactive)
REMARK    1  A    between atoms: C_2  and  C_3
REMARK    2  A    between atoms: C_3  and  C_4
REMARK    3  A    between atoms: N_7  and  C_8
REMARK                            x       y       z     vdW  Elec       q    Type
REMARK                         _______ _______ _______ _____ _____    ______ ____
ROOT
ATOM      1  C   UNL     1       5.956   3.751  16.602  0.00  0.00    +0.000 C 
ATOM      2  C   UNL     1       4.556   4.365  16.801  0.00  0.00    +0.000 C 
ATOM      3  N   UNL     1       4.375   4.647  18.217  0.00  0.00    +0.000 N 
ATOM      4  C   UNL     1       3.221   4.286  18.866  0.00  0.00    +0.000 A 
ATOM      5  N   UNL     1       2.333   3.516  18.217  0.00  0.00    +0.000 NA
ATOM      6  C   UNL     1       1.248   3.106  18.900  0.00  0.00    +0.000 A 
ATOM      7  C   UNL     1       1.004   3.442  20.207  0.00  0.00    +0.000 A 
ATOM      8  C   UNL     1       1.957   4.238  20.786  0.00  0.00    +0.000 A 
ATOM      9  N   UNL     1       3.052   4.672  20.141  0.00  0.00    +0.000 NA
ATOM     10  C   UNL     1       5.324   5.558  18.836  0.00  0.00    +0.000 C 
ATOM     11  C   UNL     1       6.745   4.993  18.648  0.00  0.00    +0.000 C 
ATOM     12  C   UNL     1       7.817   5.941  19.173  0.00  0.00    +0.000 C 
ATOM     13  C   UNL     1       7.809   7.245  18.394  0.00  0.00    +0.000 C 
ATOM     14  C   UNL     1       7.715   7.055  16.882  0.00  0.00    +0.000 C 
ATOM     15  O   UNL     1       6.915   5.968  16.425  0.00  0.00    +0.000 OA
ATOM     16  C   UNL     1       7.018   4.735  17.160  0.00  0.00    +0.000 C 
ENDROOT
BRANCH   1  19
ATOM     17  O   UNL     1       4.969   5.189  14.383  0.00  0.00    +0.000 OA
ATOM     18  C   UNL     1       5.622   4.169  14.183  0.00  0.00    +0.000 C 
ATOM     19  N   UNL     1       6.198   3.435  15.195  0.00  0.00    +0.000 N 
ATOM     20  H   UNL     1       6.454   2.476  15.002  0.00  0.00    +0.000 HD
BRANCH  18  21
ATOM     21  C   UNL     1       5.930   3.690  12.768  0.00  0.00    +0.000 C 
BRANCH  21  22
ATOM     22  C   UNL     1       7.277   4.089  12.229  0.00  0.00    +0.000 C 
ATOM     23  C   UNL     1       7.419   5.325  11.377  0.00  0.00    +0.000 C 
ATOM     24  C   UNL     1       7.988   5.305  12.767  0.00  0.00    +0.000 C 
ENDBRANCH  21  22
ENDBRANCH  18  21
ENDBRANCH   1  19
TORSDOF 3
ENDMDL
