MODEL 1
REMARK VINA RESULT:      -7.9      0.000      0.000
REMARK  Name = 
REMARK  10 active torsions:
REMARK  status: ('A' for Active; 'I' for Inactive)
REMARK    1  A    between atoms: C_1  and  C_2
REMARK    2  A    between atoms: C_2  and  C_3
REMARK    3  A    between atoms: C_2  and  C_4
REMARK    4  A    between atoms: C_7  and  N_8
REMARK    5  A    between atoms: C_9  and  C_11
REMARK    6  A    between atoms: C_11  and  O_12
REMARK    7  A    between atoms: O_12  and  C_13
REMARK    8  A    between atoms: C_13  and  C_15
REMARK    9  A    between atoms: C_16  and  C_17
REMARK   10  A    between atoms: C_21  and  N_22
REMARK                            x       y       z     vdW  Elec       q    Type
REMARK                         _______ _______ _______ _____ _____    ______ ____
ROOT
ATOM      1  C   UNL     1       7.738   7.374  17.558  0.00  0.00    +0.000 C 
ENDROOT
BRANCH   1   3
ATOM      2  N   UNL     1       7.568   5.828  15.671  0.00  0.00    +0.000 N 
ATOM      3  C   UNL     1       6.892   6.758  16.454  0.00  0.00    +0.000 C 
ATOM      4  O   UNL     1       5.728   7.126  16.318  0.00  0.00    +0.000 OA
ATOM      5  H   UNL     1       8.537   5.648  15.891  0.00  0.00    +0.000 HD
BRANCH   2   9
ATOM      6  C   UNL     1       6.006   3.604  12.396  0.00  0.00    +0.000 A 
ATOM      7  C   UNL     1       5.351   3.596  13.630  0.00  0.00    +0.000 A 
ATOM      8  C   UNL     1       5.850   4.330  14.708  0.00  0.00    +0.000 A 
ATOM      9  C   UNL     1       7.015   5.089  14.593  0.00  0.00    +0.000 A 
ATOM     10  C   UNL     1       7.671   5.110  13.357  0.00  0.00    +0.000 A 
ATOM     11  C   UNL     1       7.173   4.372  12.273  0.00  0.00    +0.000 A 
BRANCH   6  13
ATOM     12  C   UNL     1       5.902   1.317  11.331  0.00  0.00    +0.000 C 
ATOM     13  C   UNL     1       5.456   2.778  11.247  0.00  0.00    +0.000 C 
ATOM     14  C   UNL     1       3.929   2.878  11.185  0.00  0.00    +0.000 C 
ENDBRANCH   6  13
ENDBRANCH   2   9
ENDBRANCH   1   3
BRANCH   1  15
ATOM     15  O   UNL     1       7.398   6.796  18.819  0.00  0.00    +0.000 OA
BRANCH  15  16
ATOM     16  C   UNL     1       7.551   5.457  18.912  0.00  0.00    +0.000 C 
ATOM     17  O   UNL     1       8.570   4.826  18.695  0.00  0.00    +0.000 OA
BRANCH  16  18
ATOM     18  C   UNL     1       6.240   4.874  19.253  0.00  0.00    +0.000 C 
ATOM     19  C   UNL     1       5.630   4.073  18.369  0.00  0.00    +0.000 C 
BRANCH  19  20
ATOM     20  C   UNL     1       4.295   3.485  18.549  0.00  0.00    +0.000 A 
ATOM     21  C   UNL     1       3.522   3.203  17.415  0.00  0.00    +0.000 A 
ATOM     22  C   UNL     1       2.218   2.714  17.537  0.00  0.00    +0.000 A 
ATOM     23  C   UNL     1       1.663   2.512  18.800  0.00  0.00    +0.000 A 
ATOM     24  C   UNL     1       2.427   2.799  19.938  0.00  0.00    +0.000 A 
ATOM     25  C   UNL     1       3.738   3.286  19.819  0.00  0.00    +0.000 A 
BRANCH  24  26
ATOM     26  N   UNL     1       1.843   2.610  21.271  0.00  0.00    +0.000 N 
ATOM     27  O   UNL     1       0.632   2.835  21.408  0.00  0.00    +0.000 OA
ATOM     28  O   UNL     1       2.597   2.239  22.182  0.00  0.00    +0.000 OA
ENDBRANCH  24  26
ENDBRANCH  19  20
ENDBRANCH  16  18
ENDBRANCH  15  16
ENDBRANCH   1  15
TORSDOF 8
ENDMDL
MODEL 2
REMARK VINA RESULT:      -7.7      4.195      7.638
REMARK  Name = 
REMARK  10 active torsions:
REMARK  status: ('A' for Active; 'I' for Inactive)
REMARK    1  A    between atoms: C_1  and  C_2
REMARK    2  A    between atoms: C_2  and  C_3
REMARK    3  A    between atoms: C_2  and  C_4
REMARK    4  A    between atoms: C_7  and  N_8
REMARK    5  A    between atoms: C_9  and  C_11
REMARK    6  A    between atoms: C_11  and  O_12
REMARK    7  A    between atoms: O_12  and  C_13
REMARK    8  A    between atoms: C_13  and  C_15
REMARK    9  A    between atoms: C_16  and  C_17
REMARK   10  A    between atoms: C_21  and  N_22
REMARK                            x       y       z     vdW  Elec       q    Type
REMARK                         _______ _______ _______ _____ _____    ______ ____
ROOT
ATOM      1  C   UNL     1       8.076   7.188  18.248  0.00  0.00    +0.000 C 
ENDROOT
BRANCH   1   3
ATOM      2  N   UNL     1       9.187   9.153  19.189  0.00  0.00    +0.000 N 
ATOM      3  C   UNL     1       8.232   8.701  18.284  0.00  0.00    +0.000 C 
ATOM      4  O   UNL     1       7.519   9.393  17.562  0.00  0.00    +0.000 OA
ATOM      5  H   UNL     1       9.680   8.460  19.734  0.00  0.00    +0.000 HD
BRANCH   2   9
ATOM      6  C   UNL     1      10.250  13.236  19.748  0.00  0.00    +0.000 A 
ATOM      7  C   UNL     1       9.895  12.444  20.842  0.00  0.00    +0.000 A 
ATOM      8  C   UNL     1       9.554  11.101  20.671  0.00  0.00    +0.000 A 
ATOM      9  C   UNL     1       9.551  10.507  19.408  0.00  0.00    +0.000 A 
ATOM     10  C   UNL     1       9.917  11.292  18.308  0.00  0.00    +0.000 A 
ATOM     11  C   UNL     1      10.258  12.642  18.478  0.00  0.00    +0.000 A 
BRANCH   6  13
ATOM     12  C   UNL     1      10.319  15.147  21.396  0.00  0.00    +0.000 C 
ATOM     13  C   UNL     1      10.594  14.700  19.959  0.00  0.00    +0.000 C 
ATOM     14  C   UNL     1      12.047  14.982  19.569  0.00  0.00    +0.000 C 
ENDBRANCH   6  13
ENDBRANCH   2   9
ENDBRANCH   1   3
BRANCH   1  15
ATOM     15  O   UNL     1       6.744   6.839  17.871  0.00  0.00    +0.000 OA
BRANCH  15  16
ATOM     16  C   UNL     1       6.633   5.977  16.837  0.00  0.00    +0.000 C 
ATOM     17  O   UNL     1       7.294   5.981  15.814  0.00  0.00    +0.000 OA
BRANCH  16  18
ATOM     18  C   UNL     1       5.513   5.063  17.128  0.00  0.00    +0.000 C 
ATOM     19  C   UNL     1       4.595   5.420  18.036  0.00  0.00    +0.000 C 
BRANCH  19  20
ATOM     20  C   UNL     1       3.472   4.577  18.472  0.00  0.00    +0.000 A 
ATOM     21  C   UNL     1       2.360   4.445  17.629  0.00  0.00    +0.000 A 
ATOM     22  C   UNL     1       1.237   3.716  18.031  0.00  0.00    +0.000 A 
ATOM     23  C   UNL     1       1.206   3.117  19.290  0.00  0.00    +0.000 A 
ATOM     24  C   UNL     1       2.310   3.251  20.139  0.00  0.00    +0.000 A 
ATOM     25  C   UNL     1       3.442   3.979  19.738  0.00  0.00    +0.000 A 
BRANCH  24  26
ATOM     26  N   UNL     1       2.278   2.643  21.474  0.00  0.00    +0.000 N 
ATOM     27  O   UNL     1       1.198   2.640  22.081  0.00  0.00    +0.000 OA
ATOM     28  O   UNL     1       3.334   2.170  21.918  0.00  0.00    +0.000 OA
ENDBRANCH  24  26
ENDBRANCH  19  20
ENDBRANCH  16  18
ENDBRANCH  15  16
ENDBRANCH   1  15
TORSDOF 8
ENDMDL
MODEL 3
REMARK VINA RESULT:      -7.7      4.740      8.195
REMARK  Name = 
REMARK  10 active torsions:
REMARK  status: ('A' for Active; 'I' for Inactive)
REMARK    1  A    between atoms: C_1  and  C_2
REMARK    2  A    between atoms: C_2  and  C_3
REMARK    3  A    between atoms: C_2  and  C_4
REMARK    4  A    between atoms: C_7  and  N_8
REMARK    5  A    between atoms: C_9  and  C_11
REMARK    6  A    between atoms: C_11  and  O_12
REMARK    7  A    between atoms: O_12  and  C_13
REMARK    8  A    between atoms: C_13  and  C_15
REMARK    9  A    between atoms: C_16  and  C_17
REMARK   10  A    between atoms: C_21  and  N_22
REMARK                            x       y       z     vdW  Elec       q    Type
REMARK                         _______ _______ _______ _____ _____    ______ ____
ROOT
ATOM      1  C   UNL     1       3.436   3.624  19.852  0.00  0.00    +0.000 C 
ENDROOT
BRANCH   1   3
ATOM      2  N   UNL     1       2.864   5.999  19.978  0.00  0.00    +0.000 N 
ATOM      3  C   UNL     1       2.570   4.780  19.374  0.00  0.00    +0.000 C 
ATOM      4  O   UNL     1       1.691   4.565  18.544  0.00  0.00    +0.000 OA
ATOM      5  H   UNL     1       3.604   6.013  20.666  0.00  0.00    +0.000 HD
BRANCH   2   9
ATOM      6  C   UNL     1       0.953   9.688  19.053  0.00  0.00    +0.000 A 
ATOM      7  C   UNL     1       0.907   9.176  20.352  0.00  0.00    +0.000 A 
ATOM      8  C   UNL     1       1.540   7.972  20.669  0.00  0.00    +0.000 A 
ATOM      9  C   UNL     1       2.230   7.238  19.703  0.00  0.00    +0.000 A 
ATOM     10  C   UNL     1       2.289   7.750  18.401  0.00  0.00    +0.000 A 
ATOM     11  C   UNL     1       1.654   8.959  18.081  0.00  0.00    +0.000 A 
BRANCH   6  13
ATOM     12  C   UNL     1      -1.201  10.746  18.270  0.00  0.00    +0.000 C 
ATOM     13  C   UNL     1       0.238  10.987  18.731  0.00  0.00    +0.000 C 
ATOM     14  C   UNL     1       0.274  11.942  19.927  0.00  0.00    +0.000 C 
ENDBRANCH   6  13
ENDBRANCH   2   9
ENDBRANCH   1   3
BRANCH   1  15
ATOM     15  O   UNL     1       4.354   3.241  18.827  0.00  0.00    +0.000 OA
BRANCH  15  16
ATOM     16  C   UNL     1       5.144   4.226  18.348  0.00  0.00    +0.000 C 
ATOM     17  O   UNL     1       5.619   5.150  18.984  0.00  0.00    +0.000 OA
BRANCH  16  18
ATOM     18  C   UNL     1       5.278   4.032  16.892  0.00  0.00    +0.000 C 
ATOM     19  C   UNL     1       6.409   4.412  16.282  0.00  0.00    +0.000 C 
BRANCH  19  20
ATOM     20  C   UNL     1       6.646   4.343  14.833  0.00  0.00    +0.000 A 
ATOM     21  C   UNL     1       7.630   5.166  14.270  0.00  0.00    +0.000 A 
ATOM     22  C   UNL     1       7.841   5.193  12.889  0.00  0.00    +0.000 A 
ATOM     23  C   UNL     1       7.059   4.402  12.047  0.00  0.00    +0.000 A 
ATOM     24  C   UNL     1       6.068   3.583  12.602  0.00  0.00    +0.000 A 
ATOM     25  C   UNL     1       5.857   3.551  13.990  0.00  0.00    +0.000 A 
BRANCH  24  26
ATOM     26  N   UNL     1       5.226   2.764  11.723  0.00  0.00    +0.000 N 
ATOM     27  O   UNL     1       5.649   1.647  11.395  0.00  0.00    +0.000 OA
ATOM     28  O   UNL     1       4.141   3.240  11.358  0.00  0.00    +0.000 OA
ENDBRANCH  24  26
ENDBRANCH  19  20
ENDBRANCH  16  18
ENDBRANCH  15  16
ENDBRANCH   1  15
TORSDOF 8
ENDMDL
MODEL 4
REMARK VINA RESULT:      -7.5      5.241      8.458
REMARK  Name = 
REMARK  10 active torsions:
REMARK  status: ('A' for Active; 'I' for Inactive)
REMARK    1  A    between atoms: C_1  and  C_2
REMARK    2  A    between atoms: C_2  and  C_3
REMARK    3  A    between atoms: C_2  and  C_4
REMARK    4  A    between atoms: C_7  and  N_8
REMARK    5  A    between atoms: C_9  and  C_11
REMARK    6  A    between atoms: C_11  and  O_12
REMARK    7  A    between atoms: O_12  and  C_13
REMARK    8  A    between atoms: C_13  and  C_15
REMARK    9  A    between atoms: C_16  and  C_17
REMARK   10  A    between atoms: C_21  and  N_22
REMARK                            x       y       z     vdW  Elec       q    Type
REMARK                         _______ _______ _______ _____ _____    ______ ____
ROOT
ATOM      1  C   UNL     1       3.988   5.102  19.537  0.00  0.00    +0.000 C 
ENDROOT
BRANCH   1   3
ATOM      2  N   UNL     1       2.768   7.211  19.739  0.00  0.00    +0.000 N 
ATOM      3  C   UNL     1       2.772   5.940  19.174  0.00  0.00    +0.000 C 
ATOM      4  O   UNL     1       1.901   5.451  18.459  0.00  0.00    +0.000 OA
ATOM      5  H   UNL     1       3.548   7.463  20.329  0.00  0.00    +0.000 HD
BRANCH   2   9
ATOM      6  C   UNL     1      -0.216  10.210  19.271  0.00  0.00    +0.000 A 
ATOM      7  C   UNL     1       0.605   9.858  18.196  0.00  0.00    +0.000 A 
ATOM      8  C   UNL     1       1.581   8.868  18.336  0.00  0.00    +0.000 A 
ATOM      9  C   UNL     1       1.772   8.204  19.549  0.00  0.00    +0.000 A 
ATOM     10  C   UNL     1       0.947   8.544  20.627  0.00  0.00    +0.000 A 
ATOM     11  C   UNL     1      -0.033   9.538  20.488  0.00  0.00    +0.000 A 
BRANCH   6  13
ATOM     12  C   UNL     1      -0.645  12.574  18.495  0.00  0.00    +0.000 C 
ATOM     13  C   UNL     1      -1.252  11.305  19.098  0.00  0.00    +0.000 C 
ATOM     14  C   UNL     1      -2.432  10.813  18.255  0.00  0.00    +0.000 C 
ENDBRANCH   6  13
ENDBRANCH   2   9
ENDBRANCH   1   3
BRANCH   1  15
ATOM     15  O   UNL     1       4.689   4.713  18.354  0.00  0.00    +0.000 OA
BRANCH  15  16
ATOM     16  C   UNL     1       6.035   4.670  18.457  0.00  0.00    +0.000 C 
ATOM     17  O   UNL     1       6.695   4.905  19.453  0.00  0.00    +0.000 OA
BRANCH  16  18
ATOM     18  C   UNL     1       6.581   4.358  17.123  0.00  0.00    +0.000 C 
ATOM     19  C   UNL     1       5.985   4.867  16.036  0.00  0.00    +0.000 C 
BRANCH  19  20
ATOM     20  C   UNL     1       6.381   4.579  14.649  0.00  0.00    +0.000 A 
ATOM     21  C   UNL     1       7.450   5.292  14.090  0.00  0.00    +0.000 A 
ATOM     22  C   UNL     1       7.815   5.109  12.754  0.00  0.00    +0.000 A 
ATOM     23  C   UNL     1       7.106   4.216  11.952  0.00  0.00    +0.000 A 
ATOM     24  C   UNL     1       6.032   3.506  12.501  0.00  0.00    +0.000 A 
ATOM     25  C   UNL     1       5.665   3.684  13.844  0.00  0.00    +0.000 A 
BRANCH  24  26
ATOM     26  N   UNL     1       5.266   2.580  11.659  0.00  0.00    +0.000 N 
ATOM     27  O   UNL     1       5.793   1.499  11.362  0.00  0.00    +0.000 OA
ATOM     28  O   UNL     1       4.136   2.935  11.292  0.00  0.00    +0.000 OA
ENDBRANCH  24  26
ENDBRANCH  19  20
ENDBRANCH  16  18
ENDBRANCH  15  16
ENDBRANCH   1  15
TORSDOF 8
ENDMDL
MODEL 5
REMARK VINA RESULT:      -7.4      1.076      1.184
REMARK  Name = 
REMARK  10 active torsions:
REMARK  status: ('A' for Active; 'I' for Inactive)
REMARK    1  A    between atoms: C_1  and  C_2
REMARK    2  A    between atoms: C_2  and  C_3
REMARK    3  A    between atoms: C_2  and  C_4
REMARK    4  A    between atoms: C_7  and  N_8
REMARK    5  A    between atoms: C_9  and  C_11
REMARK    6  A    between atoms: C_11  and  O_12
REMARK    7  A    between atoms: O_12  and  C_13
REMARK    8  A    between atoms: C_13  and  C_15
REMARK    9  A    between atoms: C_16  and  C_17
REMARK   10  A    between atoms: C_21  and  N_22
REMARK                            x       y       z     vdW  Elec       q    Type
REMARK                         _______ _______ _______ _____ _____    ______ ____
ROOT
ATOM      1  C   UNL     1       7.368   7.284  17.691  0.00  0.00    +0.000 C 
ENDROOT
BRANCH   1   3
ATOM      2  N   UNL     1       7.278   5.722  15.812  0.00  0.00    +0.000 N 
ATOM      3  C   UNL     1       6.607   6.731  16.495  0.00  0.00    +0.000 C 
ATOM      4  O   UNL     1       5.512   7.209  16.210  0.00  0.00    +0.000 OA
ATOM      5  H   UNL     1       8.189   5.451  16.154  0.00  0.00    +0.000 HD
BRANCH   2   9
ATOM      6  C   UNL     1       5.918   3.599  12.383  0.00  0.00    +0.000 A 
ATOM      7  C   UNL     1       5.161   3.601  13.558  0.00  0.00    +0.000 A 
ATOM      8  C   UNL     1       5.593   4.302  14.685  0.00  0.00    +0.000 A 
ATOM      9  C   UNL     1       6.792   5.017  14.680  0.00  0.00    +0.000 A 
ATOM     10  C   UNL     1       7.550   5.029  13.504  0.00  0.00    +0.000 A 
ATOM     11  C   UNL     1       7.118   4.324  12.371  0.00  0.00    +0.000 A 
BRANCH   6  13
ATOM     12  C   UNL     1       5.862   1.341  11.255  0.00  0.00    +0.000 C 
ATOM     13  C   UNL     1       5.436   2.810  11.180  0.00  0.00    +0.000 C 
ATOM     14  C   UNL     1       3.919   2.929  11.019  0.00  0.00    +0.000 C 
ENDBRANCH   6  13
ENDBRANCH   2   9
ENDBRANCH   1   3
BRANCH   1  15
ATOM     15  O   UNL     1       8.268   6.299  18.200  0.00  0.00    +0.000 OA
BRANCH  15  16
ATOM     16  C   UNL     1       7.893   5.699  19.350  0.00  0.00    +0.000 C 
ATOM     17  O   UNL     1       8.625   5.346  20.258  0.00  0.00    +0.000 OA
BRANCH  16  18
ATOM     18  C   UNL     1       6.437   5.473  19.290  0.00  0.00    +0.000 C 
ATOM     19  C   UNL     1       5.972   4.328  18.772  0.00  0.00    +0.000 C 
BRANCH  19  20
ATOM     20  C   UNL     1       4.550   4.006  18.587  0.00  0.00    +0.000 A 
ATOM     21  C   UNL     1       4.150   3.377  17.400  0.00  0.00    +0.000 A 
ATOM     22  C   UNL     1       2.800   3.119  17.144  0.00  0.00    +0.000 A 
ATOM     23  C   UNL     1       1.828   3.498  18.069  0.00  0.00    +0.000 A 
ATOM     24  C   UNL     1       2.221   4.133  19.253  0.00  0.00    +0.000 A 
ATOM     25  C   UNL     1       3.575   4.390  19.516  0.00  0.00    +0.000 A 
BRANCH  24  26
ATOM     26  N   UNL     1       1.203   4.555  20.223  0.00  0.00    +0.000 N 
ATOM     27  O   UNL     1       1.393   5.616  20.834  0.00  0.00    +0.000 OA
ATOM     28  O   UNL     1       0.215   3.823  20.376  0.00  0.00    +0.000 OA
ENDBRANCH  24  26
ENDBRANCH  19  20
ENDBRANCH  16  18
ENDBRANCH  15  16
ENDBRANCH   1  15
TORSDOF 8
ENDMDL
MODEL 6
REMARK VINA RESULT:      -7.3      4.751      9.267
REMARK  Name = 
REMARK  10 active torsions:
REMARK  status: ('A' for Active; 'I' for Inactive)
REMARK    1  A    between atoms: C_1  and  C_2
REMARK    2  A    between atoms: C_2  and  C_3
REMARK    3  A    between atoms: C_2  and  C_4
REMARK    4  A    between atoms: C_7  and  N_8
REMARK    5  A    between atoms: C_9  and  C_11
REMARK    6  A    between atoms: C_11  and  O_12
REMARK    7  A    between atoms: O_12  and  C_13
REMARK    8  A    between atoms: C_13  and  C_15
REMARK    9  A    between atoms: C_16  and  C_17
REMARK   10  A    between atoms: C_21  and  N_22
REMARK                            x       y       z     vdW  Elec       q    Type
REMARK                         _______ _______ _______ _____ _____    ______ ____
ROOT
ATOM      1  C   UNL     1       8.344   6.381  18.328  0.00  0.00    +0.000 C 
ENDROOT
BRANCH   1   3
ATOM      2  N   UNL     1       6.021   5.617  18.286  0.00  0.00    +0.000 N 
ATOM      3  C   UNL     1       7.184   5.706  19.045  0.00  0.00    +0.000 C 
ATOM      4  O   UNL     1       7.337   5.325  20.202  0.00  0.00    +0.000 OA
ATOM      5  H   UNL     1       6.042   6.000  17.352  0.00  0.00    +0.000 HD
BRANCH   2   9
ATOM      6  C   UNL     1       2.326   3.912  19.534  0.00  0.00    +0.000 A 
ATOM      7  C   UNL     1       3.188   3.195  18.699  0.00  0.00    +0.000 A 
ATOM      8  C   UNL     1       4.407   3.741  18.292  0.00  0.00    +0.000 A 
ATOM      9  C   UNL     1       4.803   5.017  18.697  0.00  0.00    +0.000 A 
ATOM     10  C   UNL     1       3.950   5.737  19.542  0.00  0.00    +0.000 A 
ATOM     11  C   UNL     1       2.725   5.191  19.951  0.00  0.00    +0.000 A 
BRANCH   6  13
ATOM     12  C   UNL     1       0.538   2.225  18.959  0.00  0.00    +0.000 C 
ATOM     13  C   UNL     1       0.997   3.305  19.942  0.00  0.00    +0.000 C 
ATOM     14  C   UNL     1       1.064   2.750  21.368  0.00  0.00    +0.000 C 
ENDBRANCH   6  13
ENDBRANCH   2   9
ENDBRANCH   1   3
BRANCH   1  15
ATOM     15  O   UNL     1       8.459   7.741  18.750  0.00  0.00    +0.000 OA
BRANCH  15  16
ATOM     16  C   UNL     1       7.910   8.660  17.927  0.00  0.00    +0.000 C 
ATOM     17  O   UNL     1       6.971   8.488  17.170  0.00  0.00    +0.000 OA
BRANCH  16  18
ATOM     18  C   UNL     1       8.695   9.902  18.046  0.00  0.00    +0.000 C 
ATOM     19  C   UNL     1       9.237  10.224  19.229  0.00  0.00    +0.000 C 
BRANCH  19  20
ATOM     20  C   UNL     1       9.978  11.463  19.504  0.00  0.00    +0.000 A 
ATOM     21  C   UNL     1      11.281  11.595  19.004  0.00  0.00    +0.000 A 
ATOM     22  C   UNL     1      12.054  12.721  19.302  0.00  0.00    +0.000 A 
ATOM     23  C   UNL     1      11.537  13.728  20.116  0.00  0.00    +0.000 A 
ATOM     24  C   UNL     1      10.239  13.599  20.624  0.00  0.00    +0.000 A 
ATOM     25  C   UNL     1       9.458  12.472  20.324  0.00  0.00    +0.000 A 
BRANCH  24  26
ATOM     26  N   UNL     1       9.695  14.644  21.499  0.00  0.00    +0.000 N 
ATOM     27  O   UNL     1      10.496  15.313  22.167  0.00  0.00    +0.000 OA
ATOM     28  O   UNL     1       8.465  14.794  21.520  0.00  0.00    +0.000 OA
ENDBRANCH  24  26
ENDBRANCH  19  20
ENDBRANCH  16  18
ENDBRANCH  15  16
ENDBRANCH   1  15
TORSDOF 8
ENDMDL
MODEL 7
REMARK VINA RESULT:      -7.3      1.531      1.685
REMARK  Name = 
REMARK  10 active torsions:
REMARK  status: ('A' for Active; 'I' for Inactive)
REMARK    1  A    between atoms: C_1  and  C_2
REMARK    2  A    between atoms: C_2  and  C_3
REMARK    3  A    between atoms: C_2  and  C_4
REMARK    4  A    between atoms: C_7  and  N_8
REMARK    5  A    between atoms: C_9  and  C_11
REMARK    6  A    between atoms: C_11  and  O_12
REMARK    7  A    between atoms: O_12  and  C_13
REMARK    8  A    between atoms: C_13  and  C_15
REMARK    9  A    between atoms: C_16  and  C_17
REMARK   10  A    between atoms: C_21  and  N_22
REMARK                            x       y       z     vdW  Elec       q    Type
REMARK                         _______ _______ _______ _____ _____    ______ ____
ROOT
ATOM      1  C   UNL     1       7.784   7.174  17.924  0.00  0.00    +0.000 C 
ENDROOT
BRANCH   1   3
ATOM      2  N   UNL     1       7.562   5.616  16.052  0.00  0.00    +0.000 N 
ATOM      3  C   UNL     1       7.002   6.710  16.704  0.00  0.00    +0.000 C 
ATOM      4  O   UNL     1       5.989   7.321  16.375  0.00  0.00    +0.000 OA
ATOM      5  H   UNL     1       8.418   5.235  16.429  0.00  0.00    +0.000 HD
BRANCH   2   9
ATOM      6  C   UNL     1       6.064   3.672  12.575  0.00  0.00    +0.000 A 
ATOM      7  C   UNL     1       5.406   3.532  13.800  0.00  0.00    +0.000 A 
ATOM      8  C   UNL     1       5.884   4.174  14.945  0.00  0.00    +0.000 A 
ATOM      9  C   UNL     1       7.031   4.968  14.907  0.00  0.00    +0.000 A 
ATOM     10  C   UNL     1       7.690   5.120  13.681  0.00  0.00    +0.000 A 
ATOM     11  C   UNL     1       7.212   4.476  12.531  0.00  0.00    +0.000 A 
BRANCH   6  13
ATOM     12  C   UNL     1       5.906   1.459  11.369  0.00  0.00    +0.000 C 
ATOM     13  C   UNL     1       5.537   2.945  11.352  0.00  0.00    +0.000 C 
ATOM     14  C   UNL     1       4.023   3.127  11.217  0.00  0.00    +0.000 C 
ENDBRANCH   6  13
ENDBRANCH   2   9
ENDBRANCH   1   3
BRANCH   1  15
ATOM     15  O   UNL     1       8.336   6.049  18.611  0.00  0.00    +0.000 OA
BRANCH  15  16
ATOM     16  C   UNL     1       7.563   5.518  19.583  0.00  0.00    +0.000 C 
ATOM     17  O   UNL     1       7.854   5.403  20.760  0.00  0.00    +0.000 OA
BRANCH  16  18
ATOM     18  C   UNL     1       6.321   5.027  18.957  0.00  0.00    +0.000 C 
ATOM     19  C   UNL     1       5.154   5.600  19.281  0.00  0.00    +0.000 C 
BRANCH  19  20
ATOM     20  C   UNL     1       3.839   5.163  18.790  0.00  0.00    +0.000 A 
ATOM     21  C   UNL     1       2.995   6.108  18.189  0.00  0.00    +0.000 A 
ATOM     22  C   UNL     1       1.707   5.759  17.774  0.00  0.00    +0.000 A 
ATOM     23  C   UNL     1       1.239   4.460  17.965  0.00  0.00    +0.000 A 
ATOM     24  C   UNL     1       2.074   3.513  18.571  0.00  0.00    +0.000 A 
ATOM     25  C   UNL     1       3.370   3.858  18.986  0.00  0.00    +0.000 A 
BRANCH  24  26
ATOM     26  N   UNL     1       1.582   2.149  18.797  0.00  0.00    +0.000 N 
ATOM     27  O   UNL     1       2.420   1.262  19.012  0.00  0.00    +0.000 OA
ATOM     28  O   UNL     1       0.358   1.964  18.756  0.00  0.00    +0.000 OA
ENDBRANCH  24  26
ENDBRANCH  19  20
ENDBRANCH  16  18
ENDBRANCH  15  16
ENDBRANCH   1  15
TORSDOF 8
ENDMDL
MODEL 8
REMARK VINA RESULT:      -7.2      4.164      7.493
REMARK  Name = 
REMARK  10 active torsions:
REMARK  status: ('A' for Active; 'I' for Inactive)
REMARK    1  A    between atoms: C_1  and  C_2
REMARK    2  A    between atoms: C_2  and  C_3
REMARK    3  A    between atoms: C_2  and  C_4
REMARK    4  A    between atoms: C_7  and  N_8
REMARK    5  A    between atoms: C_9  and  C_11
REMARK    6  A    between atoms: C_11  and  O_12
REMARK    7  A    between atoms: O_12  and  C_13
REMARK    8  A    between atoms: C_13  and  C_15
REMARK    9  A    between atoms: C_16  and  C_17
REMARK   10  A    between atoms: C_21  and  N_22
REMARK                            x       y       z     vdW  Elec       q    Type
REMARK                         _______ _______ _______ _____ _____    ______ ____
ROOT
ATOM      1  C   UNL     1       7.989   6.975  18.270  0.00  0.00    +0.000 C 
ENDROOT
BRANCH   1   3
ATOM      2  N   UNL     1       9.046   9.009  19.123  0.00  0.00    +0.000 N 
ATOM      3  C   UNL     1       8.173   8.483  18.176  0.00  0.00    +0.000 C 
ATOM      4  O   UNL     1       7.548   9.109  17.324  0.00  0.00    +0.000 OA
ATOM      5  H   UNL     1       9.468   8.367  19.778  0.00  0.00    +0.000 HD
BRANCH   2   9
ATOM      6  C   UNL     1      10.138  13.114  19.390  0.00  0.00    +0.000 A 
ATOM      7  C   UNL     1       9.657  12.438  20.514  0.00  0.00    +0.000 A 
ATOM      8  C   UNL     1       9.306  11.088  20.439  0.00  0.00    +0.000 A 
ATOM      9  C   UNL     1       9.416  10.374  19.246  0.00  0.00    +0.000 A 
ATOM     10  C   UNL     1       9.907  11.042  18.118  0.00  0.00    +0.000 A 
ATOM     11  C   UNL     1      10.260  12.398  18.190  0.00  0.00    +0.000 A 
BRANCH   6  13
ATOM     12  C   UNL     1       9.493  15.466  18.735  0.00  0.00    +0.000 C 
ATOM     13  C   UNL     1      10.491  14.587  19.492  0.00  0.00    +0.000 C 
ATOM     14  C   UNL     1      10.599  15.023  20.956  0.00  0.00    +0.000 C 
ENDBRANCH   6  13
ENDBRANCH   2   9
ENDBRANCH   1   3
BRANCH   1  15
ATOM     15  O   UNL     1       7.173   6.511  17.193  0.00  0.00    +0.000 OA
BRANCH  15  16
ATOM     16  C   UNL     1       7.058   5.171  17.080  0.00  0.00    +0.000 C 
ATOM     17  O   UNL     1       7.824   4.422  16.500  0.00  0.00    +0.000 OA
BRANCH  16  18
ATOM     18  C   UNL     1       5.792   4.769  17.723  0.00  0.00    +0.000 C 
ATOM     19  C   UNL     1       5.130   5.657  18.477  0.00  0.00    +0.000 C 
BRANCH  19  20
ATOM     20  C   UNL     1       3.901   5.368  19.230  0.00  0.00    +0.000 A 
ATOM     21  C   UNL     1       2.884   6.332  19.258  0.00  0.00    +0.000 A 
ATOM     22  C   UNL     1       1.730   6.136  20.020  0.00  0.00    +0.000 A 
ATOM     23  C   UNL     1       1.580   4.975  20.777  0.00  0.00    +0.000 A 
ATOM     24  C   UNL     1       2.595   4.011  20.759  0.00  0.00    +0.000 A 
ATOM     25  C   UNL     1       3.754   4.202  19.992  0.00  0.00    +0.000 A 
BRANCH  24  26
ATOM     26  N   UNL     1       2.456   2.795  21.570  0.00  0.00    +0.000 N 
ATOM     27  O   UNL     1       1.348   2.559  22.072  0.00  0.00    +0.000 OA
ATOM     28  O   UNL     1       3.457   2.077  21.706  0.00  0.00    +0.000 OA
ENDBRANCH  24  26
ENDBRANCH  19  20
ENDBRANCH  16  18
ENDBRANCH  15  16
ENDBRANCH   1  15
TORSDOF 8
ENDMDL
MODEL 9
REMARK VINA RESULT:      -7.1      4.120      7.918
REMARK  Name = 
REMARK  10 active torsions:
REMARK  status: ('A' for Active; 'I' for Inactive)
REMARK    1  A    between atoms: C_1  and  C_2
REMARK    2  A    between atoms: C_2  and  C_3
REMARK    3  A    between atoms: C_2  and  C_4
REMARK    4  A    between atoms: C_7  and  N_8
REMARK    5  A    between atoms: C_9  and  C_11
REMARK    6  A    between atoms: C_11  and  O_12
REMARK    7  A    between atoms: O_12  and  C_13
REMARK    8  A    between atoms: C_13  and  C_15
REMARK    9  A    between atoms: C_16  and  C_17
REMARK   10  A    between atoms: C_21  and  N_22
REMARK                            x       y       z     vdW  Elec       q    Type
REMARK                         _______ _______ _______ _____ _____    ______ ____
ROOT
ATOM      1  C   UNL     1       2.194   2.991  20.809  0.00  0.00    +0.000 C 
ENDROOT
BRANCH   1   3
ATOM      2  N   UNL     1       2.015   5.428  20.898  0.00  0.00    +0.000 N 
ATOM      3  C   UNL     1       1.708   4.283  20.170  0.00  0.00    +0.000 C 
ATOM      4  O   UNL     1       1.084   4.230  19.113  0.00  0.00    +0.000 OA
ATOM      5  H   UNL     1       2.516   5.309  21.767  0.00  0.00    +0.000 HD
BRANCH   2   9
ATOM      6  C   UNL     1       1.087   9.397  19.674  0.00  0.00    +0.000 A 
ATOM      7  C   UNL     1       0.681   8.933  20.927  0.00  0.00    +0.000 A 
ATOM      8  C   UNL     1       0.989   7.636  21.343  0.00  0.00    +0.000 A 
ATOM      9  C   UNL     1       1.704   6.761  20.523  0.00  0.00    +0.000 A 
ATOM     10  C   UNL     1       2.123   7.223  19.270  0.00  0.00    +0.000 A 
ATOM     11  C   UNL     1       1.814   8.525  18.851  0.00  0.00    +0.000 A 
BRANCH   6  13
ATOM     12  C   UNL     1       1.858  11.477  18.468  0.00  0.00    +0.000 C 
ATOM     13  C   UNL     1       0.719  10.804  19.238  0.00  0.00    +0.000 C 
ATOM     14  C   UNL     1      -0.569  10.801  18.411  0.00  0.00    +0.000 C 
ENDBRANCH   6  13
ENDBRANCH   2   9
ENDBRANCH   1   3
BRANCH   1  15
ATOM     15  O   UNL     1       3.581   3.094  21.133  0.00  0.00    +0.000 OA
BRANCH  15  16
ATOM     16  C   UNL     1       4.424   2.406  20.333  0.00  0.00    +0.000 C 
ATOM     17  O   UNL     1       5.084   1.430  20.641  0.00  0.00    +0.000 OA
BRANCH  16  18
ATOM     18  C   UNL     1       4.467   3.090  19.026  0.00  0.00    +0.000 C 
ATOM     19  C   UNL     1       5.322   4.105  18.846  0.00  0.00    +0.000 C 
BRANCH  19  20
ATOM     20  C   UNL     1       5.417   4.917  17.624  0.00  0.00    +0.000 A 
ATOM     21  C   UNL     1       4.684   6.109  17.547  0.00  0.00    +0.000 A 
ATOM     22  C   UNL     1       4.682   6.876  16.379  0.00  0.00    +0.000 A 
ATOM     23  C   UNL     1       5.406   6.454  15.264  0.00  0.00    +0.000 A 
ATOM     24  C   UNL     1       6.134   5.260  15.332  0.00  0.00    +0.000 A 
ATOM     25  C   UNL     1       6.142   4.489  16.505  0.00  0.00    +0.000 A 
BRANCH  24  26
ATOM     26  N   UNL     1       6.882   4.797  14.157  0.00  0.00    +0.000 N 
ATOM     27  O   UNL     1       6.484   3.771  13.588  0.00  0.00    +0.000 OA
ATOM     28  O   UNL     1       7.869   5.459  13.805  0.00  0.00    +0.000 OA
ENDBRANCH  24  26
ENDBRANCH  19  20
ENDBRANCH  16  18
ENDBRANCH  15  16
ENDBRANCH   1  15
TORSDOF 8
ENDMDL
