MODEL 1
REMARK VINA RESULT:      -7.5      0.000      0.000
REMARK  Name = 
REMARK  8 active torsions:
REMARK  status: ('A' for Active; 'I' for Inactive)
REMARK    1  A    between atoms: C_1  and  C_2
REMARK    2  A    between atoms: C_2  and  O_3
REMARK    3  A    between atoms: O_3  and  C_4
REMARK    4  A    between atoms: C_4  and  C_6
REMARK    5  A    between atoms: N_19  and  C_20
REMARK    6  A    between atoms: C_20  and  C_21
REMARK    7  A    between atoms: C_21  and  O_22
REMARK    8  A    between atoms: O_22  and  C_23
REMARK                            x       y       z     vdW  Elec       q    Type
REMARK                         _______ _______ _______ _____ _____    ______ ____
ROOT
ATOM      1  C   UNL     1       3.223   3.878  18.199  0.00  0.00    +0.000 C 
ATOM      2  N   UNL     1       3.587   3.636  16.798  0.00  0.00    +0.000 N 
ATOM      3  C   UNL     1       4.676   4.255  16.205  0.00  0.00    +0.000 A 
ATOM      4  C   UNL     1       5.126   3.779  14.967  0.00  0.00    +0.000 A 
ATOM      5  C   UNL     1       6.296   4.276  14.388  0.00  0.00    +0.000 A 
ATOM      6 CL   UNL     1       6.844   3.641  12.886  0.00  0.00    +0.000 Cl
ATOM      7  C   UNL     1       7.039   5.260  15.029  0.00  0.00    +0.000 A 
ATOM      8  C   UNL     1       6.602   5.758  16.254  0.00  0.00    +0.000 A 
ATOM      9 CL   UNL     1       7.596   6.952  17.009  0.00  0.00    +0.000 Cl
ATOM     10  C   UNL     1       5.426   5.253  16.826  0.00  0.00    +0.000 A 
ATOM     11  S   UNL     1       4.808   5.933  18.309  0.00  0.00    +0.000 S 
ATOM     12  O   UNL     1       4.688   7.364  18.116  0.00  0.00    +0.000 OA
ATOM     13  O   UNL     1       5.568   5.367  19.403  0.00  0.00    +0.000 OA
ATOM     14  N   UNL     1       3.212   5.330  18.455  0.00  0.00    +0.000 NA
ATOM     15  H   UNL     1       2.792   3.469  16.182  0.00  0.00    +0.000 HD
ENDROOT
BRANCH   1  16
ATOM     16  C   UNL     1       1.892   3.148  18.480  0.00  0.00    +0.000 C 
ATOM     17  O   UNL     1       0.813   3.471  17.991  0.00  0.00    +0.000 OA
BRANCH  16  18
ATOM     18  O   UNL     1       2.067   2.102  19.346  0.00  0.00    +0.000 OA
BRANCH  18  20
ATOM     19  C   UNL     1       1.464   2.707  21.633  0.00  0.00    +0.000 C 
ATOM     20  C   UNL     1       2.584   2.440  20.644  0.00  0.00    +0.000 C 
ENDBRANCH  18  20
ENDBRANCH  16  18
ENDBRANCH   1  16
BRANCH  14  21
ATOM     21  C   UNL     1       2.563   5.696  19.777  0.00  0.00    +0.000 C 
BRANCH  21  22
ATOM     22  C   UNL     1       2.077   7.153  19.814  0.00  0.00    +0.000 C 
BRANCH  22  23
ATOM     23  O   UNL     1       1.457   7.473  21.064  0.00  0.00    +0.000 OA
BRANCH  23  24
ATOM     24  C   UNL     1       0.830   8.700  21.089  0.00  0.00    +0.000 A 
ATOM     25  C   UNL     1       0.339   9.096  22.334  0.00  0.00    +0.000 A 
ATOM     26  C   UNL     1      -0.336  10.313  22.476  0.00  0.00    +0.000 A 
ATOM     27  C   UNL     1      -0.508  11.152  21.378  0.00  0.00    +0.000 A 
ATOM     28  C   UNL     1       0.001  10.778  20.141  0.00  0.00    +0.000 A 
ATOM     29  C   UNL     1       0.667   9.556  19.994  0.00  0.00    +0.000 A 
ENDBRANCH  23  24
ENDBRANCH  22  23
ENDBRANCH  21  22
ENDBRANCH  14  21
TORSDOF 7
ENDMDL
MODEL 2
REMARK VINA RESULT:      -7.2      0.715      1.322
REMARK  Name = 
REMARK  8 active torsions:
REMARK  status: ('A' for Active; 'I' for Inactive)
REMARK    1  A    between atoms: C_1  and  C_2
REMARK    2  A    between atoms: C_2  and  O_3
REMARK    3  A    between atoms: O_3  and  C_4
REMARK    4  A    between atoms: C_4  and  C_6
REMARK    5  A    between atoms: N_19  and  C_20
REMARK    6  A    between atoms: C_20  and  C_21
REMARK    7  A    between atoms: C_21  and  O_22
REMARK    8  A    between atoms: O_22  and  C_23
REMARK                            x       y       z     vdW  Elec       q    Type
REMARK                         _______ _______ _______ _____ _____    ______ ____
ROOT
ATOM      1  C   UNL     1       3.458   3.679  18.289  0.00  0.00    +0.000 C 
ATOM      2  N   UNL     1       3.733   3.497  16.859  0.00  0.00    +0.000 N 
ATOM      3  C   UNL     1       4.766   4.164  16.219  0.00  0.00    +0.000 A 
ATOM      4  C   UNL     1       5.142   3.744  14.937  0.00  0.00    +0.000 A 
ATOM      5  C   UNL     1       6.261   4.290  14.301  0.00  0.00    +0.000 A 
ATOM      6 CL   UNL     1       6.720   3.723  12.743  0.00  0.00    +0.000 Cl
ATOM      7  C   UNL     1       7.023   5.267  14.929  0.00  0.00    +0.000 A 
ATOM      8  C   UNL     1       6.658   5.710  16.198  0.00  0.00    +0.000 A 
ATOM      9 CL   UNL     1       7.675   6.899  16.930  0.00  0.00    +0.000 Cl
ATOM     10  C   UNL     1       5.534   5.156  16.826  0.00  0.00    +0.000 A 
ATOM     11  S   UNL     1       5.003   5.767  18.372  0.00  0.00    +0.000 S 
ATOM     12  O   UNL     1       4.839   7.200  18.242  0.00  0.00    +0.000 OA
ATOM     13  O   UNL     1       5.846   5.180  19.391  0.00  0.00    +0.000 OA
ATOM     14  N   UNL     1       3.434   5.120  18.601  0.00  0.00    +0.000 NA
ATOM     15  H   UNL     1       2.903   3.334  16.291  0.00  0.00    +0.000 HD
ENDROOT
BRANCH   1  16
ATOM     16  C   UNL     1       2.165   2.908  18.629  0.00  0.00    +0.000 C 
ATOM     17  O   UNL     1       1.068   3.151  18.135  0.00  0.00    +0.000 OA
BRANCH  16  18
ATOM     18  O   UNL     1       2.396   1.927  19.556  0.00  0.00    +0.000 OA
BRANCH  18  20
ATOM     19  C   UNL     1       1.487   2.581  21.725  0.00  0.00    +0.000 C 
ATOM     20  C   UNL     1       2.731   2.377  20.879  0.00  0.00    +0.000 C 
ENDBRANCH  18  20
ENDBRANCH  16  18
ENDBRANCH   1  16
BRANCH  14  21
ATOM     21  C   UNL     1       2.867   5.422  19.975  0.00  0.00    +0.000 C 
BRANCH  21  22
ATOM     22  C   UNL     1       1.678   6.395  19.924  0.00  0.00    +0.000 C 
BRANCH  22  23
ATOM     23  O   UNL     1       2.019   7.675  20.467  0.00  0.00    +0.000 OA
BRANCH  23  24
ATOM     24  C   UNL     1       1.275   8.721  19.965  0.00  0.00    +0.000 A 
ATOM     25  C   UNL     1       1.528   9.049  18.632  0.00  0.00    +0.000 A 
ATOM     26  C   UNL     1       0.849  10.109  18.020  0.00  0.00    +0.000 A 
ATOM     27  C   UNL     1      -0.102  10.836  18.732  0.00  0.00    +0.000 A 
ATOM     28  C   UNL     1      -0.379  10.499  20.051  0.00  0.00    +0.000 A 
ATOM     29  C   UNL     1       0.307   9.447  20.667  0.00  0.00    +0.000 A 
ENDBRANCH  23  24
ENDBRANCH  22  23
ENDBRANCH  21  22
ENDBRANCH  14  21
TORSDOF 7
ENDMDL
MODEL 3
REMARK VINA RESULT:      -7.2      2.944      6.754
REMARK  Name = 
REMARK  8 active torsions:
REMARK  status: ('A' for Active; 'I' for Inactive)
REMARK    1  A    between atoms: C_1  and  C_2
REMARK    2  A    between atoms: C_2  and  O_3
REMARK    3  A    between atoms: O_3  and  C_4
REMARK    4  A    between atoms: C_4  and  C_6
REMARK    5  A    between atoms: N_19  and  C_20
REMARK    6  A    between atoms: C_20  and  C_21
REMARK    7  A    between atoms: C_21  and  O_22
REMARK    8  A    between atoms: O_22  and  C_23
REMARK                            x       y       z     vdW  Elec       q    Type
REMARK                         _______ _______ _______ _____ _____    ______ ____
ROOT
ATOM      1  C   UNL     1       1.827   5.080  20.395  0.00  0.00    +0.000 C 
ATOM      2  N   UNL     1       1.431   6.175  21.288  0.00  0.00    +0.000 N 
ATOM      3  C   UNL     1       1.360   7.489  20.852  0.00  0.00    +0.000 A 
ATOM      4  C   UNL     1       0.720   8.432  21.667  0.00  0.00    +0.000 A 
ATOM      5  C   UNL     1       0.501   9.738  21.219  0.00  0.00    +0.000 A 
ATOM      6 CL   UNL     1      -0.324  10.860  22.228  0.00  0.00    +0.000 Cl
ATOM      7  C   UNL     1       0.920  10.130  19.954  0.00  0.00    +0.000 A 
ATOM      8  C   UNL     1       1.571   9.212  19.133  0.00  0.00    +0.000 A 
ATOM      9 CL   UNL     1       2.028   9.762  17.560  0.00  0.00    +0.000 Cl
ATOM     10  C   UNL     1       1.785   7.905  19.592  0.00  0.00    +0.000 A 
ATOM     11  S   UNL     1       2.687   6.771  18.620  0.00  0.00    +0.000 S 
ATOM     12  O   UNL     1       3.954   7.391  18.288  0.00  0.00    +0.000 OA
ATOM     13  O   UNL     1       1.795   6.255  17.604  0.00  0.00    +0.000 OA
ATOM     14  N   UNL     1       3.050   5.465  19.666  0.00  0.00    +0.000 NA
ATOM     15  H   UNL     1       1.726   6.053  22.256  0.00  0.00    +0.000 HD
ENDROOT
BRANCH   1  16
ATOM     16  C   UNL     1       1.938   3.792  21.239  0.00  0.00    +0.000 C 
ATOM     17  O   UNL     1       2.763   3.623  22.133  0.00  0.00    +0.000 OA
BRANCH  16  18
ATOM     18  O   UNL     1       1.008   2.862  20.858  0.00  0.00    +0.000 OA
BRANCH  18  20
ATOM     19  C   UNL     1       1.304   1.889  18.638  0.00  0.00    +0.000 C 
ATOM     20  C   UNL     1       0.584   2.922  19.486  0.00  0.00    +0.000 C 
ENDBRANCH  18  20
ENDBRANCH  16  18
ENDBRANCH   1  16
BRANCH  14  21
ATOM     21  C   UNL     1       3.705   4.300  18.948  0.00  0.00    +0.000 C 
BRANCH  21  22
ATOM     22  C   UNL     1       5.103   3.977  19.500  0.00  0.00    +0.000 C 
BRANCH  22  23
ATOM     23  O   UNL     1       6.088   3.951  18.461  0.00  0.00    +0.000 OA
BRANCH  23  24
ATOM     24  C   UNL     1       6.706   5.162  18.236  0.00  0.00    +0.000 A 
ATOM     25  C   UNL     1       6.418   5.762  17.009  0.00  0.00    +0.000 A 
ATOM     26  C   UNL     1       7.005   6.984  16.661  0.00  0.00    +0.000 A 
ATOM     27  C   UNL     1       7.871   7.623  17.545  0.00  0.00    +0.000 A 
ATOM     28  C   UNL     1       8.143   7.046  18.779  0.00  0.00    +0.000 A 
ATOM     29  C   UNL     1       7.564   5.819  19.125  0.00  0.00    +0.000 A 
ENDBRANCH  23  24
ENDBRANCH  22  23
ENDBRANCH  21  22
ENDBRANCH  14  21
TORSDOF 7
ENDMDL
MODEL 4
REMARK VINA RESULT:      -7.1      0.891      1.115
REMARK  Name = 
REMARK  8 active torsions:
REMARK  status: ('A' for Active; 'I' for Inactive)
REMARK    1  A    between atoms: C_1  and  C_2
REMARK    2  A    between atoms: C_2  and  O_3
REMARK    3  A    between atoms: O_3  and  C_4
REMARK    4  A    between atoms: C_4  and  C_6
REMARK    5  A    between atoms: N_19  and  C_20
REMARK    6  A    between atoms: C_20  and  C_21
REMARK    7  A    between atoms: C_21  and  O_22
REMARK    8  A    between atoms: O_22  and  C_23
REMARK                            x       y       z     vdW  Elec       q    Type
REMARK                         _______ _______ _______ _____ _____    ______ ____
ROOT
ATOM      1  C   UNL     1       3.470   3.677  18.246  0.00  0.00    +0.000 C 
ATOM      2  N   UNL     1       3.715   3.531  16.807  0.00  0.00    +0.000 N 
ATOM      3  C   UNL     1       4.791   4.140  16.180  0.00  0.00    +0.000 A 
ATOM      4  C   UNL     1       5.120   3.743  14.877  0.00  0.00    +0.000 A 
ATOM      5  C   UNL     1       6.272   4.223  14.249  0.00  0.00    +0.000 A 
ATOM      6 CL   UNL     1       6.669   3.684  12.664  0.00  0.00    +0.000 Cl
ATOM      7  C   UNL     1       7.115   5.112  14.904  0.00  0.00    +0.000 A 
ATOM      8  C   UNL     1       6.799   5.531  16.194  0.00  0.00    +0.000 A 
ATOM      9 CL   UNL     1       7.914   6.607  16.958  0.00  0.00    +0.000 Cl
ATOM     10  C   UNL     1       5.641   5.043  16.815  0.00  0.00    +0.000 A 
ATOM     11  S   UNL     1       5.175   5.632  18.390  0.00  0.00    +0.000 S 
ATOM     12  O   UNL     1       5.124   7.078  18.317  0.00  0.00    +0.000 OA
ATOM     13  O   UNL     1       5.980   4.941  19.375  0.00  0.00    +0.000 OA
ATOM     14  N   UNL     1       3.562   5.103  18.614  0.00  0.00    +0.000 NA
ATOM     15  H   UNL     1       2.869   3.457  16.244  0.00  0.00    +0.000 HD
ENDROOT
BRANCH   1  16
ATOM     16  C   UNL     1       2.123   2.997  18.573  0.00  0.00    +0.000 C 
ATOM     17  O   UNL     1       1.044   3.341  18.098  0.00  0.00    +0.000 OA
BRANCH  16  18
ATOM     18  O   UNL     1       2.284   1.970  19.464  0.00  0.00    +0.000 OA
BRANCH  18  20
ATOM     19  C   UNL     1       1.408   2.566  21.664  0.00  0.00    +0.000 C 
ATOM     20  C   UNL     1       2.640   2.349  20.803  0.00  0.00    +0.000 C 
ENDBRANCH  18  20
ENDBRANCH  16  18
ENDBRANCH   1  16
BRANCH  14  21
ATOM     21  C   UNL     1       3.035   5.393  20.006  0.00  0.00    +0.000 C 
BRANCH  21  22
ATOM     22  C   UNL     1       1.950   6.482  20.012  0.00  0.00    +0.000 C 
BRANCH  22  23
ATOM     23  O   UNL     1       2.052   7.336  18.868  0.00  0.00    +0.000 OA
BRANCH  23  24
ATOM     24  C   UNL     1       1.665   8.639  19.096  0.00  0.00    +0.000 A 
ATOM     25  C   UNL     1       1.149   8.897  20.367  0.00  0.00    +0.000 A 
ATOM     26  C   UNL     1       0.702  10.179  20.705  0.00  0.00    +0.000 A 
ATOM     27  C   UNL     1       0.787  11.217  19.781  0.00  0.00    +0.000 A 
ATOM     28  C   UNL     1       1.324  10.976  18.523  0.00  0.00    +0.000 A 
ATOM     29  C   UNL     1       1.761   9.692  18.179  0.00  0.00    +0.000 A 
ENDBRANCH  23  24
ENDBRANCH  22  23
ENDBRANCH  21  22
ENDBRANCH  14  21
TORSDOF 7
ENDMDL
MODEL 5
REMARK VINA RESULT:      -7.1      3.219      6.759
REMARK  Name = 
REMARK  8 active torsions:
REMARK  status: ('A' for Active; 'I' for Inactive)
REMARK    1  A    between atoms: C_1  and  C_2
REMARK    2  A    between atoms: C_2  and  O_3
REMARK    3  A    between atoms: O_3  and  C_4
REMARK    4  A    between atoms: C_4  and  C_6
REMARK    5  A    between atoms: N_19  and  C_20
REMARK    6  A    between atoms: C_20  and  C_21
REMARK    7  A    between atoms: C_21  and  O_22
REMARK    8  A    between atoms: O_22  and  C_23
REMARK                            x       y       z     vdW  Elec       q    Type
REMARK                         _______ _______ _______ _____ _____    ______ ____
ROOT
ATOM      1  C   UNL     1       4.523   6.846  17.299  0.00  0.00    +0.000 C 
ATOM      2  N   UNL     1       3.758   8.081  17.090  0.00  0.00    +0.000 N 
ATOM      3  C   UNL     1       2.754   8.478  17.959  0.00  0.00    +0.000 A 
ATOM      4  C   UNL     1       2.258   9.785  17.857  0.00  0.00    +0.000 A 
ATOM      5  C   UNL     1       1.344  10.281  18.790  0.00  0.00    +0.000 A 
ATOM      6 CL   UNL     1       0.785  11.903  18.660  0.00  0.00    +0.000 Cl
ATOM      7  C   UNL     1       0.903   9.484  19.839  0.00  0.00    +0.000 A 
ATOM      8  C   UNL     1       1.373   8.178  19.952  0.00  0.00    +0.000 A 
ATOM      9 CL   UNL     1       0.809   7.261  21.303  0.00  0.00    +0.000 Cl
ATOM     10  C   UNL     1       2.289   7.690  19.010  0.00  0.00    +0.000 A 
ATOM     11  S   UNL     1       2.812   6.026  19.074  0.00  0.00    +0.000 S 
ATOM     12  O   UNL     1       1.625   5.196  19.084  0.00  0.00    +0.000 OA
ATOM     13  O   UNL     1       3.829   5.924  20.099  0.00  0.00    +0.000 OA
ATOM     14  N   UNL     1       3.591   5.737  17.577  0.00  0.00    +0.000 NA
ATOM     15  H   UNL     1       3.605   8.317  16.111  0.00  0.00    +0.000 HD
ENDROOT
BRANCH   1  16
ATOM     16  C   UNL     1       5.446   6.643  16.078  0.00  0.00    +0.000 C 
ATOM     17  O   UNL     1       5.094   6.808  14.914  0.00  0.00    +0.000 OA
BRANCH  16  18
ATOM     18  O   UNL     1       6.701   6.249  16.460  0.00  0.00    +0.000 OA
BRANCH  18  20
ATOM     19  C   UNL     1       7.783   8.145  17.553  0.00  0.00    +0.000 C 
ATOM     20  C   UNL     1       7.167   6.767  17.716  0.00  0.00    +0.000 C 
ENDBRANCH  18  20
ENDBRANCH  16  18
ENDBRANCH   1  16
BRANCH  14  21
ATOM     21  C   UNL     1       4.253   4.373  17.511  0.00  0.00    +0.000 C 
BRANCH  21  22
ATOM     22  C   UNL     1       3.298   3.276  17.017  0.00  0.00    +0.000 C 
BRANCH  22  23
ATOM     23  O   UNL     1       3.365   2.106  17.839  0.00  0.00    +0.000 OA
BRANCH  23  24
ATOM     24  C   UNL     1       2.823   2.265  19.096  0.00  0.00    +0.000 A 
ATOM     25  C   UNL     1       1.430   2.226  19.157  0.00  0.00    +0.000 A 
ATOM     26  C   UNL     1       0.767   2.399  20.377  0.00  0.00    +0.000 A 
ATOM     27  C   UNL     1       1.494   2.591  21.549  0.00  0.00    +0.000 A 
ATOM     28  C   UNL     1       2.883   2.605  21.502  0.00  0.00    +0.000 A 
ATOM     29  C   UNL     1       3.547   2.444  20.281  0.00  0.00    +0.000 A 
ENDBRANCH  23  24
ENDBRANCH  22  23
ENDBRANCH  21  22
ENDBRANCH  14  21
TORSDOF 7
ENDMDL
MODEL 6
REMARK VINA RESULT:      -7.1      1.243      1.680
REMARK  Name = 
REMARK  8 active torsions:
REMARK  status: ('A' for Active; 'I' for Inactive)
REMARK    1  A    between atoms: C_1  and  C_2
REMARK    2  A    between atoms: C_2  and  O_3
REMARK    3  A    between atoms: O_3  and  C_4
REMARK    4  A    between atoms: C_4  and  C_6
REMARK    5  A    between atoms: N_19  and  C_20
REMARK    6  A    between atoms: C_20  and  C_21
REMARK    7  A    between atoms: C_21  and  O_22
REMARK    8  A    between atoms: O_22  and  C_23
REMARK                            x       y       z     vdW  Elec       q    Type
REMARK                         _______ _______ _______ _____ _____    ______ ____
ROOT
ATOM      1  C   UNL     1       2.967   3.807  17.896  0.00  0.00    +0.000 C 
ATOM      2  N   UNL     1       3.492   4.106  16.559  0.00  0.00    +0.000 N 
ATOM      3  C   UNL     1       4.835   4.369  16.340  0.00  0.00    +0.000 A 
ATOM      4  C   UNL     1       5.311   4.374  15.022  0.00  0.00    +0.000 A 
ATOM      5  C   UNL     1       6.676   4.499  14.751  0.00  0.00    +0.000 A 
ATOM      6 CL   UNL     1       7.231   4.460  13.124  0.00  0.00    +0.000 Cl
ATOM      7  C   UNL     1       7.592   4.627  15.787  0.00  0.00    +0.000 A 
ATOM      8  C   UNL     1       7.140   4.638  17.104  0.00  0.00    +0.000 A 
ATOM      9 CL   UNL     1       8.342   4.762  18.340  0.00  0.00    +0.000 Cl
ATOM     10  C   UNL     1       5.768   4.512  17.365  0.00  0.00    +0.000 A 
ATOM     11  S   UNL     1       5.172   4.625  19.001  0.00  0.00    +0.000 S 
ATOM     12  O   UNL     1       5.669   5.865  19.562  0.00  0.00    +0.000 OA
ATOM     13  O   UNL     1       5.399   3.347  19.641  0.00  0.00    +0.000 OA
ATOM     14  N   UNL     1       3.476   4.808  18.854  0.00  0.00    +0.000 NA
ATOM     15  H   UNL     1       2.845   4.617  15.961  0.00  0.00    +0.000 HD
ENDROOT
BRANCH   1  16
ATOM     16  C   UNL     1       1.429   3.713  17.796  0.00  0.00    +0.000 C 
ATOM     17  O   UNL     1       0.715   4.586  17.312  0.00  0.00    +0.000 OA
BRANCH  16  18
ATOM     18  O   UNL     1       0.965   2.536  18.321  0.00  0.00    +0.000 OA
BRANCH  18  20
ATOM     19  C   UNL     1       1.318   2.235  20.718  0.00  0.00    +0.000 C 
ATOM     20  C   UNL     1       1.800   1.918  19.314  0.00  0.00    +0.000 C 
ENDBRANCH  18  20
ENDBRANCH  16  18
ENDBRANCH   1  16
BRANCH  14  21
ATOM     21  C   UNL     1       2.761   4.768  20.191  0.00  0.00    +0.000 C 
BRANCH  21  22
ATOM     22  C   UNL     1       1.936   6.037  20.459  0.00  0.00    +0.000 C 
BRANCH  22  23
ATOM     23  O   UNL     1       2.310   7.105  19.581  0.00  0.00    +0.000 OA
BRANCH  23  24
ATOM     24  C   UNL     1       1.653   8.292  19.821  0.00  0.00    +0.000 A 
ATOM     25  C   UNL     1       1.511   9.132  18.716  0.00  0.00    +0.000 A 
ATOM     26  C   UNL     1       0.881  10.375  18.844  0.00  0.00    +0.000 A 
ATOM     27  C   UNL     1       0.371  10.779  20.076  0.00  0.00    +0.000 A 
ATOM     28  C   UNL     1       0.485   9.938  21.176  0.00  0.00    +0.000 A 
ATOM     29  C   UNL     1       1.124   8.699  21.052  0.00  0.00    +0.000 A 
ENDBRANCH  23  24
ENDBRANCH  22  23
ENDBRANCH  21  22
ENDBRANCH  14  21
TORSDOF 7
ENDMDL
MODEL 7
REMARK VINA RESULT:      -7.0      3.416      8.643
REMARK  Name = 
REMARK  8 active torsions:
REMARK  status: ('A' for Active; 'I' for Inactive)
REMARK    1  A    between atoms: C_1  and  C_2
REMARK    2  A    between atoms: C_2  and  O_3
REMARK    3  A    between atoms: O_3  and  C_4
REMARK    4  A    between atoms: C_4  and  C_6
REMARK    5  A    between atoms: N_19  and  C_20
REMARK    6  A    between atoms: C_20  and  C_21
REMARK    7  A    between atoms: C_21  and  O_22
REMARK    8  A    between atoms: O_22  and  C_23
REMARK                            x       y       z     vdW  Elec       q    Type
REMARK                         _______ _______ _______ _____ _____    ______ ____
ROOT
ATOM      1  C   UNL     1       5.065   5.863  17.313  0.00  0.00    +0.000 C 
ATOM      2  N   UNL     1       4.070   6.751  17.925  0.00  0.00    +0.000 N 
ATOM      3  C   UNL     1       3.122   6.285  18.823  0.00  0.00    +0.000 A 
ATOM      4  C   UNL     1       2.390   7.217  19.569  0.00  0.00    +0.000 A 
ATOM      5  C   UNL     1       1.521   6.803  20.582  0.00  0.00    +0.000 A 
ATOM      6 CL   UNL     1       0.667   7.975  21.507  0.00  0.00    +0.000 Cl
ATOM      7  C   UNL     1       1.361   5.453  20.867  0.00  0.00    +0.000 A 
ATOM      8  C   UNL     1       2.069   4.508  20.128  0.00  0.00    +0.000 A 
ATOM      9 CL   UNL     1       1.848   2.852  20.566  0.00  0.00    +0.000 Cl
ATOM     10  C   UNL     1       2.938   4.935  19.114  0.00  0.00    +0.000 A 
ATOM     11  S   UNL     1       3.756   3.765  18.111  0.00  0.00    +0.000 S 
ATOM     12  O   UNL     1       2.749   2.882  17.559  0.00  0.00    +0.000 OA
ATOM     13  O   UNL     1       4.891   3.263  18.856  0.00  0.00    +0.000 OA
ATOM     14  N   UNL     1       4.389   4.659  16.795  0.00  0.00    +0.000 NA
ATOM     15  H   UNL     1       3.759   7.511  17.320  0.00  0.00    +0.000 HD
ENDROOT
BRANCH   1  16
ATOM     16  C   UNL     1       5.855   6.679  16.267  0.00  0.00    +0.000 C 
ATOM     17  O   UNL     1       5.337   7.292  15.338  0.00  0.00    +0.000 OA
BRANCH  16  18
ATOM     18  O   UNL     1       7.202   6.624  16.504  0.00  0.00    +0.000 OA
BRANCH  18  20
ATOM     19  C   UNL     1       7.841   8.654  17.702  0.00  0.00    +0.000 C 
ATOM     20  C   UNL     1       7.640   7.150  17.768  0.00  0.00    +0.000 C 
ENDBRANCH  18  20
ENDBRANCH  16  18
ENDBRANCH   1  16
BRANCH  14  21
ATOM     21  C   UNL     1       5.273   3.825  15.887  0.00  0.00    +0.000 C 
BRANCH  21  22
ATOM     22  C   UNL     1       4.910   3.982  14.401  0.00  0.00    +0.000 C 
BRANCH  22  23
ATOM     23  O   UNL     1       6.056   4.308  13.608  0.00  0.00    +0.000 OA
BRANCH  23  24
ATOM     24  C   UNL     1       6.337   3.395  12.614  0.00  0.00    +0.000 A 
ATOM     25  C   UNL     1       5.252   2.631  12.180  0.00  0.00    +0.000 A 
ATOM     26  C   UNL     1       5.422   1.657  11.190  0.00  0.00    +0.000 A 
ATOM     27  C   UNL     1       6.673   1.452  10.614  0.00  0.00    +0.000 A 
ATOM     28  C   UNL     1       7.753   2.226  11.023  0.00  0.00    +0.000 A 
ATOM     29  C   UNL     1       7.587   3.193  12.020  0.00  0.00    +0.000 A 
ENDBRANCH  23  24
ENDBRANCH  22  23
ENDBRANCH  21  22
ENDBRANCH  14  21
TORSDOF 7
ENDMDL
MODEL 8
REMARK VINA RESULT:      -6.9      1.041      1.609
REMARK  Name = 
REMARK  8 active torsions:
REMARK  status: ('A' for Active; 'I' for Inactive)
REMARK    1  A    between atoms: C_1  and  C_2
REMARK    2  A    between atoms: C_2  and  O_3
REMARK    3  A    between atoms: O_3  and  C_4
REMARK    4  A    between atoms: C_4  and  C_6
REMARK    5  A    between atoms: N_19  and  C_20
REMARK    6  A    between atoms: C_20  and  C_21
REMARK    7  A    between atoms: C_21  and  O_22
REMARK    8  A    between atoms: O_22  and  C_23
REMARK                            x       y       z     vdW  Elec       q    Type
REMARK                         _______ _______ _______ _____ _____    ______ ____
ROOT
ATOM      1  C   UNL     1       4.166   3.284  18.171  0.00  0.00    +0.000 C 
ATOM      2  N   UNL     1       4.392   3.184  16.724  0.00  0.00    +0.000 N 
ATOM      3  C   UNL     1       5.278   4.017  16.060  0.00  0.00    +0.000 A 
ATOM      4  C   UNL     1       5.648   3.694  14.748  0.00  0.00    +0.000 A 
ATOM      5  C   UNL     1       6.637   4.420  14.080  0.00  0.00    +0.000 A 
ATOM      6 CL   UNL     1       7.096   3.972  12.484  0.00  0.00    +0.000 Cl
ATOM      7  C   UNL     1       7.273   5.486  14.704  0.00  0.00    +0.000 A 
ATOM      8  C   UNL     1       6.911   5.834  16.004  0.00  0.00    +0.000 A 
ATOM      9 CL   UNL     1       7.772   7.145  16.727  0.00  0.00    +0.000 Cl
ATOM     10  C   UNL     1       5.917   5.098  16.664  0.00  0.00    +0.000 A 
ATOM     11  S   UNL     1       5.379   5.580  18.253  0.00  0.00    +0.000 S 
ATOM     12  O   UNL     1       4.993   6.975  18.179  0.00  0.00    +0.000 OA
ATOM     13  O   UNL     1       6.353   5.102  19.211  0.00  0.00    +0.000 OA
ATOM     14  N   UNL     1       3.939   4.696  18.532  0.00  0.00    +0.000 NA
ATOM     15  H   UNL     1       3.568   2.911  16.190  0.00  0.00    +0.000 HD
ENDROOT
BRANCH   1  16
ATOM     16  C   UNL     1       3.024   2.315  18.544  0.00  0.00    +0.000 C 
ATOM     17  O   UNL     1       3.186   1.256  19.145  0.00  0.00    +0.000 OA
BRANCH  16  18
ATOM     18  O   UNL     1       1.810   2.783  18.116  0.00  0.00    +0.000 OA
BRANCH  18  20
ATOM     19  C   UNL     1       0.578   2.877  20.222  0.00  0.00    +0.000 C 
ATOM     20  C   UNL     1       0.661   2.291  18.824  0.00  0.00    +0.000 C 
ENDBRANCH  18  20
ENDBRANCH  16  18
ENDBRANCH   1  16
BRANCH  14  21
ATOM     21  C   UNL     1       3.404   4.871  19.940  0.00  0.00    +0.000 C 
BRANCH  21  22
ATOM     22  C   UNL     1       2.201   5.825  20.001  0.00  0.00    +0.000 C 
BRANCH  22  23
ATOM     23  O   UNL     1       2.587   7.180  19.748  0.00  0.00    +0.000 OA
BRANCH  23  24
ATOM     24  C   UNL     1       1.633   8.115  20.087  0.00  0.00    +0.000 A 
ATOM     25  C   UNL     1       1.364   9.077  19.112  0.00  0.00    +0.000 A 
ATOM     26  C   UNL     1       0.430  10.090  19.353  0.00  0.00    +0.000 A 
ATOM     27  C   UNL     1      -0.256  10.137  20.564  0.00  0.00    +0.000 A 
ATOM     28  C   UNL     1      -0.014   9.169  21.530  0.00  0.00    +0.000 A 
ATOM     29  C   UNL     1       0.928   8.161  21.295  0.00  0.00    +0.000 A 
ENDBRANCH  23  24
ENDBRANCH  22  23
ENDBRANCH  21  22
ENDBRANCH  14  21
TORSDOF 7
ENDMDL
MODEL 9
REMARK VINA RESULT:      -6.9      3.217      6.674
REMARK  Name = 
REMARK  8 active torsions:
REMARK  status: ('A' for Active; 'I' for Inactive)
REMARK    1  A    between atoms: C_1  and  C_2
REMARK    2  A    between atoms: C_2  and  O_3
REMARK    3  A    between atoms: O_3  and  C_4
REMARK    4  A    between atoms: C_4  and  C_6
REMARK    5  A    between atoms: N_19  and  C_20
REMARK    6  A    between atoms: C_20  and  C_21
REMARK    7  A    between atoms: C_21  and  O_22
REMARK    8  A    between atoms: O_22  and  C_23
REMARK                            x       y       z     vdW  Elec       q    Type
REMARK                         _______ _______ _______ _____ _____    ______ ____
ROOT
ATOM      1  C   UNL     1       4.527   6.841  17.280  0.00  0.00    +0.000 C 
ATOM      2  N   UNL     1       3.757   8.071  17.060  0.00  0.00    +0.000 N 
ATOM      3  C   UNL     1       2.758   8.478  17.929  0.00  0.00    +0.000 A 
ATOM      4  C   UNL     1       2.257   9.781  17.813  0.00  0.00    +0.000 A 
ATOM      5  C   UNL     1       1.348  10.287  18.746  0.00  0.00    +0.000 A 
ATOM      6 CL   UNL     1       0.784  11.906  18.598  0.00  0.00    +0.000 Cl
ATOM      7  C   UNL     1       0.916   9.504  19.808  0.00  0.00    +0.000 A 
ATOM      8  C   UNL     1       1.390   8.200  19.935  0.00  0.00    +0.000 A 
ATOM      9 CL   UNL     1       0.837   7.299  21.302  0.00  0.00    +0.000 Cl
ATOM     10  C   UNL     1       2.302   7.702  18.993  0.00  0.00    +0.000 A 
ATOM     11  S   UNL     1       2.829   6.040  19.076  0.00  0.00    +0.000 S 
ATOM     12  O   UNL     1       1.644   5.207  19.104  0.00  0.00    +0.000 OA
ATOM     13  O   UNL     1       3.853   5.954  20.096  0.00  0.00    +0.000 OA
ATOM     14  N   UNL     1       3.599   5.734  17.578  0.00  0.00    +0.000 NA
ATOM     15  H   UNL     1       3.597   8.294  16.078  0.00  0.00    +0.000 HD
ENDROOT
BRANCH   1  16
ATOM     16  C   UNL     1       5.442   6.624  16.056  0.00  0.00    +0.000 C 
ATOM     17  O   UNL     1       5.055   6.659  14.891  0.00  0.00    +0.000 OA
BRANCH  16  18
ATOM     18  O   UNL     1       6.735   6.382  16.435  0.00  0.00    +0.000 OA
BRANCH  18  20
ATOM     19  C   UNL     1       7.748   6.075  18.635  0.00  0.00    +0.000 C 
ATOM     20  C   UNL     1       7.178   7.055  17.625  0.00  0.00    +0.000 C 
ENDBRANCH  18  20
ENDBRANCH  16  18
ENDBRANCH   1  16
BRANCH  14  21
ATOM     21  C   UNL     1       4.264   4.371  17.526  0.00  0.00    +0.000 C 
BRANCH  21  22
ATOM     22  C   UNL     1       3.335   3.281  16.970  0.00  0.00    +0.000 C 
BRANCH  22  23
ATOM     23  O   UNL     1       3.337   2.112  17.798  0.00  0.00    +0.000 OA
BRANCH  23  24
ATOM     24  C   UNL     1       2.693   2.271  19.006  0.00  0.00    +0.000 A 
ATOM     25  C   UNL     1       3.526   2.446  20.111  0.00  0.00    +0.000 A 
ATOM     26  C   UNL     1       2.985   2.595  21.392  0.00  0.00    +0.000 A 
ATOM     27  C   UNL     1       1.604   2.588  21.575  0.00  0.00    +0.000 A 
ATOM     28  C   UNL     1       0.766   2.440  20.478  0.00  0.00    +0.000 A 
ATOM     29  C   UNL     1       1.306   2.281  19.196  0.00  0.00    +0.000 A 
ENDBRANCH  23  24
ENDBRANCH  22  23
ENDBRANCH  21  22
ENDBRANCH  14  21
TORSDOF 7
ENDMDL
