MODEL 1
REMARK VINA RESULT:      -8.7      0.000      0.000
REMARK  Name = 
REMARK  4 active torsions:
REMARK  status: ('A' for Active; 'I' for Inactive)
REMARK    1  A    between atoms: C_5  and  C_6
REMARK    2  A    between atoms: C_6  and  N_7
REMARK    3  A    between atoms: C_9  and  C_10
REMARK    4  A    between atoms: C_16  and  C_17
REMARK                            x       y       z     vdW  Elec       q    Type
REMARK                         _______ _______ _______ _____ _____    ______ ____
ROOT
ATOM      1  C   UNL     1       2.388   7.359  18.639  0.00  0.00    +0.000 C 
ATOM      2  C   UNL     1       1.912   7.321  19.899  0.00  0.00    +0.000 C 
ATOM      3 CL   UNL     1       2.102   5.891  20.876  0.00  0.00    +0.000 Cl
ATOM      4  C   UNL     1       1.244   8.494  20.493  0.00  0.00    +0.000 A 
ATOM      5  C   UNL     1       0.741   8.505  21.800  0.00  0.00    +0.000 A 
ATOM      6  C   UNL     1       0.152   9.649  22.331  0.00  0.00    +0.000 A 
ATOM      7  C   UNL     1       0.069  10.787  21.542  0.00  0.00    +0.000 A 
ATOM      8  N   UNL     1       0.515  10.806  20.263  0.00  0.00    +0.000 NA
ATOM      9  C   UNL     1       1.095   9.677  19.762  0.00  0.00    +0.000 A 
ATOM     10  C   UNL     1       1.585   9.795  18.346  0.00  0.00    +0.000 C 
ATOM     11  C   UNL     1       2.260   8.560  17.742  0.00  0.00    +0.000 C 
ENDROOT
BRANCH   1  14
ATOM     12  N   UNL     1       4.535   4.942  17.195  0.00  0.00    +0.000 N 
ATOM     13  C   UNL     1       4.391   6.223  17.647  0.00  0.00    +0.000 A 
ATOM     14  C   UNL     1       3.067   6.281  18.007  0.00  0.00    +0.000 A 
ATOM     15  N   UNL     1       2.450   5.096  17.734  0.00  0.00    +0.000 NA
ATOM     16  N   UNL     1       3.366   4.272  17.235  0.00  0.00    +0.000 NA
BRANCH  12  17
ATOM     17  C   UNL     1       5.773   4.250  16.884  0.00  0.00    +0.000 C 
BRANCH  17  22
ATOM     18  F   UNL     1       7.336   4.451  11.466  0.00  0.00    +0.000 F 
ATOM     19  C   UNL     1       6.946   4.424  12.746  0.00  0.00    +0.000 A 
ATOM     20  C   UNL     1       7.659   5.149  13.694  0.00  0.00    +0.000 A 
ATOM     21  C   UNL     1       7.263   5.110  15.032  0.00  0.00    +0.000 A 
ATOM     22  C   UNL     1       6.151   4.346  15.426  0.00  0.00    +0.000 A 
ATOM     23  C   UNL     1       5.442   3.626  14.449  0.00  0.00    +0.000 A 
ATOM     24  C   UNL     1       5.840   3.667  13.111  0.00  0.00    +0.000 A 
ENDBRANCH  17  22
ENDBRANCH  12  17
ENDBRANCH   1  14
BRANCH   7  25
ATOM     25  C   UNL     1      -0.510  12.051  22.017  0.00  0.00    +0.000 A 
ATOM     26  C   UNL     1      -0.043  13.341  21.831  0.00  0.00    +0.000 A 
ATOM     27  C   UNL     1      -0.868  14.328  22.448  0.00  0.00    +0.000 A 
ATOM     28  C   UNL     1      -1.936  13.766  23.108  0.00  0.00    +0.000 A 
ATOM     29  S   UNL     1      -1.941  12.062  22.976  0.00  0.00    +0.000 S 
ENDBRANCH   7  25
TORSDOF 4
ENDMDL
MODEL 2
REMARK VINA RESULT:      -8.6      0.658      1.157
REMARK  Name = 
REMARK  4 active torsions:
REMARK  status: ('A' for Active; 'I' for Inactive)
REMARK    1  A    between atoms: C_5  and  C_6
REMARK    2  A    between atoms: C_6  and  N_7
REMARK    3  A    between atoms: C_9  and  C_10
REMARK    4  A    between atoms: C_16  and  C_17
REMARK                            x       y       z     vdW  Elec       q    Type
REMARK                         _______ _______ _______ _____ _____    ______ ____
ROOT
ATOM      1  C   UNL     1       2.459   7.372  18.572  0.00  0.00    +0.000 C 
ATOM      2  C   UNL     1       1.903   7.332  19.800  0.00  0.00    +0.000 C 
ATOM      3 CL   UNL     1       2.062   5.914  20.799  0.00  0.00    +0.000 Cl
ATOM      4  C   UNL     1       1.171   8.494  20.339  0.00  0.00    +0.000 A 
ATOM      5  C   UNL     1       0.585   8.502  21.610  0.00  0.00    +0.000 A 
ATOM      6  C   UNL     1      -0.064   9.637  22.091  0.00  0.00    +0.000 A 
ATOM      7  C   UNL     1      -0.121  10.766  21.289  0.00  0.00    +0.000 A 
ATOM      8  N   UNL     1       0.406  10.786  20.041  0.00  0.00    +0.000 NA
ATOM      9  C   UNL     1       1.043   9.668  19.589  0.00  0.00    +0.000 A 
ATOM     10  C   UNL     1       1.622   9.787  18.206  0.00  0.00    +0.000 C 
ATOM     11  C   UNL     1       2.362   8.563  17.659  0.00  0.00    +0.000 C 
ENDROOT
BRANCH   1  14
ATOM     12  N   UNL     1       4.750   5.008  17.266  0.00  0.00    +0.000 N 
ATOM     13  C   UNL     1       4.536   6.296  17.669  0.00  0.00    +0.000 A 
ATOM     14  C   UNL     1       3.202   6.305  17.996  0.00  0.00    +0.000 A 
ATOM     15  N   UNL     1       2.647   5.085  17.751  0.00  0.00    +0.000 NA
ATOM     16  N   UNL     1       3.611   4.287  17.303  0.00  0.00    +0.000 NA
BRANCH  12  17
ATOM     17  C   UNL     1       6.025   4.364  17.010  0.00  0.00    +0.000 C 
BRANCH  17  22
ATOM     18  F   UNL     1       7.268   4.510  11.508  0.00  0.00    +0.000 F 
ATOM     19  C   UNL     1       6.995   4.456  12.817  0.00  0.00    +0.000 A 
ATOM     20  C   UNL     1       5.981   3.620  13.271  0.00  0.00    +0.000 A 
ATOM     21  C   UNL     1       5.683   3.573  14.634  0.00  0.00    +0.000 A 
ATOM     22  C   UNL     1       6.401   4.363  15.548  0.00  0.00    +0.000 A 
ATOM     23  C   UNL     1       7.426   5.196  15.067  0.00  0.00    +0.000 A 
ATOM     24  C   UNL     1       7.721   5.240  13.704  0.00  0.00    +0.000 A 
ENDBRANCH  17  22
ENDBRANCH  12  17
ENDBRANCH   1  14
BRANCH   7  25
ATOM     25  C   UNL     1      -0.758  12.020  21.714  0.00  0.00    +0.000 A 
ATOM     26  C   UNL     1      -1.084  12.434  22.995  0.00  0.00    +0.000 A 
ATOM     27  C   UNL     1      -1.705  13.718  23.025  0.00  0.00    +0.000 A 
ATOM     28  C   UNL     1      -1.856  14.247  21.764  0.00  0.00    +0.000 A 
ATOM     29  S   UNL     1      -1.247  13.200  20.558  0.00  0.00    +0.000 S 
ENDBRANCH   7  25
TORSDOF 4
ENDMDL
MODEL 3
REMARK VINA RESULT:      -8.1      5.059     11.425
REMARK  Name = 
REMARK  4 active torsions:
REMARK  status: ('A' for Active; 'I' for Inactive)
REMARK    1  A    between atoms: C_5  and  C_6
REMARK    2  A    between atoms: C_6  and  N_7
REMARK    3  A    between atoms: C_9  and  C_10
REMARK    4  A    between atoms: C_16  and  C_17
REMARK                            x       y       z     vdW  Elec       q    Type
REMARK                         _______ _______ _______ _____ _____    ______ ____
ROOT
ATOM      1  C   UNL     1       0.493  10.757  21.161  0.00  0.00    +0.000 C 
ATOM      2  C   UNL     1       0.836  10.681  19.859  0.00  0.00    +0.000 C 
ATOM      3 CL   UNL     1       0.657  12.063  18.813  0.00  0.00    +0.000 Cl
ATOM      4  C   UNL     1       1.396   9.439  19.294  0.00  0.00    +0.000 A 
ATOM      5  C   UNL     1       1.774   9.316  17.952  0.00  0.00    +0.000 A 
ATOM      6  C   UNL     1       2.335   8.134  17.472  0.00  0.00    +0.000 A 
ATOM      7  C   UNL     1       2.514   7.074  18.348  0.00  0.00    +0.000 A 
ATOM      8  N   UNL     1       2.131   7.145  19.646  0.00  0.00    +0.000 NA
ATOM      9  C   UNL     1       1.590   8.312  20.100  0.00  0.00    +0.000 A 
ATOM     10  C   UNL     1       1.219   8.311  21.556  0.00  0.00    +0.000 C 
ATOM     11  C   UNL     1       0.623   9.606  22.119  0.00  0.00    +0.000 C 
ENDROOT
BRANCH   1  14
ATOM     12  N   UNL     1      -1.154  13.329  22.953  0.00  0.00    +0.000 N 
ATOM     13  C   UNL     1      -1.205  12.050  22.477  0.00  0.00    +0.000 A 
ATOM     14  C   UNL     1      -0.026  11.926  21.784  0.00  0.00    +0.000 A 
ATOM     15  N   UNL     1       0.666  13.099  21.815  0.00  0.00    +0.000 NA
ATOM     16  N   UNL     1      -0.036  13.961  22.542  0.00  0.00    +0.000 NA
BRANCH  12  17
ATOM     17  C   UNL     1      -2.032  13.942  23.933  0.00  0.00    +0.000 C 
BRANCH  17  22
ATOM     18  F   UNL     1      -7.496  12.633  23.407  0.00  0.00    +0.000 F 
ATOM     19  C   UNL     1      -6.194  12.923  23.513  0.00  0.00    +0.000 A 
ATOM     20  C   UNL     1      -5.452  12.374  24.553  0.00  0.00    +0.000 A 
ATOM     21  C   UNL     1      -4.097  12.686  24.675  0.00  0.00    +0.000 A 
ATOM     22  C   UNL     1      -3.478  13.550  23.754  0.00  0.00    +0.000 A 
ATOM     23  C   UNL     1      -4.247  14.089  22.707  0.00  0.00    +0.000 A 
ATOM     24  C   UNL     1      -5.601  13.774  22.588  0.00  0.00    +0.000 A 
ENDBRANCH  17  22
ENDBRANCH  12  17
ENDBRANCH   1  14
BRANCH   7  25
ATOM     25  C   UNL     1       3.119   5.797  17.947  0.00  0.00    +0.000 A 
ATOM     26  C   UNL     1       2.561   4.529  17.972  0.00  0.00    +0.000 A 
ATOM     27  C   UNL     1       3.456   3.518  17.511  0.00  0.00    +0.000 A 
ATOM     28  C   UNL     1       4.682   4.034  17.163  0.00  0.00    +0.000 A 
ATOM     29  S   UNL     1       4.747   5.727  17.388  0.00  0.00    +0.000 S 
ENDBRANCH   7  25
TORSDOF 4
ENDMDL
MODEL 4
REMARK VINA RESULT:      -8.1      4.151      5.604
REMARK  Name = 
REMARK  4 active torsions:
REMARK  status: ('A' for Active; 'I' for Inactive)
REMARK    1  A    between atoms: C_5  and  C_6
REMARK    2  A    between atoms: C_6  and  N_7
REMARK    3  A    between atoms: C_9  and  C_10
REMARK    4  A    between atoms: C_16  and  C_17
REMARK                            x       y       z     vdW  Elec       q    Type
REMARK                         _______ _______ _______ _____ _____    ______ ____
ROOT
ATOM      1  C   UNL     1       0.403  10.221  19.475  0.00  0.00    +0.000 C 
ATOM      2  C   UNL     1      -0.784  10.568  18.937  0.00  0.00    +0.000 C 
ATOM      3 CL   UNL     1      -1.250   9.983  17.365  0.00  0.00    +0.000 Cl
ATOM      4  C   UNL     1      -1.729  11.427  19.677  0.00  0.00    +0.000 A 
ATOM      5  C   UNL     1      -2.975  11.806  19.164  0.00  0.00    +0.000 A 
ATOM      6  C   UNL     1      -3.850  12.586  19.915  0.00  0.00    +0.000 A 
ATOM      7  C   UNL     1      -3.468  12.986  21.187  0.00  0.00    +0.000 A 
ATOM      8  N   UNL     1      -2.257  12.667  21.705  0.00  0.00    +0.000 NA
ATOM      9  C   UNL     1      -1.416  11.896  20.957  0.00  0.00    +0.000 A 
ATOM     10  C   UNL     1      -0.107  11.566  21.619  0.00  0.00    +0.000 C 
ATOM     11  C   UNL     1       0.867  10.688  20.827  0.00  0.00    +0.000 C 
ENDROOT
BRANCH   1  14
ATOM     12  N   UNL     1       2.576   7.727  18.212  0.00  0.00    +0.000 N 
ATOM     13  C   UNL     1       1.747   8.120  19.225  0.00  0.00    +0.000 A 
ATOM     14  C   UNL     1       1.353   9.377  18.837  0.00  0.00    +0.000 A 
ATOM     15  N   UNL     1       1.962   9.724  17.668  0.00  0.00    +0.000 NA
ATOM     16  N   UNL     1       2.714   8.697  17.286  0.00  0.00    +0.000 NA
BRANCH  12  17
ATOM     17  C   UNL     1       3.116   6.399  17.979  0.00  0.00    +0.000 C 
BRANCH  17  22
ATOM     18  F   UNL     1       0.773   2.645  21.480  0.00  0.00    +0.000 F 
ATOM     19  C   UNL     1       1.348   3.515  20.642  0.00  0.00    +0.000 A 
ATOM     20  C   UNL     1       2.264   4.437  21.135  0.00  0.00    +0.000 A 
ATOM     21  C   UNL     1       2.855   5.356  20.267  0.00  0.00    +0.000 A 
ATOM     22  C   UNL     1       2.530   5.356  18.899  0.00  0.00    +0.000 A 
ATOM     23  C   UNL     1       1.606   4.411  18.421  0.00  0.00    +0.000 A 
ATOM     24  C   UNL     1       1.018   3.493  19.293  0.00  0.00    +0.000 A 
ENDBRANCH  17  22
ENDBRANCH  12  17
ENDBRANCH   1  14
BRANCH   7  25
ATOM     25  C   UNL     1      -4.328  13.788  22.067  0.00  0.00    +0.000 A 
ATOM     26  C   UNL     1      -3.963  14.612  23.119  0.00  0.00    +0.000 A 
ATOM     27  C   UNL     1      -5.079  15.230  23.757  0.00  0.00    +0.000 A 
ATOM     28  C   UNL     1      -6.272  14.850  23.189  0.00  0.00    +0.000 A 
ATOM     29  S   UNL     1      -6.042  13.759  21.894  0.00  0.00    +0.000 S 
ENDBRANCH   7  25
TORSDOF 4
ENDMDL
MODEL 5
REMARK VINA RESULT:      -8.0      4.170      5.727
REMARK  Name = 
REMARK  4 active torsions:
REMARK  status: ('A' for Active; 'I' for Inactive)
REMARK    1  A    between atoms: C_5  and  C_6
REMARK    2  A    between atoms: C_6  and  N_7
REMARK    3  A    between atoms: C_9  and  C_10
REMARK    4  A    between atoms: C_16  and  C_17
REMARK                            x       y       z     vdW  Elec       q    Type
REMARK                         _______ _______ _______ _____ _____    ______ ____
ROOT
ATOM      1  C   UNL     1       0.386  10.305  19.493  0.00  0.00    +0.000 C 
ATOM      2  C   UNL     1      -0.816  10.630  18.978  0.00  0.00    +0.000 C 
ATOM      3 CL   UNL     1      -1.330   9.980  17.446  0.00  0.00    +0.000 Cl
ATOM      4  C   UNL     1      -1.738  11.521  19.708  0.00  0.00    +0.000 A 
ATOM      5  C   UNL     1      -2.999  11.880  19.218  0.00  0.00    +0.000 A 
ATOM      6  C   UNL     1      -3.851  12.693  19.961  0.00  0.00    +0.000 A 
ATOM      7  C   UNL     1      -3.430  13.146  21.202  0.00  0.00    +0.000 A 
ATOM      8  N   UNL     1      -2.205  12.847  21.696  0.00  0.00    +0.000 NA
ATOM      9  C   UNL     1      -1.386  12.044  20.957  0.00  0.00    +0.000 A 
ATOM     10  C   UNL     1      -0.058  11.741  21.593  0.00  0.00    +0.000 C 
ATOM     11  C   UNL     1       0.891  10.828  20.810  0.00  0.00    +0.000 C 
ENDROOT
BRANCH   1  14
ATOM     12  N   UNL     1       2.512   7.752  18.267  0.00  0.00    +0.000 N 
ATOM     13  C   UNL     1       1.706   8.184  19.282  0.00  0.00    +0.000 A 
ATOM     14  C   UNL     1       1.317   9.432  18.864  0.00  0.00    +0.000 A 
ATOM     15  N   UNL     1       1.907   9.739  17.675  0.00  0.00    +0.000 NA
ATOM     16  N   UNL     1       2.642   8.693  17.310  0.00  0.00    +0.000 NA
BRANCH  12  17
ATOM     17  C   UNL     1       3.035   6.413  18.062  0.00  0.00    +0.000 C 
BRANCH  17  22
ATOM     18  F   UNL     1       0.885   2.460  21.467  0.00  0.00    +0.000 F 
ATOM     19  C   UNL     1       1.373   3.415  20.667  0.00  0.00    +0.000 A 
ATOM     20  C   UNL     1       1.064   3.397  19.312  0.00  0.00    +0.000 A 
ATOM     21  C   UNL     1       1.585   4.384  18.472  0.00  0.00    +0.000 A 
ATOM     22  C   UNL     1       2.416   5.393  18.987  0.00  0.00    +0.000 A 
ATOM     23  C   UNL     1       2.710   5.395  20.362  0.00  0.00    +0.000 A 
ATOM     24  C   UNL     1       2.187   4.407  21.198  0.00  0.00    +0.000 A 
ENDBRANCH  17  22
ENDBRANCH  12  17
ENDBRANCH   1  14
BRANCH   7  25
ATOM     25  C   UNL     1      -4.264  13.986  22.073  0.00  0.00    +0.000 A 
ATOM     26  C   UNL     1      -5.526  13.724  22.579  0.00  0.00    +0.000 A 
ATOM     27  C   UNL     1      -6.033  14.782  23.389  0.00  0.00    +0.000 A 
ATOM     28  C   UNL     1      -5.154  15.837  23.468  0.00  0.00    +0.000 A 
ATOM     29  S   UNL     1      -3.727  15.545  22.574  0.00  0.00    +0.000 S 
ENDBRANCH   7  25
TORSDOF 4
ENDMDL
MODEL 6
REMARK VINA RESULT:      -8.0      3.946      5.248
REMARK  Name = 
REMARK  4 active torsions:
REMARK  status: ('A' for Active; 'I' for Inactive)
REMARK    1  A    between atoms: C_5  and  C_6
REMARK    2  A    between atoms: C_6  and  N_7
REMARK    3  A    between atoms: C_9  and  C_10
REMARK    4  A    between atoms: C_16  and  C_17
REMARK                            x       y       z     vdW  Elec       q    Type
REMARK                         _______ _______ _______ _____ _____    ______ ____
ROOT
ATOM      1  C   UNL     1       0.438  10.064  19.517  0.00  0.00    +0.000 C 
ATOM      2  C   UNL     1       0.231  10.095  20.849  0.00  0.00    +0.000 C 
ATOM      3 CL   UNL     1       1.129   9.047  21.911  0.00  0.00    +0.000 Cl
ATOM      4  C   UNL     1      -0.739  11.035  21.443  0.00  0.00    +0.000 A 
ATOM      5  C   UNL     1      -0.982  11.109  22.820  0.00  0.00    +0.000 A 
ATOM      6  C   UNL     1      -1.880  12.039  23.339  0.00  0.00    +0.000 A 
ATOM      7  C   UNL     1      -2.535  12.896  22.467  0.00  0.00    +0.000 A 
ATOM      8  N   UNL     1      -2.351  12.832  21.126  0.00  0.00    +0.000 NA
ATOM      9  C   UNL     1      -1.462  11.920  20.637  0.00  0.00    +0.000 A 
ATOM     10  C   UNL     1      -1.300  11.937  19.142  0.00  0.00    +0.000 C 
ATOM     11  C   UNL     1      -0.301  10.941  18.544  0.00  0.00    +0.000 C 
ENDROOT
BRANCH   1  14
ATOM     12  N   UNL     1       2.598   7.554  18.265  0.00  0.00    +0.000 N 
ATOM     13  C   UNL     1       1.811   7.978  19.297  0.00  0.00    +0.000 A 
ATOM     14  C   UNL     1       1.374   9.208  18.873  0.00  0.00    +0.000 A 
ATOM     15  N   UNL     1       1.919   9.513  17.662  0.00  0.00    +0.000 NA
ATOM     16  N   UNL     1       2.672   8.483  17.290  0.00  0.00    +0.000 NA
BRANCH  12  17
ATOM     17  C   UNL     1       3.153   6.227  18.065  0.00  0.00    +0.000 C 
BRANCH  17  22
ATOM     18  F   UNL     1       0.795   2.523  21.609  0.00  0.00    +0.000 F 
ATOM     19  C   UNL     1       1.374   3.381  20.761  0.00  0.00    +0.000 A 
ATOM     20  C   UNL     1       2.310   4.291  21.240  0.00  0.00    +0.000 A 
ATOM     21  C   UNL     1       2.904   5.197  20.360  0.00  0.00    +0.000 A 
ATOM     22  C   UNL     1       2.563   5.196  18.996  0.00  0.00    +0.000 A 
ATOM     23  C   UNL     1       1.619   4.264  18.534  0.00  0.00    +0.000 A 
ATOM     24  C   UNL     1       1.027   3.358  19.416  0.00  0.00    +0.000 A 
ENDBRANCH  17  22
ENDBRANCH  12  17
ENDBRANCH   1  14
BRANCH   7  25
ATOM     25  C   UNL     1      -3.479  13.928  22.917  0.00  0.00    +0.000 A 
ATOM     26  C   UNL     1      -4.608  14.407  22.273  0.00  0.00    +0.000 A 
ATOM     27  C   UNL     1      -5.283  15.423  23.013  0.00  0.00    +0.000 A 
ATOM     28  C   UNL     1      -4.644  15.708  24.197  0.00  0.00    +0.000 A 
ATOM     29  S   UNL     1      -3.243  14.752  24.411  0.00  0.00    +0.000 S 
ENDBRANCH   7  25
TORSDOF 4
ENDMDL
MODEL 7
REMARK VINA RESULT:      -8.0      4.979     11.338
REMARK  Name = 
REMARK  4 active torsions:
REMARK  status: ('A' for Active; 'I' for Inactive)
REMARK    1  A    between atoms: C_5  and  C_6
REMARK    2  A    between atoms: C_6  and  N_7
REMARK    3  A    between atoms: C_9  and  C_10
REMARK    4  A    between atoms: C_16  and  C_17
REMARK                            x       y       z     vdW  Elec       q    Type
REMARK                         _______ _______ _______ _____ _____    ______ ____
ROOT
ATOM      1  C   UNL     1       0.284  10.334  19.942  0.00  0.00    +0.000 C 
ATOM      2  C   UNL     1       0.635   9.125  20.423  0.00  0.00    +0.000 C 
ATOM      3 CL   UNL     1      -0.055   8.527  21.906  0.00  0.00    +0.000 Cl
ATOM      4  C   UNL     1       1.588   8.267  19.694  0.00  0.00    +0.000 A 
ATOM      5  C   UNL     1       1.976   7.001  20.150  0.00  0.00    +0.000 A 
ATOM      6  C   UNL     1       2.850   6.210  19.408  0.00  0.00    +0.000 A 
ATOM      7  C   UNL     1       3.335   6.697  18.203  0.00  0.00    +0.000 A 
ATOM      8  N   UNL     1       3.008   7.930  17.745  0.00  0.00    +0.000 NA
ATOM      9  C   UNL     1       2.145   8.687  18.482  0.00  0.00    +0.000 A 
ATOM     10  C   UNL     1       1.817  10.028  17.886  0.00  0.00    +0.000 C 
ATOM     11  C   UNL     1       0.838  10.910  18.668  0.00  0.00    +0.000 C 
ENDROOT
BRANCH   1  14
ATOM     12  N   UNL     1      -1.647  12.582  21.880  0.00  0.00    +0.000 N 
ATOM     13  C   UNL     1      -0.571  11.741  21.832  0.00  0.00    +0.000 A 
ATOM     14  C   UNL     1      -0.648  11.206  20.570  0.00  0.00    +0.000 A 
ATOM     15  N   UNL     1      -1.749  11.679  19.922  0.00  0.00    +0.000 NA
ATOM     16  N   UNL     1      -2.360  12.532  20.737  0.00  0.00    +0.000 NA
BRANCH  12  17
ATOM     17  C   UNL     1      -1.946  13.576  22.896  0.00  0.00    +0.000 C 
BRANCH  17  22
ATOM     18  F   UNL     1      -7.331  13.212  24.542  0.00  0.00    +0.000 F 
ATOM     19  C   UNL     1      -6.048  13.311  24.176  0.00  0.00    +0.000 A 
ATOM     20  C   UNL     1      -5.638  14.386  23.397  0.00  0.00    +0.000 A 
ATOM     21  C   UNL     1      -4.303  14.484  23.002  0.00  0.00    +0.000 A 
ATOM     22  C   UNL     1      -3.371  13.504  23.387  0.00  0.00    +0.000 A 
ATOM     23  C   UNL     1      -3.807  12.429  24.180  0.00  0.00    +0.000 A 
ATOM     24  C   UNL     1      -5.143  12.335  24.574  0.00  0.00    +0.000 A 
ENDBRANCH  17  22
ENDBRANCH  12  17
ENDBRANCH   1  14
BRANCH   7  25
ATOM     25  C   UNL     1       4.240   5.931  17.336  0.00  0.00    +0.000 A 
ATOM     26  C   UNL     1       5.039   6.387  16.300  0.00  0.00    +0.000 A 
ATOM     27  C   UNL     1       5.784   5.346  15.671  0.00  0.00    +0.000 A 
ATOM     28  C   UNL     1       5.523   4.116  16.228  0.00  0.00    +0.000 A 
ATOM     29  S   UNL     1       4.390   4.223  17.504  0.00  0.00    +0.000 S 
ENDBRANCH   7  25
TORSDOF 4
ENDMDL
MODEL 8
REMARK VINA RESULT:      -7.9      3.993      5.347
REMARK  Name = 
REMARK  4 active torsions:
REMARK  status: ('A' for Active; 'I' for Inactive)
REMARK    1  A    between atoms: C_5  and  C_6
REMARK    2  A    between atoms: C_6  and  N_7
REMARK    3  A    between atoms: C_9  and  C_10
REMARK    4  A    between atoms: C_16  and  C_17
REMARK                            x       y       z     vdW  Elec       q    Type
REMARK                         _______ _______ _______ _____ _____    ______ ____
ROOT
ATOM      1  C   UNL     1       0.297  10.178  19.456  0.00  0.00    +0.000 C 
ATOM      2  C   UNL     1       0.151  10.324  20.788  0.00  0.00    +0.000 C 
ATOM      3 CL   UNL     1       1.200   9.480  21.892  0.00  0.00    +0.000 Cl
ATOM      4  C   UNL     1      -0.879  11.221  21.344  0.00  0.00    +0.000 A 
ATOM      5  C   UNL     1      -1.063  11.412  22.718  0.00  0.00    +0.000 A 
ATOM      6  C   UNL     1      -2.024  12.299  23.196  0.00  0.00    +0.000 A 
ATOM      7  C   UNL     1      -2.803  12.996  22.285  0.00  0.00    +0.000 A 
ATOM      8  N   UNL     1      -2.677  12.815  20.948  0.00  0.00    +0.000 NA
ATOM      9  C   UNL     1      -1.725  11.947  20.498  0.00  0.00    +0.000 A 
ATOM     10  C   UNL     1      -1.637  11.828  19.002  0.00  0.00    +0.000 C 
ATOM     11  C   UNL     1      -0.571  10.877  18.447  0.00  0.00    +0.000 C 
ENDROOT
BRANCH   1  14
ATOM     12  N   UNL     1       2.570   7.737  18.265  0.00  0.00    +0.000 N 
ATOM     13  C   UNL     1       1.718   8.121  19.261  0.00  0.00    +0.000 A 
ATOM     14  C   UNL     1       1.283   9.355  18.844  0.00  0.00    +0.000 A 
ATOM     15  N   UNL     1       1.890   9.700  17.674  0.00  0.00    +0.000 NA
ATOM     16  N   UNL     1       2.682   8.692  17.320  0.00  0.00    +0.000 NA
BRANCH  12  17
ATOM     17  C   UNL     1       3.159   6.425  18.064  0.00  0.00    +0.000 C 
BRANCH  17  22
ATOM     18  F   UNL     1       0.960   2.299  21.222  0.00  0.00    +0.000 F 
ATOM     19  C   UNL     1       1.460   3.295  20.482  0.00  0.00    +0.000 A 
ATOM     20  C   UNL     1       1.130   3.380  19.134  0.00  0.00    +0.000 A 
ATOM     21  C   UNL     1       1.663   4.409  18.356  0.00  0.00    +0.000 A 
ATOM     22  C   UNL     1       2.528   5.359  18.926  0.00  0.00    +0.000 A 
ATOM     23  C   UNL     1       2.843   5.258  20.292  0.00  0.00    +0.000 A 
ATOM     24  C   UNL     1       2.308   4.227  21.067  0.00  0.00    +0.000 A 
ENDBRANCH  17  22
ENDBRANCH  12  17
ENDBRANCH   1  14
BRANCH   7  25
ATOM     25  C   UNL     1      -3.824  13.973  22.686  0.00  0.00    +0.000 A 
ATOM     26  C   UNL     1      -3.745  14.961  23.654  0.00  0.00    +0.000 A 
ATOM     27  C   UNL     1      -4.946  15.722  23.774  0.00  0.00    +0.000 A 
ATOM     28  C   UNL     1      -5.921  15.285  22.908  0.00  0.00    +0.000 A 
ATOM     29  S   UNL     1      -5.385  13.970  21.957  0.00  0.00    +0.000 S 
ENDBRANCH   7  25
TORSDOF 4
ENDMDL
MODEL 9
REMARK VINA RESULT:      -7.9      4.181      5.799
REMARK  Name = 
REMARK  4 active torsions:
REMARK  status: ('A' for Active; 'I' for Inactive)
REMARK    1  A    between atoms: C_5  and  C_6
REMARK    2  A    between atoms: C_6  and  N_7
REMARK    3  A    between atoms: C_9  and  C_10
REMARK    4  A    between atoms: C_16  and  C_17
REMARK                            x       y       z     vdW  Elec       q    Type
REMARK                         _______ _______ _______ _____ _____    ______ ____
ROOT
ATOM      1  C   UNL     1      -0.062  10.410  19.253  0.00  0.00    +0.000 C 
ATOM      2  C   UNL     1      -1.227  10.516  18.582  0.00  0.00    +0.000 C 
ATOM      3 CL   UNL     1      -1.494   9.606  17.121  0.00  0.00    +0.000 Cl
ATOM      4  C   UNL     1      -2.313  11.380  19.081  0.00  0.00    +0.000 A 
ATOM      5  C   UNL     1      -3.542  11.515  18.425  0.00  0.00    +0.000 A 
ATOM      6  C   UNL     1      -4.552  12.314  18.954  0.00  0.00    +0.000 A 
ATOM      7  C   UNL     1      -4.323  12.978  20.150  0.00  0.00    +0.000 A 
ATOM      8  N   UNL     1      -3.136  12.898  20.798  0.00  0.00    +0.000 NA
ATOM      9  C   UNL     1      -2.160  12.106  20.267  0.00  0.00    +0.000 A 
ATOM     10  C   UNL     1      -0.887  12.054  21.065  0.00  0.00    +0.000 C 
ATOM     11  C   UNL     1       0.234  11.164  20.519  0.00  0.00    +0.000 C 
ENDROOT
BRANCH   1  14
ATOM     12  N   UNL     1       2.510   8.041  18.693  0.00  0.00    +0.000 N 
ATOM     13  C   UNL     1       1.628   8.588  19.582  0.00  0.00    +0.000 A 
ATOM     14  C   UNL     1       1.019   9.578  18.851  0.00  0.00    +0.000 A 
ATOM     15  N   UNL     1       1.554   9.639  17.599  0.00  0.00    +0.000 NA
ATOM     16  N   UNL     1       2.473   8.683  17.508  0.00  0.00    +0.000 NA
BRANCH  12  17
ATOM     17  C   UNL     1       3.273   6.815  18.847  0.00  0.00    +0.000 C 
BRANCH  17  22
ATOM     18  F   UNL     1       0.193   2.103  19.230  0.00  0.00    +0.000 F 
ATOM     19  C   UNL     1       0.899   3.236  19.138  0.00  0.00    +0.000 A 
ATOM     20  C   UNL     1       1.375   3.647  17.899  0.00  0.00    +0.000 A 
ATOM     21  C   UNL     1       2.125   4.821  17.801  0.00  0.00    +0.000 A 
ATOM     22  C   UNL     1       2.400   5.588  18.947  0.00  0.00    +0.000 A 
ATOM     23  C   UNL     1       1.903   5.156  20.189  0.00  0.00    +0.000 A 
ATOM     24  C   UNL     1       1.154   3.982  20.282  0.00  0.00    +0.000 A 
ENDBRANCH  17  22
ENDBRANCH  12  17
ENDBRANCH   1  14
BRANCH   7  25
ATOM     25  C   UNL     1      -5.332  13.823  20.803  0.00  0.00    +0.000 A 
ATOM     26  C   UNL     1      -5.400  15.205  20.858  0.00  0.00    +0.000 A 
ATOM     27  C   UNL     1      -6.527  15.679  21.593  0.00  0.00    +0.000 A 
ATOM     28  C   UNL     1      -7.283  14.648  22.099  0.00  0.00    +0.000 A 
ATOM     29  S   UNL     1      -6.637  13.122  21.683  0.00  0.00    +0.000 S 
ENDBRANCH   7  25
TORSDOF 4
ENDMDL
