MODEL 1
REMARK VINA RESULT:      -9.7      0.000      0.000
REMARK  Name = 
REMARK  5 active torsions:
REMARK  status: ('A' for Active; 'I' for Inactive)
REMARK    1  A    between atoms: C_1  and  C_2
REMARK    2  A    between atoms: C_3  and  C_4
REMARK    3  A    between atoms: C_4  and  C_5
REMARK    4  A    between atoms: C_12  and  C_13
REMARK    5  A    between atoms: C_19  and  C_20
REMARK                            x       y       z     vdW  Elec       q    Type
REMARK                         _______ _______ _______ _____ _____    ______ ____
ROOT
ATOM      1  C   UNL     1       4.398   3.852  18.942  0.00  0.00    +0.000 C 
ATOM      2  C   UNL     1       4.448   2.629  19.904  0.00  0.00    +0.000 C 
ATOM      3  N   UNL     1       3.213   2.349  20.640  0.00  0.00    +0.000 N 
ATOM      4  C   UNL     1       2.416   3.342  21.175  0.00  0.00    +0.000 C 
ATOM      5  O   UNL     1       1.610   3.110  22.068  0.00  0.00    +0.000 OA
ATOM      6  C   UNL     1       2.585   4.643  20.556  0.00  0.00    +0.000 A 
ATOM      7  C   UNL     1       1.869   5.853  20.732  0.00  0.00    +0.000 A 
ATOM      8  C   UNL     1       2.301   6.762  19.773  0.00  0.00    +0.000 A 
ATOM      9  N   UNL     1       3.339   6.148  19.100  0.00  0.00    +0.000 N 
ATOM     10  C   UNL     1       3.500   4.875  19.554  0.00  0.00    +0.000 A 
ATOM     11  H   UNL     1       3.133   1.472  21.138  0.00  0.00    +0.000 HD
ATOM     12  H   UNL     1       3.815   6.573  18.308  0.00  0.00    +0.000 HD
ENDROOT
BRANCH   8  13
ATOM     13  C   UNL     1       1.846   8.125  19.432  0.00  0.00    +0.000 A 
ATOM     14  C   UNL     1       2.160   8.629  18.160  0.00  0.00    +0.000 A 
ATOM     15  C   UNL     1       1.695   9.870  17.756  0.00  0.00    +0.000 A 
ATOM     16  C   UNL     1       0.913  10.621  18.625  0.00  0.00    +0.000 A 
ATOM     17  C   UNL     1       0.633  10.183  19.910  0.00  0.00    +0.000 A 
ATOM     18  N   UNL     1      -0.080  10.997  20.714  0.00  0.00    +0.000 NA
ATOM     19  C   UNL     1      -0.296  10.579  21.984  0.00  0.00    +0.000 A 
ATOM     20  C   UNL     1      -1.042  11.484  22.908  0.00  0.00    +0.000 C 
ATOM     21  C   UNL     1       0.186   9.361  22.427  0.00  0.00    +0.000 A 
ATOM     22  F   UNL     1       0.001   8.990  23.704  0.00  0.00    +0.000 F 
ATOM     23  N   UNL     1       0.867   8.513  21.628  0.00  0.00    +0.000 NA
ATOM     24  C   UNL     1       1.112   8.919  20.349  0.00  0.00    +0.000 A 
ENDBRANCH   8  13
BRANCH   1  25
ATOM     25  C   UNL     1       3.867   3.542  17.540  0.00  0.00    +0.000 C 
BRANCH  25  28
ATOM     26  C   UNL     1       6.659   4.552  14.369  0.00  0.00    +0.000 C 
ATOM     27  C   UNL     1       5.681   4.198  15.479  0.00  0.00    +0.000 C 
ATOM     28  C   UNL     1       4.844   3.895  16.430  0.00  0.00    +0.000 C 
ENDBRANCH  25  28
ENDBRANCH   1  25
TORSDOF 3
ENDMDL
MODEL 2
REMARK VINA RESULT:      -8.6      2.930      7.582
REMARK  Name = 
REMARK  5 active torsions:
REMARK  status: ('A' for Active; 'I' for Inactive)
REMARK    1  A    between atoms: C_1  and  C_2
REMARK    2  A    between atoms: C_3  and  C_4
REMARK    3  A    between atoms: C_4  and  C_5
REMARK    4  A    between atoms: C_12  and  C_13
REMARK    5  A    between atoms: C_19  and  C_20
REMARK                            x       y       z     vdW  Elec       q    Type
REMARK                         _______ _______ _______ _____ _____    ______ ____
ROOT
ATOM      1  C   UNL     1       0.935  10.495  18.543  0.00  0.00    +0.000 C 
ATOM      2  C   UNL     1       0.145  11.555  19.364  0.00  0.00    +0.000 C 
ATOM      3  N   UNL     1       0.408  11.567  20.805  0.00  0.00    +0.000 N 
ATOM      4  C   UNL     1       0.570  10.415  21.549  0.00  0.00    +0.000 C 
ATOM      5  O   UNL     1       0.433  10.409  22.767  0.00  0.00    +0.000 OA
ATOM      6  C   UNL     1       0.961   9.252  20.774  0.00  0.00    +0.000 A 
ATOM      7  C   UNL     1       1.343   7.951  21.183  0.00  0.00    +0.000 A 
ATOM      8  C   UNL     1       1.800   7.257  20.069  0.00  0.00    +0.000 A 
ATOM      9  N   UNL     1       1.593   8.088  18.985  0.00  0.00    +0.000 N 
ATOM     10  C   UNL     1       1.107   9.288  19.405  0.00  0.00    +0.000 A 
ATOM     11  H   UNL     1       0.062  12.343  21.355  0.00  0.00    +0.000 HD
ATOM     12  H   UNL     1       1.880   7.849  18.040  0.00  0.00    +0.000 HD
ENDROOT
BRANCH   8  13
ATOM     13  C   UNL     1       2.400   5.915  19.922  0.00  0.00    +0.000 A 
ATOM     14  C   UNL     1       2.097   4.947  20.892  0.00  0.00    +0.000 A 
ATOM     15  C   UNL     1       2.567   3.648  20.766  0.00  0.00    +0.000 A 
ATOM     16  C   UNL     1       3.350   3.310  19.668  0.00  0.00    +0.000 A 
ATOM     17  C   UNL     1       3.719   4.255  18.724  0.00  0.00    +0.000 A 
ATOM     18  N   UNL     1       4.531   3.862  17.722  0.00  0.00    +0.000 NA
ATOM     19  C   UNL     1       4.928   4.810  16.840  0.00  0.00    +0.000 A 
ATOM     20  C   UNL     1       5.866   4.409  15.749  0.00  0.00    +0.000 C 
ATOM     21  C   UNL     1       4.504   6.120  16.959  0.00  0.00    +0.000 A 
ATOM     22  F   UNL     1       4.950   7.052  16.101  0.00  0.00    +0.000 F 
ATOM     23  N   UNL     1       3.659   6.527  17.930  0.00  0.00    +0.000 NA
ATOM     24  C   UNL     1       3.258   5.594  18.841  0.00  0.00    +0.000 A 
ENDBRANCH   8  13
BRANCH   1  25
ATOM     25  C   UNL     1       2.324  10.944  18.085  0.00  0.00    +0.000 C 
BRANCH  25  28
ATOM     26  C   UNL     1       2.865  15.254  18.163  0.00  0.00    +0.000 C 
ATOM     27  C   UNL     1       2.675  13.745  18.135  0.00  0.00    +0.000 C 
ATOM     28  C   UNL     1       2.513  12.452  18.112  0.00  0.00    +0.000 C 
ENDBRANCH  25  28
ENDBRANCH   1  25
TORSDOF 3
ENDMDL
MODEL 3
REMARK VINA RESULT:      -8.6      1.949      2.909
REMARK  Name = 
REMARK  5 active torsions:
REMARK  status: ('A' for Active; 'I' for Inactive)
REMARK    1  A    between atoms: C_1  and  C_2
REMARK    2  A    between atoms: C_3  and  C_4
REMARK    3  A    between atoms: C_4  and  C_5
REMARK    4  A    between atoms: C_12  and  C_13
REMARK    5  A    between atoms: C_19  and  C_20
REMARK                            x       y       z     vdW  Elec       q    Type
REMARK                         _______ _______ _______ _____ _____    ______ ____
ROOT
ATOM      1  C   UNL     1       4.288   5.453  18.850  0.00  0.00    +0.000 C 
ATOM      2  C   UNL     1       4.412   3.901  18.843  0.00  0.00    +0.000 C 
ATOM      3  N   UNL     1       3.148   3.162  18.882  0.00  0.00    +0.000 N 
ATOM      4  C   UNL     1       2.076   3.549  19.661  0.00  0.00    +0.000 C 
ATOM      5  O   UNL     1       1.184   2.766  19.965  0.00  0.00    +0.000 OA
ATOM      6  C   UNL     1       2.081   4.952  20.034  0.00  0.00    +0.000 A 
ATOM      7  C   UNL     1       1.109   5.738  20.699  0.00  0.00    +0.000 A 
ATOM      8  C   UNL     1       1.513   7.067  20.652  0.00  0.00    +0.000 A 
ATOM      9  N   UNL     1       2.762   7.070  20.065  0.00  0.00    +0.000 N 
ATOM     10  C   UNL     1       3.099   5.809  19.679  0.00  0.00    +0.000 A 
ATOM     11  H   UNL     1       3.162   2.167  18.701  0.00  0.00    +0.000 HD
ATOM     12  H   UNL     1       3.278   7.923  19.863  0.00  0.00    +0.000 HD
ENDROOT
BRANCH   8  13
ATOM     13  C   UNL     1       0.854   8.312  21.098  0.00  0.00    +0.000 A 
ATOM     14  C   UNL     1       0.086   8.270  22.271  0.00  0.00    +0.000 A 
ATOM     15  C   UNL     1      -0.492   9.423  22.781  0.00  0.00    +0.000 A 
ATOM     16  C   UNL     1      -0.309  10.629  22.114  0.00  0.00    +0.000 A 
ATOM     17  C   UNL     1       0.393  10.697  20.921  0.00  0.00    +0.000 A 
ATOM     18  N   UNL     1       0.474  11.894  20.304  0.00  0.00    +0.000 NA
ATOM     19  C   UNL     1       1.113  11.932  19.110  0.00  0.00    +0.000 A 
ATOM     20  C   UNL     1       1.175  13.235  18.385  0.00  0.00    +0.000 C 
ATOM     21  C   UNL     1       1.670  10.792  18.560  0.00  0.00    +0.000 A 
ATOM     22  F   UNL     1       2.256  10.846  17.354  0.00  0.00    +0.000 F 
ATOM     23  N   UNL     1       1.636   9.593  19.180  0.00  0.00    +0.000 NA
ATOM     24  C   UNL     1       0.982   9.525  20.376  0.00  0.00    +0.000 A 
ENDBRANCH   8  13
BRANCH   1  25
ATOM     25  C   UNL     1       4.103   6.087  17.470  0.00  0.00    +0.000 C 
BRANCH  25  28
ATOM     26  C   UNL     1       6.246   4.015  14.310  0.00  0.00    +0.000 C 
ATOM     27  C   UNL     1       5.496   4.740  15.416  0.00  0.00    +0.000 C 
ATOM     28  C   UNL     1       4.853   5.362  16.364  0.00  0.00    +0.000 C 
ENDBRANCH  25  28
ENDBRANCH   1  25
TORSDOF 3
ENDMDL
MODEL 4
REMARK VINA RESULT:      -8.5      1.429      1.454
REMARK  Name = 
REMARK  5 active torsions:
REMARK  status: ('A' for Active; 'I' for Inactive)
REMARK    1  A    between atoms: C_1  and  C_2
REMARK    2  A    between atoms: C_3  and  C_4
REMARK    3  A    between atoms: C_4  and  C_5
REMARK    4  A    between atoms: C_12  and  C_13
REMARK    5  A    between atoms: C_19  and  C_20
REMARK                            x       y       z     vdW  Elec       q    Type
REMARK                         _______ _______ _______ _____ _____    ______ ____
ROOT
ATOM      1  C   UNL     1       4.742   4.099  19.649  0.00  0.00    +0.000 C 
ATOM      2  C   UNL     1       4.342   2.662  20.092  0.00  0.00    +0.000 C 
ATOM      3  N   UNL     1       2.980   2.247  19.750  0.00  0.00    +0.000 N 
ATOM      4  C   UNL     1       1.891   3.091  19.842  0.00  0.00    +0.000 C 
ATOM      5  O   UNL     1       0.746   2.662  19.903  0.00  0.00    +0.000 OA
ATOM      6  C   UNL     1       2.225   4.504  19.807  0.00  0.00    +0.000 A 
ATOM      7  C   UNL     1       1.397   5.651  19.744  0.00  0.00    +0.000 A 
ATOM      8  C   UNL     1       2.204   6.765  19.546  0.00  0.00    +0.000 A 
ATOM      9  N   UNL     1       3.507   6.311  19.599  0.00  0.00    +0.000 N 
ATOM     10  C   UNL     1       3.524   4.957  19.738  0.00  0.00    +0.000 A 
ATOM     11  H   UNL     1       2.729   1.272  19.854  0.00  0.00    +0.000 HD
ATOM     12  H   UNL     1       4.311   6.913  19.439  0.00  0.00    +0.000 HD
ENDROOT
BRANCH   8  13
ATOM     13  C   UNL     1       1.880   8.187  19.317  0.00  0.00    +0.000 A 
ATOM     14  C   UNL     1       2.326   8.784  18.128  0.00  0.00    +0.000 A 
ATOM     15  C   UNL     1       1.987  10.093  17.822  0.00  0.00    +0.000 A 
ATOM     16  C   UNL     1       1.201  10.819  18.710  0.00  0.00    +0.000 A 
ATOM     17  C   UNL     1       0.793  10.282  19.921  0.00  0.00    +0.000 A 
ATOM     18  N   UNL     1       0.084  11.070  20.754  0.00  0.00    +0.000 NA
ATOM     19  C   UNL     1      -0.257  10.550  21.957  0.00  0.00    +0.000 A 
ATOM     20  C   UNL     1      -1.001  11.420  22.916  0.00  0.00    +0.000 C 
ATOM     21  C   UNL     1       0.096   9.259  22.304  0.00  0.00    +0.000 A 
ATOM     22  F   UNL     1      -0.211   8.783  23.521  0.00  0.00    +0.000 F 
ATOM     23  N   UNL     1       0.770   8.440  21.470  0.00  0.00    +0.000 NA
ATOM     24  C   UNL     1       1.141   8.946  20.258  0.00  0.00    +0.000 A 
ENDBRANCH   8  13
BRANCH   1  25
ATOM     25  C   UNL     1       5.283   4.202  18.221  0.00  0.00    +0.000 C 
BRANCH  25  28
ATOM     26  C   UNL     1       7.714   7.737  17.541  0.00  0.00    +0.000 C 
ATOM     27  C   UNL     1       6.863   6.499  17.778  0.00  0.00    +0.000 C 
ATOM     28  C   UNL     1       6.133   5.439  17.982  0.00  0.00    +0.000 C 
ENDBRANCH  25  28
ENDBRANCH   1  25
TORSDOF 3
ENDMDL
MODEL 5
REMARK VINA RESULT:      -8.5      3.029      7.605
REMARK  Name = 
REMARK  5 active torsions:
REMARK  status: ('A' for Active; 'I' for Inactive)
REMARK    1  A    between atoms: C_1  and  C_2
REMARK    2  A    between atoms: C_3  and  C_4
REMARK    3  A    between atoms: C_4  and  C_5
REMARK    4  A    between atoms: C_12  and  C_13
REMARK    5  A    between atoms: C_19  and  C_20
REMARK                            x       y       z     vdW  Elec       q    Type
REMARK                         _______ _______ _______ _____ _____    ______ ____
ROOT
ATOM      1  C   UNL     1       1.054  10.517  18.610  0.00  0.00    +0.000 C 
ATOM      2  C   UNL     1       0.486  11.348  19.797  0.00  0.00    +0.000 C 
ATOM      3  N   UNL     1       0.990  10.987  21.124  0.00  0.00    +0.000 N 
ATOM      4  C   UNL     1       1.202   9.680  21.517  0.00  0.00    +0.000 C 
ATOM      5  O   UNL     1       1.274   9.366  22.699  0.00  0.00    +0.000 OA
ATOM      6  C   UNL     1       1.379   8.746  20.420  0.00  0.00    +0.000 A 
ATOM      7  C   UNL     1       1.741   7.377  20.418  0.00  0.00    +0.000 A 
ATOM      8  C   UNL     1       1.956   6.982  19.103  0.00  0.00    +0.000 A 
ATOM      9  N   UNL     1       1.622   8.065  18.315  0.00  0.00    +0.000 N 
ATOM     10  C   UNL     1       1.293   9.128  19.100  0.00  0.00    +0.000 A 
ATOM     11  H   UNL     1       0.793  11.602  21.902  0.00  0.00    +0.000 HD
ATOM     12  H   UNL     1       1.728   8.070  17.304  0.00  0.00    +0.000 HD
ENDROOT
BRANCH   8  13
ATOM     13  C   UNL     1       2.434   5.710  18.522  0.00  0.00    +0.000 A 
ATOM     14  C   UNL     1       1.652   4.561  18.714  0.00  0.00    +0.000 A 
ATOM     15  C   UNL     1       2.008   3.356  18.128  0.00  0.00    +0.000 A 
ATOM     16  C   UNL     1       3.158   3.292  17.348  0.00  0.00    +0.000 A 
ATOM     17  C   UNL     1       3.986   4.391  17.188  0.00  0.00    +0.000 A 
ATOM     18  N   UNL     1       5.114   4.231  16.466  0.00  0.00    +0.000 NA
ATOM     19  C   UNL     1       5.942   5.298  16.367  0.00  0.00    +0.000 A 
ATOM     20  C   UNL     1       7.221   5.132  15.615  0.00  0.00    +0.000 C 
ATOM     21  C   UNL     1       5.630   6.503  16.970  0.00  0.00    +0.000 A 
ATOM     22  F   UNL     1       6.489   7.533  16.898  0.00  0.00    +0.000 F 
ATOM     23  N   UNL     1       4.487   6.697  17.661  0.00  0.00    +0.000 NA
ATOM     24  C   UNL     1       3.645   5.631  17.790  0.00  0.00    +0.000 A 
ENDBRANCH   8  13
BRANCH   1  25
ATOM     25  C   UNL     1       2.371  11.042  18.034  0.00  0.00    +0.000 C 
BRANCH  25  28
ATOM     26  C   UNL     1       2.755  15.364  18.249  0.00  0.00    +0.000 C 
ATOM     27  C   UNL     1       2.621  13.851  18.174  0.00  0.00    +0.000 C 
ATOM     28  C   UNL     1       2.506  12.554  18.109  0.00  0.00    +0.000 C 
ENDBRANCH  25  28
ENDBRANCH   1  25
TORSDOF 3
ENDMDL
MODEL 6
REMARK VINA RESULT:      -8.4      1.523      1.726
REMARK  Name = 
REMARK  5 active torsions:
REMARK  status: ('A' for Active; 'I' for Inactive)
REMARK    1  A    between atoms: C_1  and  C_2
REMARK    2  A    between atoms: C_3  and  C_4
REMARK    3  A    between atoms: C_4  and  C_5
REMARK    4  A    between atoms: C_12  and  C_13
REMARK    5  A    between atoms: C_19  and  C_20
REMARK                            x       y       z     vdW  Elec       q    Type
REMARK                         _______ _______ _______ _____ _____    ______ ____
ROOT
ATOM      1  C   UNL     1       4.756   4.550  19.736  0.00  0.00    +0.000 C 
ATOM      2  C   UNL     1       4.450   3.061  19.404  0.00  0.00    +0.000 C 
ATOM      3  N   UNL     1       3.662   2.829  18.192  0.00  0.00    +0.000 N 
ATOM      4  C   UNL     1       2.594   3.625  17.825  0.00  0.00    +0.000 C 
ATOM      5  O   UNL     1       1.740   3.235  17.039  0.00  0.00    +0.000 OA
ATOM      6  C   UNL     1       2.612   4.954  18.408  0.00  0.00    +0.000 A 
ATOM      7  C   UNL     1       1.783   6.079  18.175  0.00  0.00    +0.000 A 
ATOM      8  C   UNL     1       2.324   7.169  18.847  0.00  0.00    +0.000 A 
ATOM      9  N   UNL     1       3.401   6.685  19.564  0.00  0.00    +0.000 N 
ATOM     10  C   UNL     1       3.586   5.364  19.291  0.00  0.00    +0.000 A 
ATOM     11  H   UNL     1       3.587   1.885  17.835  0.00  0.00    +0.000 HD
ATOM     12  H   UNL     1       4.013   7.280  20.116  0.00  0.00    +0.000 HD
ENDROOT
BRANCH   8  13
ATOM     13  C   UNL     1       1.937   8.594  18.884  0.00  0.00    +0.000 A 
ATOM     14  C   UNL     1       2.364   9.422  17.834  0.00  0.00    +0.000 A 
ATOM     15  C   UNL     1       1.968  10.749  17.774  0.00  0.00    +0.000 A 
ATOM     16  C   UNL     1       1.143  11.260  18.769  0.00  0.00    +0.000 A 
ATOM     17  C   UNL     1       0.752  10.489  19.852  0.00  0.00    +0.000 A 
ATOM     18  N   UNL     1       0.003  11.076  20.807  0.00  0.00    +0.000 NA
ATOM     19  C   UNL     1      -0.322  10.325  21.887  0.00  0.00    +0.000 A 
ATOM     20  C   UNL     1      -1.111  10.966  22.980  0.00  0.00    +0.000 C 
ATOM     21  C   UNL     1       0.087   9.008  21.992  0.00  0.00    +0.000 A 
ATOM     22  F   UNL     1      -0.207   8.299  23.093  0.00  0.00    +0.000 F 
ATOM     23  N   UNL     1       0.803   8.389  21.029  0.00  0.00    +0.000 NA
ATOM     24  C   UNL     1       1.158   9.130  19.939  0.00  0.00    +0.000 A 
ENDBRANCH   8  13
BRANCH   1  25
ATOM     25  C   UNL     1       6.004   5.116  19.054  0.00  0.00    +0.000 C 
BRANCH  25  28
ATOM     26  C   UNL     1       6.280   4.110  14.837  0.00  0.00    +0.000 C 
ATOM     27  C   UNL     1       6.183   4.462  16.313  0.00  0.00    +0.000 C 
ATOM     28  C   UNL     1       6.100   4.764  17.578  0.00  0.00    +0.000 C 
ENDBRANCH  25  28
ENDBRANCH   1  25
TORSDOF 3
ENDMDL
MODEL 7
REMARK VINA RESULT:      -8.2      2.909      7.644
REMARK  Name = 
REMARK  5 active torsions:
REMARK  status: ('A' for Active; 'I' for Inactive)
REMARK    1  A    between atoms: C_1  and  C_2
REMARK    2  A    between atoms: C_3  and  C_4
REMARK    3  A    between atoms: C_4  and  C_5
REMARK    4  A    between atoms: C_12  and  C_13
REMARK    5  A    between atoms: C_19  and  C_20
REMARK                            x       y       z     vdW  Elec       q    Type
REMARK                         _______ _______ _______ _____ _____    ______ ____
ROOT
ATOM      1  C   UNL     1      -0.007  11.088  19.107  0.00  0.00    +0.000 C 
ATOM      2  C   UNL     1      -0.758  11.506  20.404  0.00  0.00    +0.000 C 
ATOM      3  N   UNL     1      -0.098  11.151  21.663  0.00  0.00    +0.000 N 
ATOM      4  C   UNL     1       0.553   9.948  21.857  0.00  0.00    +0.000 C 
ATOM      5  O   UNL     1       0.782   9.513  22.979  0.00  0.00    +0.000 OA
ATOM      6  C   UNL     1       0.974   9.291  20.633  0.00  0.00    +0.000 A 
ATOM      7  C   UNL     1       1.766   8.136  20.427  0.00  0.00    +0.000 A 
ATOM      8  C   UNL     1       2.034   8.024  19.068  0.00  0.00    +0.000 A 
ATOM      9  N   UNL     1       1.323   9.034  18.450  0.00  0.00    +0.000 N 
ATOM     10  C   UNL     1       0.700   9.804  19.384  0.00  0.00    +0.000 A 
ATOM     11  H   UNL     1      -0.448  11.550  22.524  0.00  0.00    +0.000 HD
ATOM     12  H   UNL     1       1.371   9.216  17.451  0.00  0.00    +0.000 HD
ENDROOT
BRANCH   8  13
ATOM     13  C   UNL     1       2.876   7.080  18.304  0.00  0.00    +0.000 A 
ATOM     14  C   UNL     1       3.848   7.610  17.441  0.00  0.00    +0.000 A 
ATOM     15  C   UNL     1       4.718   6.775  16.757  0.00  0.00    +0.000 A 
ATOM     16  C   UNL     1       4.618   5.399  16.928  0.00  0.00    +0.000 A 
ATOM     17  C   UNL     1       3.631   4.838  17.724  0.00  0.00    +0.000 A 
ATOM     18  N   UNL     1       3.562   3.493  17.790  0.00  0.00    +0.000 NA
ATOM     19  C   UNL     1       2.557   2.961  18.525  0.00  0.00    +0.000 A 
ATOM     20  C   UNL     1       2.431   1.474  18.574  0.00  0.00    +0.000 C 
ATOM     21  C   UNL     1       1.653   3.768  19.191  0.00  0.00    +0.000 A 
ATOM     22  F   UNL     1       0.637   3.217  19.874  0.00  0.00    +0.000 F 
ATOM     23  N   UNL     1       1.729   5.116  19.172  0.00  0.00    +0.000 NA
ATOM     24  C   UNL     1       2.722   5.677  18.423  0.00  0.00    +0.000 A 
ENDBRANCH   8  13
BRANCH   1  25
ATOM     25  C   UNL     1       1.033  12.098  18.615  0.00  0.00    +0.000 C 
BRANCH  25  28
ATOM     26  C   UNL     1      -0.338  16.217  18.785  0.00  0.00    +0.000 C 
ATOM     27  C   UNL     1       0.143  14.775  18.726  0.00  0.00    +0.000 C 
ATOM     28  C   UNL     1       0.554  13.539  18.675  0.00  0.00    +0.000 C 
ENDBRANCH  25  28
ENDBRANCH   1  25
TORSDOF 3
ENDMDL
MODEL 8
REMARK VINA RESULT:      -8.2      2.771      7.633
REMARK  Name = 
REMARK  5 active torsions:
REMARK  status: ('A' for Active; 'I' for Inactive)
REMARK    1  A    between atoms: C_1  and  C_2
REMARK    2  A    between atoms: C_3  and  C_4
REMARK    3  A    between atoms: C_4  and  C_5
REMARK    4  A    between atoms: C_12  and  C_13
REMARK    5  A    between atoms: C_19  and  C_20
REMARK                            x       y       z     vdW  Elec       q    Type
REMARK                         _______ _______ _______ _____ _____    ______ ____
ROOT
ATOM      1  C   UNL     1      -0.324  11.605  20.125  0.00  0.00    +0.000 C 
ATOM      2  C   UNL     1      -1.178  11.906  21.390  0.00  0.00    +0.000 C 
ATOM      3  N   UNL     1      -0.674  11.346  22.646  0.00  0.00    +0.000 N 
ATOM      4  C   UNL     1      -0.118  10.085  22.738  0.00  0.00    +0.000 C 
ATOM      5  O   UNL     1      -0.031   9.495  23.808  0.00  0.00    +0.000 OA
ATOM      6  C   UNL     1       0.387   9.562  21.482  0.00  0.00    +0.000 A 
ATOM      7  C   UNL     1       1.128   8.388  21.198  0.00  0.00    +0.000 A 
ATOM      8  C   UNL     1       1.528   8.433  19.868  0.00  0.00    +0.000 A 
ATOM      9  N   UNL     1       0.944   9.561  19.327  0.00  0.00    +0.000 N 
ATOM     10  C   UNL     1       0.275  10.248  20.293  0.00  0.00    +0.000 A 
ATOM     11  H   UNL     1      -1.087  11.656  23.516  0.00  0.00    +0.000 HD
ATOM     12  H   UNL     1       1.105   9.866  18.370  0.00  0.00    +0.000 HD
ENDROOT
BRANCH   8  13
ATOM     13  C   UNL     1       2.386   7.536  19.067  0.00  0.00    +0.000 A 
ATOM     14  C   UNL     1       2.949   8.042  17.885  0.00  0.00    +0.000 A 
ATOM     15  C   UNL     1       3.824   7.274  17.132  0.00  0.00    +0.000 A 
ATOM     16  C   UNL     1       4.140   5.988  17.556  0.00  0.00    +0.000 A 
ATOM     17  C   UNL     1       3.557   5.434  18.685  0.00  0.00    +0.000 A 
ATOM     18  N   UNL     1       3.868   4.160  18.995  0.00  0.00    +0.000 NA
ATOM     19  C   UNL     1       3.246   3.615  20.068  0.00  0.00    +0.000 A 
ATOM     20  C   UNL     1       3.537   2.190  20.403  0.00  0.00    +0.000 C 
ATOM     21  C   UNL     1       2.342   4.345  20.817  0.00  0.00    +0.000 A 
ATOM     22  F   UNL     1       1.701   3.767  21.846  0.00  0.00    +0.000 F 
ATOM     23  N   UNL     1       2.046   5.634  20.549  0.00  0.00    +0.000 NA
ATOM     24  C   UNL     1       2.647   6.201  19.462  0.00  0.00    +0.000 A 
ENDBRANCH   8  13
BRANCH   1  25
ATOM     25  C   UNL     1       0.819  12.592  19.874  0.00  0.00    +0.000 C 
BRANCH  25  28
ATOM     26  C   UNL     1      -0.528  16.485  18.497  0.00  0.00    +0.000 C 
ATOM     27  C   UNL     1      -0.056  15.123  18.979  0.00  0.00    +0.000 C 
ATOM     28  C   UNL     1       0.348  13.954  19.392  0.00  0.00    +0.000 C 
ENDBRANCH  25  28
ENDBRANCH   1  25
TORSDOF 3
ENDMDL
MODEL 9
REMARK VINA RESULT:      -8.1      3.541      5.599
REMARK  Name = 
REMARK  5 active torsions:
REMARK  status: ('A' for Active; 'I' for Inactive)
REMARK    1  A    between atoms: C_1  and  C_2
REMARK    2  A    between atoms: C_3  and  C_4
REMARK    3  A    between atoms: C_4  and  C_5
REMARK    4  A    between atoms: C_12  and  C_13
REMARK    5  A    between atoms: C_19  and  C_20
REMARK                            x       y       z     vdW  Elec       q    Type
REMARK                         _______ _______ _______ _____ _____    ______ ____
ROOT
ATOM      1  C   UNL     1       7.334   6.010  16.803  0.00  0.00    +0.000 C 
ATOM      2  C   UNL     1       8.029   5.557  15.486  0.00  0.00    +0.000 C 
ATOM      3  N   UNL     1       7.135   5.081  14.427  0.00  0.00    +0.000 N 
ATOM      4  C   UNL     1       6.029   4.293  14.676  0.00  0.00    +0.000 C 
ATOM      5  O   UNL     1       5.507   3.618  13.796  0.00  0.00    +0.000 OA
ATOM      6  C   UNL     1       5.525   4.381  16.034  0.00  0.00    +0.000 A 
ATOM      7  C   UNL     1       4.357   3.840  16.626  0.00  0.00    +0.000 A 
ATOM      8  C   UNL     1       4.232   4.364  17.907  0.00  0.00    +0.000 A 
ATOM      9  N   UNL     1       5.365   5.122  18.127  0.00  0.00    +0.000 N 
ATOM     10  C   UNL     1       6.132   5.148  17.003  0.00  0.00    +0.000 A 
ATOM     11  H   UNL     1       7.513   4.944  13.499  0.00  0.00    +0.000 HD
ATOM     12  H   UNL     1       5.516   5.661  18.975  0.00  0.00    +0.000 HD
ENDROOT
BRANCH   8  13
ATOM     13  C   UNL     1       3.175   4.224  18.930  0.00  0.00    +0.000 A 
ATOM     14  C   UNL     1       2.804   2.929  19.324  0.00  0.00    +0.000 A 
ATOM     15  C   UNL     1       1.873   2.736  20.333  0.00  0.00    +0.000 A 
ATOM     16  C   UNL     1       1.302   3.841  20.954  0.00  0.00    +0.000 A 
ATOM     17  C   UNL     1       1.598   5.132  20.549  0.00  0.00    +0.000 A 
ATOM     18  N   UNL     1       0.956   6.149  21.160  0.00  0.00    +0.000 NA
ATOM     19  C   UNL     1       1.214   7.401  20.713  0.00  0.00    +0.000 A 
ATOM     20  C   UNL     1       0.479   8.539  21.341  0.00  0.00    +0.000 C 
ATOM     21  C   UNL     1       2.112   7.623  19.685  0.00  0.00    +0.000 A 
ATOM     22  F   UNL     1       2.315   8.869  19.227  0.00  0.00    +0.000 F 
ATOM     23  N   UNL     1       2.796   6.624  19.088  0.00  0.00    +0.000 NA
ATOM     24  C   UNL     1       2.540   5.351  19.507  0.00  0.00    +0.000 A 
ENDBRANCH   8  13
BRANCH   1  25
ATOM     25  C   UNL     1       6.870   7.469  16.812  0.00  0.00    +0.000 C 
BRANCH  25  28
ATOM     26  C   UNL     1       9.386  10.071  19.215  0.00  0.00    +0.000 C 
ATOM     27  C   UNL     1       8.505   9.160  18.374  0.00  0.00    +0.000 C 
ATOM     28  C   UNL     1       7.750   8.379  17.653  0.00  0.00    +0.000 C 
ENDBRANCH  25  28
ENDBRANCH   1  25
TORSDOF 3
ENDMDL
