MODEL 1
REMARK VINA RESULT:      -8.6      0.000      0.000
REMARK  Name = 
REMARK  5 active torsions:
REMARK  status: ('A' for Active; 'I' for Inactive)
REMARK    1  A    between atoms: C_2  and  C_3
REMARK    2  A    between atoms: C_3  and  C_4
REMARK    3  A    between atoms: C_11  and  C_12
REMARK    4  A    between atoms: N_22  and  C_23
REMARK    5  A    between atoms: C_23  and  C_24
REMARK                            x       y       z     vdW  Elec       q    Type
REMARK                         _______ _______ _______ _____ _____    ______ ____
ROOT
ATOM      1  C   UNL     1       5.898   5.679  17.214  0.00  0.00    +0.000 C 
ATOM      2  C   UNL     1       6.742   4.824  18.179  0.00  0.00    +0.000 C 
ATOM      3  N   UNL     1       5.967   3.705  18.697  0.00  0.00    +0.000 N 
ATOM      4  C   UNL     1       4.692   3.892  19.190  0.00  0.00    +0.000 C 
ATOM      5  O   UNL     1       4.131   3.009  19.831  0.00  0.00    +0.000 OA
ATOM      6  C   UNL     1       4.122   5.182  18.876  0.00  0.00    +0.000 A 
ATOM      7  C   UNL     1       2.993   5.806  19.370  0.00  0.00    +0.000 A 
ATOM      8  C   UNL     1       2.901   7.099  18.776  0.00  0.00    +0.000 A 
ATOM      9  C   UNL     1       3.977   7.216  17.910  0.00  0.00    +0.000 A 
ATOM     10  N   UNL     1       4.683   6.048  17.962  0.00  0.00    +0.000 N 
ATOM     11  H   UNL     1       6.427   2.862  19.022  0.00  0.00    +0.000 HD
ENDROOT
BRANCH   8  12
ATOM     12  C   UNL     1       1.899   8.136  19.003  0.00  0.00    +0.000 A 
ATOM     13  C   UNL     1       1.477   8.947  17.933  0.00  0.00    +0.000 A 
ATOM     14  C   UNL     1       0.558   9.981  18.139  0.00  0.00    +0.000 A 
ATOM     15  C   UNL     1       0.060  10.205  19.417  0.00  0.00    +0.000 A 
ATOM     16  F   UNL     1      -0.807  11.209  19.617  0.00  0.00    +0.000 F 
ATOM     17  C   UNL     1       0.461   9.404  20.478  0.00  0.00    +0.000 A 
ATOM     18  F   UNL     1      -0.020   9.625  21.709  0.00  0.00    +0.000 F 
ATOM     19  C   UNL     1       1.375   8.369  20.279  0.00  0.00    +0.000 A 
ENDBRANCH   8  12
BRANCH   1  20
ATOM     20  C   UNL     1       5.498   4.918  15.943  0.00  0.00    +0.000 C 
BRANCH  20  22
ATOM     21  O   UNL     1       7.605   5.577  14.979  0.00  0.00    +0.000 OA
ATOM     22  C   UNL     1       6.545   4.981  14.851  0.00  0.00    +0.000 C 
ATOM     23  N   UNL     1       6.148   4.355  13.694  0.00  0.00    +0.000 N 
ATOM     24  H   UNL     1       5.351   3.728  13.711  0.00  0.00    +0.000 HD
BRANCH  23  25
ATOM     25  C   UNL     1       6.954   4.308  12.492  0.00  0.00    +0.000 C 
BRANCH  25  26
ATOM     26  C   UNL     1       6.732   2.985  11.852  0.00  0.00    +0.000 A 
ATOM     27  C   UNL     1       7.560   2.088  11.208  0.00  0.00    +0.000 A 
ATOM     28  C   UNL     1       6.733   1.023  10.772  0.00  0.00    +0.000 A 
ATOM     29  C   UNL     1       5.458   1.330  11.183  0.00  0.00    +0.000 A 
ATOM     30  O   UNL     1       5.445   2.519  11.841  0.00  0.00    +0.000 OA
ENDBRANCH  25  26
ENDBRANCH  23  25
ENDBRANCH  20  22
ENDBRANCH   1  20
TORSDOF 5
ENDMDL
MODEL 2
REMARK VINA RESULT:      -8.5      5.246      7.538
REMARK  Name = 
REMARK  5 active torsions:
REMARK  status: ('A' for Active; 'I' for Inactive)
REMARK    1  A    between atoms: C_2  and  C_3
REMARK    2  A    between atoms: C_3  and  C_4
REMARK    3  A    between atoms: C_11  and  C_12
REMARK    4  A    between atoms: N_22  and  C_23
REMARK    5  A    between atoms: C_23  and  C_24
REMARK                            x       y       z     vdW  Elec       q    Type
REMARK                         _______ _______ _______ _____ _____    ______ ____
ROOT
ATOM      1  C   UNL     1       6.254   6.636  16.833  0.00  0.00    +0.000 C 
ATOM      2  C   UNL     1       6.894   5.235  16.781  0.00  0.00    +0.000 C 
ATOM      3  N   UNL     1       7.241   4.771  18.116  0.00  0.00    +0.000 N 
ATOM      4  C   UNL     1       7.915   5.588  19.000  0.00  0.00    +0.000 C 
ATOM      5  O   UNL     1       8.406   5.133  20.028  0.00  0.00    +0.000 OA
ATOM      6  C   UNL     1       7.968   6.975  18.597  0.00  0.00    +0.000 A 
ATOM      7  C   UNL     1       8.722   8.023  19.089  0.00  0.00    +0.000 A 
ATOM      8  C   UNL     1       8.446   9.180  18.303  0.00  0.00    +0.000 A 
ATOM      9  C   UNL     1       7.503   8.804  17.359  0.00  0.00    +0.000 A 
ATOM     10  N   UNL     1       7.207   7.487  17.567  0.00  0.00    +0.000 N 
ATOM     11  H   UNL     1       7.311   3.780  18.319  0.00  0.00    +0.000 HD
ENDROOT
BRANCH   8  12
ATOM     12  C   UNL     1       9.018  10.517  18.421  0.00  0.00    +0.000 A 
ATOM     13  C   UNL     1       8.519  11.564  17.624  0.00  0.00    +0.000 A 
ATOM     14  C   UNL     1       9.089  12.841  17.681  0.00  0.00    +0.000 A 
ATOM     15  C   UNL     1      10.159  13.071  18.537  0.00  0.00    +0.000 A 
ATOM     16  F   UNL     1      10.716  14.290  18.578  0.00  0.00    +0.000 F 
ATOM     17  C   UNL     1      10.652  12.048  19.336  0.00  0.00    +0.000 A 
ATOM     18  F   UNL     1      11.686  12.275  20.158  0.00  0.00    +0.000 F 
ATOM     19  C   UNL     1      10.087  10.773  19.286  0.00  0.00    +0.000 A 
ENDBRANCH   8  12
BRANCH   1  20
ATOM     20  C   UNL     1       4.903   6.644  17.563  0.00  0.00    +0.000 C 
BRANCH  20  22
ATOM     21  O   UNL     1       4.433   4.505  16.558  0.00  0.00    +0.000 OA
ATOM     22  C   UNL     1       4.086   5.392  17.325  0.00  0.00    +0.000 C 
ATOM     23  N   UNL     1       2.895   5.394  18.011  0.00  0.00    +0.000 N 
ATOM     24  H   UNL     1       2.752   6.058  18.764  0.00  0.00    +0.000 HD
BRANCH  23  25
ATOM     25  C   UNL     1       1.919   4.329  17.924  0.00  0.00    +0.000 C 
BRANCH  25  26
ATOM     26  C   UNL     1       1.816   3.700  19.267  0.00  0.00    +0.000 A 
ATOM     27  C   UNL     1       0.838   3.690  20.241  0.00  0.00    +0.000 A 
ATOM     28  C   UNL     1       1.364   2.944  21.326  0.00  0.00    +0.000 A 
ATOM     29  C   UNL     1       2.621   2.539  20.945  0.00  0.00    +0.000 A 
ATOM     30  O   UNL     1       2.906   2.991  19.696  0.00  0.00    +0.000 OA
ENDBRANCH  25  26
ENDBRANCH  23  25
ENDBRANCH  20  22
ENDBRANCH   1  20
TORSDOF 5
ENDMDL
MODEL 3
REMARK VINA RESULT:      -8.4      1.489      1.815
REMARK  Name = 
REMARK  5 active torsions:
REMARK  status: ('A' for Active; 'I' for Inactive)
REMARK    1  A    between atoms: C_2  and  C_3
REMARK    2  A    between atoms: C_3  and  C_4
REMARK    3  A    between atoms: C_11  and  C_12
REMARK    4  A    between atoms: N_22  and  C_23
REMARK    5  A    between atoms: C_23  and  C_24
REMARK                            x       y       z     vdW  Elec       q    Type
REMARK                         _______ _______ _______ _____ _____    ______ ____
ROOT
ATOM      1  C   UNL     1       4.712   5.464  18.334  0.00  0.00    +0.000 C 
ATOM      2  C   UNL     1       5.341   4.289  19.107  0.00  0.00    +0.000 C 
ATOM      3  N   UNL     1       4.346   3.270  19.406  0.00  0.00    +0.000 N 
ATOM      4  C   UNL     1       3.119   3.609  19.937  0.00  0.00    +0.000 C 
ATOM      5  O   UNL     1       2.375   2.750  20.399  0.00  0.00    +0.000 OA
ATOM      6  C   UNL     1       2.824   5.023  19.884  0.00  0.00    +0.000 A 
ATOM      7  C   UNL     1       1.826   5.753  20.500  0.00  0.00    +0.000 A 
ATOM      8  C   UNL     1       2.009   7.127  20.168  0.00  0.00    +0.000 A 
ATOM      9  C   UNL     1       3.112   7.192  19.332  0.00  0.00    +0.000 A 
ATOM     10  N   UNL     1       3.572   5.918  19.150  0.00  0.00    +0.000 N 
ATOM     11  H   UNL     1       4.620   2.305  19.556  0.00  0.00    +0.000 HD
ENDROOT
BRANCH   8  12
ATOM     12  C   UNL     1       1.225   8.280  20.601  0.00  0.00    +0.000 A 
ATOM     13  C   UNL     1       0.939   9.314  19.690  0.00  0.00    +0.000 A 
ATOM     14  C   UNL     1       0.236  10.453  20.098  0.00  0.00    +0.000 A 
ATOM     15  C   UNL     1      -0.183  10.558  21.418  0.00  0.00    +0.000 A 
ATOM     16  F   UNL     1      -0.841  11.657  21.813  0.00  0.00    +0.000 F 
ATOM     17  C   UNL     1       0.083   9.538  22.323  0.00  0.00    +0.000 A 
ATOM     18  F   UNL     1      -0.321   9.646  23.596  0.00  0.00    +0.000 F 
ATOM     19  C   UNL     1       0.782   8.399  21.923  0.00  0.00    +0.000 A 
ENDBRANCH   8  12
BRANCH   1  20
ATOM     20  C   UNL     1       4.207   5.056  16.943  0.00  0.00    +0.000 C 
BRANCH  20  22
ATOM     21  O   UNL     1       5.334   6.580  15.455  0.00  0.00    +0.000 OA
ATOM     22  C   UNL     1       5.160   5.428  15.827  0.00  0.00    +0.000 C 
ATOM     23  N   UNL     1       5.752   4.333  15.244  0.00  0.00    +0.000 N 
ATOM     24  H   UNL     1       5.714   3.435  15.712  0.00  0.00    +0.000 HD
BRANCH  23  25
ATOM     25  C   UNL     1       6.675   4.419  14.132  0.00  0.00    +0.000 C 
BRANCH  25  26
ATOM     26  C   UNL     1       6.090   3.652  13.001  0.00  0.00    +0.000 A 
ATOM     27  C   UNL     1       6.612   2.764  12.081  0.00  0.00    +0.000 A 
ATOM     28  C   UNL     1       5.545   2.411  11.217  0.00  0.00    +0.000 A 
ATOM     29  C   UNL     1       4.441   3.096  11.666  0.00  0.00    +0.000 A 
ATOM     30  O   UNL     1       4.759   3.851  12.749  0.00  0.00    +0.000 OA
ENDBRANCH  25  26
ENDBRANCH  23  25
ENDBRANCH  20  22
ENDBRANCH   1  20
TORSDOF 5
ENDMDL
MODEL 4
REMARK VINA RESULT:      -8.4      1.305      1.910
REMARK  Name = 
REMARK  5 active torsions:
REMARK  status: ('A' for Active; 'I' for Inactive)
REMARK    1  A    between atoms: C_2  and  C_3
REMARK    2  A    between atoms: C_3  and  C_4
REMARK    3  A    between atoms: C_11  and  C_12
REMARK    4  A    between atoms: N_22  and  C_23
REMARK    5  A    between atoms: C_23  and  C_24
REMARK                            x       y       z     vdW  Elec       q    Type
REMARK                         _______ _______ _______ _____ _____    ______ ____
ROOT
ATOM      1  C   UNL     1       4.982   5.341  18.098  0.00  0.00    +0.000 C 
ATOM      2  C   UNL     1       5.716   4.283  18.942  0.00  0.00    +0.000 C 
ATOM      3  N   UNL     1       4.802   3.234  19.371  0.00  0.00    +0.000 N 
ATOM      4  C   UNL     1       3.575   3.541  19.923  0.00  0.00    +0.000 C 
ATOM      5  O   UNL     1       2.908   2.682  20.490  0.00  0.00    +0.000 OA
ATOM      6  C   UNL     1       3.185   4.923  19.760  0.00  0.00    +0.000 A 
ATOM      7  C   UNL     1       2.164   5.641  20.351  0.00  0.00    +0.000 A 
ATOM      8  C   UNL     1       2.243   6.989  19.894  0.00  0.00    +0.000 A 
ATOM      9  C   UNL     1       3.308   7.047  19.008  0.00  0.00    +0.000 A 
ATOM     10  N   UNL     1       3.845   5.794  18.919  0.00  0.00    +0.000 N 
ATOM     11  H   UNL     1       5.145   2.306  19.594  0.00  0.00    +0.000 HD
ENDROOT
BRANCH   8  12
ATOM     12  C   UNL     1       1.401   8.124  20.257  0.00  0.00    +0.000 A 
ATOM     13  C   UNL     1       0.784   8.162  21.521  0.00  0.00    +0.000 A 
ATOM     14  C   UNL     1      -0.070   9.214  21.869  0.00  0.00    +0.000 A 
ATOM     15  C   UNL     1      -0.308  10.230  20.952  0.00  0.00    +0.000 A 
ATOM     16  F   UNL     1      -1.141  11.228  21.280  0.00  0.00    +0.000 F 
ATOM     17  C   UNL     1       0.305  10.209  19.707  0.00  0.00    +0.000 A 
ATOM     18  F   UNL     1       0.070  11.191  18.825  0.00  0.00    +0.000 F 
ATOM     19  C   UNL     1       1.160   9.165  19.353  0.00  0.00    +0.000 A 
ENDBRANCH   8  12
BRANCH   1  20
ATOM     20  C   UNL     1       4.454   4.779  16.770  0.00  0.00    +0.000 C 
BRANCH  20  22
ATOM     21  O   UNL     1       5.417   6.326  15.193  0.00  0.00    +0.000 OA
ATOM     22  C   UNL     1       5.299   5.170  15.576  0.00  0.00    +0.000 C 
ATOM     23  N   UNL     1       5.858   4.088  14.941  0.00  0.00    +0.000 N 
ATOM     24  H   UNL     1       5.878   3.188  15.408  0.00  0.00    +0.000 HD
BRANCH  23  25
ATOM     25  C   UNL     1       6.679   4.192  13.753  0.00  0.00    +0.000 C 
BRANCH  25  26
ATOM     26  C   UNL     1       5.975   3.478  12.655  0.00  0.00    +0.000 A 
ATOM     27  C   UNL     1       4.701   3.560  12.129  0.00  0.00    +0.000 A 
ATOM     28  C   UNL     1       4.623   2.569  11.117  0.00  0.00    +0.000 A 
ATOM     29  C   UNL     1       5.851   1.953  11.084  0.00  0.00    +0.000 A 
ATOM     30  O   UNL     1       6.681   2.497  12.011  0.00  0.00    +0.000 OA
ENDBRANCH  25  26
ENDBRANCH  23  25
ENDBRANCH  20  22
ENDBRANCH   1  20
TORSDOF 5
ENDMDL
MODEL 5
REMARK VINA RESULT:      -8.4      5.133      7.380
REMARK  Name = 
REMARK  5 active torsions:
REMARK  status: ('A' for Active; 'I' for Inactive)
REMARK    1  A    between atoms: C_2  and  C_3
REMARK    2  A    between atoms: C_3  and  C_4
REMARK    3  A    between atoms: C_11  and  C_12
REMARK    4  A    between atoms: N_22  and  C_23
REMARK    5  A    between atoms: C_23  and  C_24
REMARK                            x       y       z     vdW  Elec       q    Type
REMARK                         _______ _______ _______ _____ _____    ______ ____
ROOT
ATOM      1  C   UNL     1       6.368   6.261  16.830  0.00  0.00    +0.000 C 
ATOM      2  C   UNL     1       7.139   4.928  16.791  0.00  0.00    +0.000 C 
ATOM      3  N   UNL     1       7.530   4.514  18.131  0.00  0.00    +0.000 N 
ATOM      4  C   UNL     1       8.123   5.401  19.005  0.00  0.00    +0.000 C 
ATOM      5  O   UNL     1       8.657   5.006  20.036  0.00  0.00    +0.000 OA
ATOM      6  C   UNL     1       8.042   6.783  18.587  0.00  0.00    +0.000 A 
ATOM      7  C   UNL     1       8.692   7.902  19.068  0.00  0.00    +0.000 A 
ATOM      8  C   UNL     1       8.307   9.019  18.270  0.00  0.00    +0.000 A 
ATOM      9  C   UNL     1       7.403   8.545  17.331  0.00  0.00    +0.000 A 
ATOM     10  N   UNL     1       7.236   7.208  17.553  0.00  0.00    +0.000 N 
ATOM     11  H   UNL     1       7.695   3.536  18.344  0.00  0.00    +0.000 HD
ENDROOT
BRANCH   8  12
ATOM     12  C   UNL     1       8.748  10.407  18.372  0.00  0.00    +0.000 A 
ATOM     13  C   UNL     1       8.172  11.387  17.543  0.00  0.00    +0.000 A 
ATOM     14  C   UNL     1       8.618  12.713  17.587  0.00  0.00    +0.000 A 
ATOM     15  C   UNL     1       9.641  13.059  18.462  0.00  0.00    +0.000 A 
ATOM     16  F   UNL     1      10.080  14.325  18.490  0.00  0.00    +0.000 F 
ATOM     17  C   UNL     1      10.208  12.102  19.292  0.00  0.00    +0.000 A 
ATOM     18  F   UNL     1      11.196  12.440  20.133  0.00  0.00    +0.000 F 
ATOM     19  C   UNL     1       9.767  10.779  19.257  0.00  0.00    +0.000 A 
ENDBRANCH   8  12
BRANCH   1  20
ATOM     20  C   UNL     1       5.023   6.148  17.562  0.00  0.00    +0.000 C 
BRANCH  20  22
ATOM     21  O   UNL     1       3.909   4.227  16.627  0.00  0.00    +0.000 OA
ATOM     22  C   UNL     1       4.471   4.738  17.585  0.00  0.00    +0.000 C 
ATOM     23  N   UNL     1       4.614   4.130  18.809  0.00  0.00    +0.000 N 
ATOM     24  H   UNL     1       5.245   4.527  19.496  0.00  0.00    +0.000 HD
BRANCH  23  25
ATOM     25  C   UNL     1       4.135   2.795  19.100  0.00  0.00    +0.000 C 
BRANCH  25  26
ATOM     26  C   UNL     1       2.905   2.927  19.925  0.00  0.00    +0.000 A 
ATOM     27  C   UNL     1       2.624   2.702  21.258  0.00  0.00    +0.000 A 
ATOM     28  C   UNL     1       1.241   2.966  21.423  0.00  0.00    +0.000 A 
ATOM     29  C   UNL     1       0.768   3.342  20.189  0.00  0.00    +0.000 A 
ATOM     30  O   UNL     1       1.770   3.324  19.272  0.00  0.00    +0.000 OA
ENDBRANCH  25  26
ENDBRANCH  23  25
ENDBRANCH  20  22
ENDBRANCH   1  20
TORSDOF 5
ENDMDL
MODEL 6
REMARK VINA RESULT:      -8.3      2.584      5.461
REMARK  Name = 
REMARK  5 active torsions:
REMARK  status: ('A' for Active; 'I' for Inactive)
REMARK    1  A    between atoms: C_2  and  C_3
REMARK    2  A    between atoms: C_3  and  C_4
REMARK    3  A    between atoms: C_11  and  C_12
REMARK    4  A    between atoms: N_22  and  C_23
REMARK    5  A    between atoms: C_23  and  C_24
REMARK                            x       y       z     vdW  Elec       q    Type
REMARK                         _______ _______ _______ _____ _____    ______ ____
ROOT
ATOM      1  C   UNL     1       4.981   4.339  16.121  0.00  0.00    +0.000 C 
ATOM      2  C   UNL     1       5.982   4.716  15.012  0.00  0.00    +0.000 C 
ATOM      3  N   UNL     1       7.099   5.476  15.556  0.00  0.00    +0.000 N 
ATOM      4  C   UNL     1       6.887   6.537  16.412  0.00  0.00    +0.000 C 
ATOM      5  O   UNL     1       7.796   7.314  16.686  0.00  0.00    +0.000 OA
ATOM      6  C   UNL     1       5.538   6.621  16.925  0.00  0.00    +0.000 A 
ATOM      7  C   UNL     1       4.902   7.638  17.608  0.00  0.00    +0.000 A 
ATOM      8  C   UNL     1       3.551   7.245  17.838  0.00  0.00    +0.000 A 
ATOM      9  C   UNL     1       3.410   5.974  17.303  0.00  0.00    +0.000 A 
ATOM     10  N   UNL     1       4.618   5.604  16.784  0.00  0.00    +0.000 N 
ATOM     11  H   UNL     1       7.998   5.484  15.088  0.00  0.00    +0.000 HD
ENDROOT
BRANCH   8  12
ATOM     12  C   UNL     1       2.484   7.993  18.495  0.00  0.00    +0.000 A 
ATOM     13  C   UNL     1       1.799   9.001  17.790  0.00  0.00    +0.000 A 
ATOM     14  C   UNL     1       0.810   9.767  18.417  0.00  0.00    +0.000 A 
ATOM     15  C   UNL     1       0.505   9.525  19.751  0.00  0.00    +0.000 A 
ATOM     16  F   UNL     1      -0.430  10.272  20.356  0.00  0.00    +0.000 F 
ATOM     17  C   UNL     1       1.167   8.526  20.452  0.00  0.00    +0.000 A 
ATOM     18  F   UNL     1       0.870   8.298  21.739  0.00  0.00    +0.000 F 
ATOM     19  C   UNL     1       2.152   7.756  19.833  0.00  0.00    +0.000 A 
ENDBRANCH   8  12
BRANCH   1  20
ATOM     20  C   UNL     1       5.579   3.378  17.158  0.00  0.00    +0.000 C 
BRANCH  20  22
ATOM     21  O   UNL     1       3.468   2.317  17.628  0.00  0.00    +0.000 OA
ATOM     22  C   UNL     1       4.539   2.733  18.048  0.00  0.00    +0.000 C 
ATOM     23  N   UNL     1       4.901   2.726  19.374  0.00  0.00    +0.000 N 
ATOM     24  H   UNL     1       5.864   2.910  19.631  0.00  0.00    +0.000 HD
BRANCH  23  25
ATOM     25  C   UNL     1       4.062   2.199  20.430  0.00  0.00    +0.000 C 
BRANCH  25  26
ATOM     26  C   UNL     1       2.801   2.986  20.440  0.00  0.00    +0.000 A 
ATOM     27  C   UNL     1       2.511   4.318  20.658  0.00  0.00    +0.000 A 
ATOM     28  C   UNL     1       1.101   4.437  20.579  0.00  0.00    +0.000 A 
ATOM     29  C   UNL     1       0.620   3.178  20.311  0.00  0.00    +0.000 A 
ATOM     30  O   UNL     1       1.643   2.289  20.222  0.00  0.00    +0.000 OA
ENDBRANCH  25  26
ENDBRANCH  23  25
ENDBRANCH  20  22
ENDBRANCH   1  20
TORSDOF 5
ENDMDL
MODEL 7
REMARK VINA RESULT:      -8.3      4.526      9.331
REMARK  Name = 
REMARK  5 active torsions:
REMARK  status: ('A' for Active; 'I' for Inactive)
REMARK    1  A    between atoms: C_2  and  C_3
REMARK    2  A    between atoms: C_3  and  C_4
REMARK    3  A    between atoms: C_11  and  C_12
REMARK    4  A    between atoms: N_22  and  C_23
REMARK    5  A    between atoms: C_23  and  C_24
REMARK                            x       y       z     vdW  Elec       q    Type
REMARK                         _______ _______ _______ _____ _____    ______ ____
ROOT
ATOM      1  C   UNL     1       1.554   4.912  19.632  0.00  0.00    +0.000 C 
ATOM      2  C   UNL     1       0.958   3.673  20.327  0.00  0.00    +0.000 C 
ATOM      3  N   UNL     1       1.940   3.041  21.196  0.00  0.00    +0.000 N 
ATOM      4  C   UNL     1       3.223   2.789  20.755  0.00  0.00    +0.000 C 
ATOM      5  O   UNL     1       3.975   2.060  21.393  0.00  0.00    +0.000 OA
ATOM      6  C   UNL     1       3.561   3.456  19.518  0.00  0.00    +0.000 A 
ATOM      7  C   UNL     1       4.638   3.279  18.671  0.00  0.00    +0.000 A 
ATOM      8  C   UNL     1       4.474   4.147  17.552  0.00  0.00    +0.000 A 
ATOM      9  C   UNL     1       3.300   4.853  17.765  0.00  0.00    +0.000 A 
ATOM     10  N   UNL     1       2.780   4.447  18.961  0.00  0.00    +0.000 N 
ATOM     11  H   UNL     1       1.647   2.478  21.987  0.00  0.00    +0.000 HD
ENDROOT
BRANCH   8  12
ATOM     12  C   UNL     1       5.335   4.298  16.384  0.00  0.00    +0.000 A 
ATOM     13  C   UNL     1       6.616   4.862  16.527  0.00  0.00    +0.000 A 
ATOM     14  C   UNL     1       7.437   5.066  15.412  0.00  0.00    +0.000 A 
ATOM     15  C   UNL     1       6.976   4.705  14.152  0.00  0.00    +0.000 A 
ATOM     16  F   UNL     1       7.756   4.918  13.082  0.00  0.00    +0.000 F 
ATOM     17  C   UNL     1       5.718   4.137  14.001  0.00  0.00    +0.000 A 
ATOM     18  F   UNL     1       5.278   3.793  12.783  0.00  0.00    +0.000 F 
ATOM     19  C   UNL     1       4.895   3.928  15.108  0.00  0.00    +0.000 A 
ENDBRANCH   8  12
BRANCH   1  20
ATOM     20  C   UNL     1       1.912   6.032  20.620  0.00  0.00    +0.000 C 
BRANCH  20  22
ATOM     21  O   UNL     1       2.482   7.698  18.975  0.00  0.00    +0.000 OA
ATOM     22  C   UNL     1       1.877   7.412  19.999  0.00  0.00    +0.000 C 
ATOM     23  N   UNL     1       1.150   8.312  20.741  0.00  0.00    +0.000 N 
ATOM     24  H   UNL     1       0.527   7.976  21.467  0.00  0.00    +0.000 HD
BRANCH  23  25
ATOM     25  C   UNL     1       0.995   9.706  20.381  0.00  0.00    +0.000 C 
BRANCH  25  26
ATOM     26  C   UNL     1       0.098  10.334  21.386  0.00  0.00    +0.000 A 
ATOM     27  C   UNL     1      -0.496  11.576  21.488  0.00  0.00    +0.000 A 
ATOM     28  C   UNL     1      -1.203  11.581  22.716  0.00  0.00    +0.000 A 
ATOM     29  C   UNL     1      -1.005  10.344  23.281  0.00  0.00    +0.000 A 
ATOM     30  O   UNL     1      -0.219   9.577  22.482  0.00  0.00    +0.000 OA
ENDBRANCH  25  26
ENDBRANCH  23  25
ENDBRANCH  20  22
ENDBRANCH   1  20
TORSDOF 5
ENDMDL
MODEL 8
REMARK VINA RESULT:      -8.2      1.925      2.841
REMARK  Name = 
REMARK  5 active torsions:
REMARK  status: ('A' for Active; 'I' for Inactive)
REMARK    1  A    between atoms: C_2  and  C_3
REMARK    2  A    between atoms: C_3  and  C_4
REMARK    3  A    between atoms: C_11  and  C_12
REMARK    4  A    between atoms: N_22  and  C_23
REMARK    5  A    between atoms: C_23  and  C_24
REMARK                            x       y       z     vdW  Elec       q    Type
REMARK                         _______ _______ _______ _____ _____    ______ ____
ROOT
ATOM      1  C   UNL     1       4.406   4.191  19.077  0.00  0.00    +0.000 C 
ATOM      2  C   UNL     1       4.384   2.880  19.885  0.00  0.00    +0.000 C 
ATOM      3  N   UNL     1       3.078   2.241  19.805  0.00  0.00    +0.000 N 
ATOM      4  C   UNL     1       1.920   2.964  20.006  0.00  0.00    +0.000 C 
ATOM      5  O   UNL     1       0.845   2.396  20.166  0.00  0.00    +0.000 OA
ATOM      6  C   UNL     1       2.111   4.397  20.001  0.00  0.00    +0.000 A 
ATOM      7  C   UNL     1       1.259   5.415  20.380  0.00  0.00    +0.000 A 
ATOM      8  C   UNL     1       1.951   6.654  20.236  0.00  0.00    +0.000 A 
ATOM      9  C   UNL     1       3.211   6.351  19.746  0.00  0.00    +0.000 A 
ATOM     10  N   UNL     1       3.281   4.996  19.584  0.00  0.00    +0.000 N 
ATOM     11  H   UNL     1       2.980   1.241  19.939  0.00  0.00    +0.000 HD
ENDROOT
BRANCH   8  12
ATOM     12  C   UNL     1       1.477   8.001  20.537  0.00  0.00    +0.000 A 
ATOM     13  C   UNL     1       1.039   8.315  21.837  0.00  0.00    +0.000 A 
ATOM     14  C   UNL     1       0.531   9.584  22.134  0.00  0.00    +0.000 A 
ATOM     15  C   UNL     1       0.461  10.542  21.129  0.00  0.00    +0.000 A 
ATOM     16  F   UNL     1      -0.043  11.752  21.410  0.00  0.00    +0.000 F 
ATOM     17  C   UNL     1       0.901  10.246  19.846  0.00  0.00    +0.000 A 
ATOM     18  F   UNL     1       0.829  11.172  18.880  0.00  0.00    +0.000 F 
ATOM     19  C   UNL     1       1.411   8.984  19.543  0.00  0.00    +0.000 A 
ENDBRANCH   8  12
BRANCH   1  20
ATOM     20  C   UNL     1       4.226   3.963  17.570  0.00  0.00    +0.000 C 
BRANCH  20  22
ATOM     21  O   UNL     1       4.659   5.995  16.351  0.00  0.00    +0.000 OA
ATOM     22  C   UNL     1       5.057   4.898  16.718  0.00  0.00    +0.000 C 
ATOM     23  N   UNL     1       6.266   4.357  16.356  0.00  0.00    +0.000 N 
ATOM     24  H   UNL     1       6.612   3.535  16.838  0.00  0.00    +0.000 HD
BRANCH  23  25
ATOM     25  C   UNL     1       7.227   5.037  15.512  0.00  0.00    +0.000 C 
BRANCH  25  26
ATOM     26  C   UNL     1       6.983   4.604  14.111  0.00  0.00    +0.000 A 
ATOM     27  C   UNL     1       6.166   3.651  13.537  0.00  0.00    +0.000 A 
ATOM     28  C   UNL     1       6.426   3.689  12.144  0.00  0.00    +0.000 A 
ATOM     29  C   UNL     1       7.374   4.665  11.954  0.00  0.00    +0.000 A 
ATOM     30  O   UNL     1       7.719   5.229  13.140  0.00  0.00    +0.000 OA
ENDBRANCH  25  26
ENDBRANCH  23  25
ENDBRANCH  20  22
ENDBRANCH   1  20
TORSDOF 5
ENDMDL
MODEL 9
REMARK VINA RESULT:      -8.2      1.840      2.520
REMARK  Name = 
REMARK  5 active torsions:
REMARK  status: ('A' for Active; 'I' for Inactive)
REMARK    1  A    between atoms: C_2  and  C_3
REMARK    2  A    between atoms: C_3  and  C_4
REMARK    3  A    between atoms: C_11  and  C_12
REMARK    4  A    between atoms: N_22  and  C_23
REMARK    5  A    between atoms: C_23  and  C_24
REMARK                            x       y       z     vdW  Elec       q    Type
REMARK                         _______ _______ _______ _____ _____    ______ ____
ROOT
ATOM      1  C   UNL     1       4.480   4.152  19.140  0.00  0.00    +0.000 C 
ATOM      2  C   UNL     1       4.499   2.893  20.027  0.00  0.00    +0.000 C 
ATOM      3  N   UNL     1       3.206   2.222  20.006  0.00  0.00    +0.000 N 
ATOM      4  C   UNL     1       2.035   2.929  20.179  0.00  0.00    +0.000 C 
ATOM      5  O   UNL     1       0.975   2.349  20.390  0.00  0.00    +0.000 OA
ATOM      6  C   UNL     1       2.193   4.363  20.084  0.00  0.00    +0.000 A 
ATOM      7  C   UNL     1       1.323   5.384  20.412  0.00  0.00    +0.000 A 
ATOM      8  C   UNL     1       1.984   6.626  20.183  0.00  0.00    +0.000 A 
ATOM      9  C   UNL     1       3.244   6.322  19.693  0.00  0.00    +0.000 A 
ATOM     10  N   UNL     1       3.343   4.962  19.614  0.00  0.00    +0.000 N 
ATOM     11  H   UNL     1       3.134   1.230  20.201  0.00  0.00    +0.000 HD
ENDROOT
BRANCH   8  12
ATOM     12  C   UNL     1       1.484   7.979  20.408  0.00  0.00    +0.000 A 
ATOM     13  C   UNL     1       1.457   8.901  19.346  0.00  0.00    +0.000 A 
ATOM     14  C   UNL     1       1.032  10.218  19.552  0.00  0.00    +0.000 A 
ATOM     15  C   UNL     1       0.633  10.613  20.823  0.00  0.00    +0.000 A 
ATOM     16  F   UNL     1       0.243  11.881  21.024  0.00  0.00    +0.000 F 
ATOM     17  C   UNL     1       0.644   9.709  21.876  0.00  0.00    +0.000 A 
ATOM     18  F   UNL     1       0.261  10.096  23.101  0.00  0.00    +0.000 F 
ATOM     19  C   UNL     1       1.064   8.393  21.678  0.00  0.00    +0.000 A 
ENDBRANCH   8  12
BRANCH   1  20
ATOM     20  C   UNL     1       4.284   3.828  17.653  0.00  0.00    +0.000 C 
BRANCH  20  22
ATOM     21  O   UNL     1       4.659   5.860  16.414  0.00  0.00    +0.000 OA
ATOM     22  C   UNL     1       5.057   4.748  16.732  0.00  0.00    +0.000 C 
ATOM     23  N   UNL     1       6.209   4.175  16.249  0.00  0.00    +0.000 N 
ATOM     24  H   UNL     1       6.575   3.338  16.689  0.00  0.00    +0.000 HD
BRANCH  23  25
ATOM     25  C   UNL     1       7.104   4.835  15.322  0.00  0.00    +0.000 C 
BRANCH  25  26
ATOM     26  C   UNL     1       6.756   4.373  13.952  0.00  0.00    +0.000 A 
ATOM     27  C   UNL     1       5.756   3.569  13.444  0.00  0.00    +0.000 A 
ATOM     28  C   UNL     1       5.996   3.466  12.051  0.00  0.00    +0.000 A 
ATOM     29  C   UNL     1       7.118   4.216  11.795  0.00  0.00    +0.000 A 
ATOM     30  O   UNL     1       7.588   4.773  12.941  0.00  0.00    +0.000 OA
ENDBRANCH  25  26
ENDBRANCH  23  25
ENDBRANCH  20  22
ENDBRANCH   1  20
TORSDOF 5
ENDMDL
