MODEL 1
REMARK VINA RESULT:      -8.3      0.000      0.000
REMARK  Name = 
REMARK  4 active torsions:
REMARK  status: ('A' for Active; 'I' for Inactive)
REMARK    1  A    between atoms: N_6  and  C_7
REMARK    2  A    between atoms: C_17  and  C_18
REMARK    3  A    between atoms: C_21  and  O_22
REMARK    4  A    between atoms: C_23  and  O_24
REMARK                            x       y       z     vdW  Elec       q    Type
REMARK                         _______ _______ _______ _____ _____    ______ ____
ROOT
ATOM      1  O   UNL     1       1.694   5.936  20.547  0.00  0.00    +0.000 OA
ATOM      2  C   UNL     1       1.679   7.132  20.290  0.00  0.00    +0.000 C 
ATOM      3  N   UNL     1       1.280   8.026  21.238  0.00  0.00    +0.000 N 
ATOM      4  C   UNL     1       0.952   9.347  21.077  0.00  0.00    +0.000 C 
ATOM      5  S   UNL     1       0.280  10.082  22.433  0.00  0.00    +0.000 S 
ATOM      6  N   UNL     1       1.154   9.889  19.803  0.00  0.00    +0.000 N 
ATOM      7  C   UNL     1       1.688   9.165  18.722  0.00  0.00    +0.000 C 
ATOM      8  O   UNL     1       1.908   9.648  17.609  0.00  0.00    +0.000 OA
ATOM      9  C   UNL     1       2.020   7.734  18.988  0.00  0.00    +0.000 C 
ATOM     10  C   UNL     1       2.632   7.048  17.997  0.00  0.00    +0.000 C 
ATOM     11  H   UNL     1       1.052   7.610  22.134  0.00  0.00    +0.000 HD
ENDROOT
BRANCH   6  12
ATOM     12  C   UNL     1       0.805  11.256  19.528  0.00  0.00    +0.000 A 
ATOM     13  C   UNL     1       1.723  12.281  19.799  0.00  0.00    +0.000 A 
ATOM     14  C   UNL     1       1.395  13.615  19.541  0.00  0.00    +0.000 A 
ATOM     15  C   UNL     1       0.138  13.930  19.030  0.00  0.00    +0.000 A 
ATOM     16 BR   UNL     1      -0.317  15.735  18.703  0.00  0.00    +0.000 Br
ATOM     17  C   UNL     1      -0.791  12.924  18.768  0.00  0.00    +0.000 A 
ATOM     18  C   UNL     1      -0.457  11.589  19.016  0.00  0.00    +0.000 A 
ENDBRANCH   6  12
BRANCH  10  19
ATOM     19  C   UNL     1       3.027   5.636  18.038  0.00  0.00    +0.000 A 
ATOM     20  C   UNL     1       2.103   4.649  17.662  0.00  0.00    +0.000 A 
ATOM     21  C   UNL     1       2.432   3.292  17.755  0.00  0.00    +0.000 A 
ATOM     22  C   UNL     1       3.691   2.934  18.219  0.00  0.00    +0.000 A 
ATOM     23  C   UNL     1       4.618   3.914  18.567  0.00  0.00    +0.000 A 
ATOM     24  C   UNL     1       4.301   5.263  18.480  0.00  0.00    +0.000 A 
BRANCH  22  25
ATOM     25  O   UNL     1       4.064   1.625  18.359  0.00  0.00    +0.000 OA
ATOM     26  H   UNL     1       3.329   1.149  18.783  0.00  0.00    +0.000 HD
ENDBRANCH  22  25
BRANCH  23  27
ATOM     27  O   UNL     1       5.857   3.546  19.015  0.00  0.00    +0.000 OA
ATOM     28  H   UNL     1       6.066   4.198  19.713  0.00  0.00    +0.000 HD
ENDBRANCH  23  27
ENDBRANCH  10  19
TORSDOF 4
ENDMDL
MODEL 2
REMARK VINA RESULT:      -7.9      0.577      1.330
REMARK  Name = 
REMARK  4 active torsions:
REMARK  status: ('A' for Active; 'I' for Inactive)
REMARK    1  A    between atoms: N_6  and  C_7
REMARK    2  A    between atoms: C_17  and  C_18
REMARK    3  A    between atoms: C_21  and  O_22
REMARK    4  A    between atoms: C_23  and  O_24
REMARK                            x       y       z     vdW  Elec       q    Type
REMARK                         _______ _______ _______ _____ _____    ______ ____
ROOT
ATOM      1  O   UNL     1       1.561   6.106  20.659  0.00  0.00    +0.000 OA
ATOM      2  C   UNL     1       1.574   7.299  20.386  0.00  0.00    +0.000 C 
ATOM      3  N   UNL     1       1.068   8.204  21.271  0.00  0.00    +0.000 N 
ATOM      4  C   UNL     1       0.759   9.521  21.057  0.00  0.00    +0.000 C 
ATOM      5  S   UNL     1      -0.066  10.271  22.317  0.00  0.00    +0.000 S 
ATOM      6  N   UNL     1       1.104  10.047  19.807  0.00  0.00    +0.000 N 
ATOM      7  C   UNL     1       1.760   9.312  18.804  0.00  0.00    +0.000 C 
ATOM      8  O   UNL     1       2.104   9.782  17.717  0.00  0.00    +0.000 OA
ATOM      9  C   UNL     1       2.060   7.885  19.124  0.00  0.00    +0.000 C 
ATOM     10  C   UNL     1       2.784   7.188  18.219  0.00  0.00    +0.000 C 
ATOM     11  H   UNL     1       0.739   7.798  22.140  0.00  0.00    +0.000 HD
ENDROOT
BRANCH   6  12
ATOM     12  C   UNL     1       0.786  11.410  19.476  0.00  0.00    +0.000 A 
ATOM     13  C   UNL     1       1.661  12.442  19.848  0.00  0.00    +0.000 A 
ATOM     14  C   UNL     1       1.363  13.772  19.537  0.00  0.00    +0.000 A 
ATOM     15  C   UNL     1       0.177  14.075  18.871  0.00  0.00    +0.000 A 
ATOM     16 BR   UNL     1      -0.240  15.875  18.472  0.00  0.00    +0.000 Br
ATOM     17  C   UNL     1      -0.709  13.063  18.508  0.00  0.00    +0.000 A 
ATOM     18  C   UNL     1      -0.404  11.732  18.810  0.00  0.00    +0.000 A 
ENDBRANCH   6  12
BRANCH  10  19
ATOM     19  C   UNL     1       3.174   5.779  18.323  0.00  0.00    +0.000 A 
ATOM     20  C   UNL     1       4.386   5.441  18.946  0.00  0.00    +0.000 A 
ATOM     21  C   UNL     1       4.813   4.110  19.000  0.00  0.00    +0.000 A 
ATOM     22  C   UNL     1       4.016   3.123  18.436  0.00  0.00    +0.000 A 
ATOM     23  C   UNL     1       2.800   3.454  17.842  0.00  0.00    +0.000 A 
ATOM     24  C   UNL     1       2.368   4.772  17.781  0.00  0.00    +0.000 A 
BRANCH  22  25
ATOM     25  O   UNL     1       4.390   1.807  18.433  0.00  0.00    +0.000 OA
ATOM     26  H   UNL     1       5.328   1.764  18.177  0.00  0.00    +0.000 HD
ENDBRANCH  22  25
BRANCH  23  27
ATOM     27  O   UNL     1       2.022   2.470  17.298  0.00  0.00    +0.000 OA
ATOM     28  H   UNL     1       2.655   1.762  17.063  0.00  0.00    +0.000 HD
ENDBRANCH  23  27
ENDBRANCH  10  19
TORSDOF 4
ENDMDL
MODEL 3
REMARK VINA RESULT:      -7.4      1.159      1.655
REMARK  Name = 
REMARK  4 active torsions:
REMARK  status: ('A' for Active; 'I' for Inactive)
REMARK    1  A    between atoms: N_6  and  C_7
REMARK    2  A    between atoms: C_17  and  C_18
REMARK    3  A    between atoms: C_21  and  O_22
REMARK    4  A    between atoms: C_23  and  O_24
REMARK                            x       y       z     vdW  Elec       q    Type
REMARK                         _______ _______ _______ _____ _____    ______ ____
ROOT
ATOM      1  O   UNL     1       1.843   6.054  20.611  0.00  0.00    +0.000 OA
ATOM      2  C   UNL     1       1.658   7.261  20.532  0.00  0.00    +0.000 C 
ATOM      3  N   UNL     1       1.217   7.954  21.620  0.00  0.00    +0.000 N 
ATOM      4  C   UNL     1       0.713   9.228  21.670  0.00  0.00    +0.000 C 
ATOM      5  S   UNL     1       0.050   9.671  23.151  0.00  0.00    +0.000 S 
ATOM      6  N   UNL     1       0.754   9.962  20.480  0.00  0.00    +0.000 N 
ATOM      7  C   UNL     1       1.299   9.473  19.279  0.00  0.00    +0.000 C 
ATOM      8  O   UNL     1       1.376  10.130  18.238  0.00  0.00    +0.000 OA
ATOM      9  C   UNL     1       1.827   8.077  19.316  0.00  0.00    +0.000 C 
ATOM     10  C   UNL     1       2.450   7.624  18.205  0.00  0.00    +0.000 C 
ATOM     11  H   UNL     1       1.107   7.392  22.456  0.00  0.00    +0.000 HD
ENDROOT
BRANCH   6  12
ATOM     12  C   UNL     1       0.216  11.293  20.425  0.00  0.00    +0.000 A 
ATOM     13  C   UNL     1       1.031  12.391  20.739  0.00  0.00    +0.000 A 
ATOM     14  C   UNL     1       0.519  13.691  20.694  0.00  0.00    +0.000 A 
ATOM     15  C   UNL     1      -0.817  13.896  20.357  0.00  0.00    +0.000 A 
ATOM     16 BR   UNL     1      -1.517  15.651  20.320  0.00  0.00    +0.000 Br
ATOM     17  C   UNL     1      -1.644  12.815  20.057  0.00  0.00    +0.000 A 
ATOM     18  C   UNL     1      -1.128  11.515  20.090  0.00  0.00    +0.000 A 
ENDBRANCH   6  12
BRANCH  10  19
ATOM     19  C   UNL     1       3.023   6.287  18.020  0.00  0.00    +0.000 A 
ATOM     20  C   UNL     1       4.416   6.119  18.071  0.00  0.00    +0.000 A 
ATOM     21  C   UNL     1       4.993   4.867  17.832  0.00  0.00    +0.000 A 
ATOM     22  C   UNL     1       4.166   3.786  17.551  0.00  0.00    +0.000 A 
ATOM     23  C   UNL     1       2.782   3.947  17.528  0.00  0.00    +0.000 A 
ATOM     24  C   UNL     1       2.200   5.185  17.761  0.00  0.00    +0.000 A 
BRANCH  22  25
ATOM     25  O   UNL     1       4.668   2.543  17.283  0.00  0.00    +0.000 OA
ATOM     26  H   UNL     1       4.360   1.940  17.981  0.00  0.00    +0.000 HD
ENDBRANCH  22  25
BRANCH  23  27
ATOM     27  O   UNL     1       1.980   2.872  17.257  0.00  0.00    +0.000 OA
ATOM     28  H   UNL     1       1.070   3.223  17.331  0.00  0.00    +0.000 HD
ENDBRANCH  23  27
ENDBRANCH  10  19
TORSDOF 4
ENDMDL
MODEL 4
REMARK VINA RESULT:      -6.8      3.984      7.972
REMARK  Name = 
REMARK  4 active torsions:
REMARK  status: ('A' for Active; 'I' for Inactive)
REMARK    1  A    between atoms: N_6  and  C_7
REMARK    2  A    between atoms: C_17  and  C_18
REMARK    3  A    between atoms: C_21  and  O_22
REMARK    4  A    between atoms: C_23  and  O_24
REMARK                            x       y       z     vdW  Elec       q    Type
REMARK                         _______ _______ _______ _____ _____    ______ ____
ROOT
ATOM      1  O   UNL     1       0.759   9.047  21.719  0.00  0.00    +0.000 OA
ATOM      2  C   UNL     1       1.213   8.429  20.764  0.00  0.00    +0.000 C 
ATOM      3  N   UNL     1       1.536   7.112  20.899  0.00  0.00    +0.000 N 
ATOM      4  C   UNL     1       2.278   6.328  20.054  0.00  0.00    +0.000 C 
ATOM      5  S   UNL     1       2.670   4.808  20.658  0.00  0.00    +0.000 S 
ATOM      6  N   UNL     1       2.666   6.911  18.843  0.00  0.00    +0.000 N 
ATOM      7  C   UNL     1       2.314   8.216  18.456  0.00  0.00    +0.000 C 
ATOM      8  O   UNL     1       2.618   8.719  17.371  0.00  0.00    +0.000 OA
ATOM      9  C   UNL     1       1.503   8.997  19.435  0.00  0.00    +0.000 C 
ATOM     10  C   UNL     1       1.063  10.213  19.041  0.00  0.00    +0.000 C 
ATOM     11  H   UNL     1       1.331   6.723  21.812  0.00  0.00    +0.000 HD
ENDROOT
BRANCH   6  12
ATOM     12  C   UNL     1       3.478   6.179  17.909  0.00  0.00    +0.000 A 
ATOM     13  C   UNL     1       4.617   6.779  17.352  0.00  0.00    +0.000 A 
ATOM     14  C   UNL     1       5.413   6.081  16.439  0.00  0.00    +0.000 A 
ATOM     15  C   UNL     1       5.060   4.786  16.065  0.00  0.00    +0.000 A 
ATOM     16 BR   UNL     1       6.121   3.849  14.812  0.00  0.00    +0.000 Br
ATOM     17  C   UNL     1       3.923   4.181  16.598  0.00  0.00    +0.000 A 
ATOM     18  C   UNL     1       3.134   4.876  17.519  0.00  0.00    +0.000 A 
ENDBRANCH   6  12
BRANCH  10  19
ATOM     19  C   UNL     1       0.272  11.149  19.846  0.00  0.00    +0.000 A 
ATOM     20  C   UNL     1      -1.128  11.146  19.734  0.00  0.00    +0.000 A 
ATOM     21  C   UNL     1      -1.902  12.072  20.440  0.00  0.00    +0.000 A 
ATOM     22  C   UNL     1      -1.268  12.993  21.264  0.00  0.00    +0.000 A 
ATOM     23  C   UNL     1       0.120  12.979  21.397  0.00  0.00    +0.000 A 
ATOM     24  C   UNL     1       0.897  12.066  20.699  0.00  0.00    +0.000 A 
BRANCH  22  25
ATOM     25  O   UNL     1      -1.965  13.940  21.960  0.00  0.00    +0.000 OA
ATOM     26  H   UNL     1      -1.992  13.666  22.893  0.00  0.00    +0.000 HD
ENDBRANCH  22  25
BRANCH  23  27
ATOM     27  O   UNL     1       0.730  13.887  22.218  0.00  0.00    +0.000 OA
ATOM     28  H   UNL     1       1.291  13.343  22.806  0.00  0.00    +0.000 HD
ENDBRANCH  23  27
ENDBRANCH  10  19
TORSDOF 4
ENDMDL
MODEL 5
REMARK VINA RESULT:      -6.7      1.440      1.792
REMARK  Name = 
REMARK  4 active torsions:
REMARK  status: ('A' for Active; 'I' for Inactive)
REMARK    1  A    between atoms: N_6  and  C_7
REMARK    2  A    between atoms: C_17  and  C_18
REMARK    3  A    between atoms: C_21  and  O_22
REMARK    4  A    between atoms: C_23  and  O_24
REMARK                            x       y       z     vdW  Elec       q    Type
REMARK                         _______ _______ _______ _____ _____    ______ ____
ROOT
ATOM      1  O   UNL     1       1.991   6.300  20.430  0.00  0.00    +0.000 OA
ATOM      2  C   UNL     1       1.712   7.492  20.427  0.00  0.00    +0.000 C 
ATOM      3  N   UNL     1       1.273   8.089  21.571  0.00  0.00    +0.000 N 
ATOM      4  C   UNL     1       0.678   9.316  21.715  0.00  0.00    +0.000 C 
ATOM      5  S   UNL     1       0.055   9.627  23.246  0.00  0.00    +0.000 S 
ATOM      6  N   UNL     1       0.607  10.113  20.567  0.00  0.00    +0.000 N 
ATOM      7  C   UNL     1       1.128   9.731  19.318  0.00  0.00    +0.000 C 
ATOM      8  O   UNL     1       1.105  10.447  18.313  0.00  0.00    +0.000 OA
ATOM      9  C   UNL     1       1.761   8.381  19.253  0.00  0.00    +0.000 C 
ATOM     10  C   UNL     1       2.362   8.037  18.092  0.00  0.00    +0.000 C 
ATOM     11  H   UNL     1       1.246   7.477  22.378  0.00  0.00    +0.000 HD
ENDROOT
BRANCH   6  12
ATOM     12  C   UNL     1      -0.032  11.399  20.611  0.00  0.00    +0.000 A 
ATOM     13  C   UNL     1      -1.380  11.524  20.242  0.00  0.00    +0.000 A 
ATOM     14  C   UNL     1      -2.013  12.770  20.276  0.00  0.00    +0.000 A 
ATOM     15  C   UNL     1      -1.294  13.899  20.660  0.00  0.00    +0.000 A 
ATOM     16 BR   UNL     1      -2.142  15.588  20.683  0.00  0.00    +0.000 Br
ATOM     17  C   UNL     1       0.049  13.795  21.016  0.00  0.00    +0.000 A 
ATOM     18  C   UNL     1       0.679  12.546  20.993  0.00  0.00    +0.000 A 
ENDBRANCH   6  12
BRANCH  10  19
ATOM     19  C   UNL     1       3.025   6.760  17.807  0.00  0.00    +0.000 A 
ATOM     20  C   UNL     1       2.253   5.593  17.685  0.00  0.00    +0.000 A 
ATOM     21  C   UNL     1       2.865   4.352  17.480  0.00  0.00    +0.000 A 
ATOM     22  C   UNL     1       4.249   4.289  17.389  0.00  0.00    +0.000 A 
ATOM     23  C   UNL     1       5.014   5.451  17.483  0.00  0.00    +0.000 A 
ATOM     24  C   UNL     1       4.417   6.687  17.689  0.00  0.00    +0.000 A 
BRANCH  22  25
ATOM     25  O   UNL     1       4.909   3.104  17.215  0.00  0.00    +0.000 OA
ATOM     26  H   UNL     1       5.851   3.255  17.410  0.00  0.00    +0.000 HD
ENDBRANCH  22  25
BRANCH  23  27
ATOM     27  O   UNL     1       6.376   5.374  17.384  0.00  0.00    +0.000 OA
ATOM     28  H   UNL     1       6.535   4.582  16.833  0.00  0.00    +0.000 HD
ENDBRANCH  23  27
ENDBRANCH  10  19
TORSDOF 4
ENDMDL
MODEL 6
REMARK VINA RESULT:      -6.7      2.687      3.369
REMARK  Name = 
REMARK  4 active torsions:
REMARK  status: ('A' for Active; 'I' for Inactive)
REMARK    1  A    between atoms: N_6  and  C_7
REMARK    2  A    between atoms: C_17  and  C_18
REMARK    3  A    between atoms: C_21  and  O_22
REMARK    4  A    between atoms: C_23  and  O_24
REMARK                            x       y       z     vdW  Elec       q    Type
REMARK                         _______ _______ _______ _____ _____    ______ ____
ROOT
ATOM      1  O   UNL     1       1.859   8.676  17.244  0.00  0.00    +0.000 OA
ATOM      2  C   UNL     1       1.287   9.237  18.169  0.00  0.00    +0.000 C 
ATOM      3  N   UNL     1       0.490  10.315  17.922  0.00  0.00    +0.000 N 
ATOM      4  C   UNL     1      -0.019  11.219  18.817  0.00  0.00    +0.000 C 
ATOM      5  S   UNL     1      -0.769  12.556  18.127  0.00  0.00    +0.000 S 
ATOM      6  N   UNL     1       0.208  10.950  20.172  0.00  0.00    +0.000 N 
ATOM      7  C   UNL     1       0.891   9.813  20.638  0.00  0.00    +0.000 C 
ATOM      8  O   UNL     1       1.057   9.550  21.832  0.00  0.00    +0.000 OA
ATOM      9  C   UNL     1       1.409   8.881  19.595  0.00  0.00    +0.000 C 
ATOM     10  C   UNL     1       1.974   7.729  20.021  0.00  0.00    +0.000 C 
ATOM     11  H   UNL     1       0.404  10.554  16.941  0.00  0.00    +0.000 HD
ENDROOT
BRANCH   6  12
ATOM     12  C   UNL     1      -0.255  11.861  21.183  0.00  0.00    +0.000 A 
ATOM     13  C   UNL     1       0.385  13.097  21.358  0.00  0.00    +0.000 A 
ATOM     14  C   UNL     1      -0.052  13.990  22.340  0.00  0.00    +0.000 A 
ATOM     15  C   UNL     1      -1.119  13.640  23.166  0.00  0.00    +0.000 A 
ATOM     16 BR   UNL     1      -1.695  14.837  24.511  0.00  0.00    +0.000 Br
ATOM     17  C   UNL     1      -1.756  12.410  23.014  0.00  0.00    +0.000 A 
ATOM     18  C   UNL     1      -1.325  11.522  22.023  0.00  0.00    +0.000 A 
ENDBRANCH   6  12
BRANCH  10  19
ATOM     19  C   UNL     1       2.560   6.687  19.171  0.00  0.00    +0.000 A 
ATOM     20  C   UNL     1       3.908   6.782  18.791  0.00  0.00    +0.000 A 
ATOM     21  C   UNL     1       4.474   5.838  17.928  0.00  0.00    +0.000 A 
ATOM     22  C   UNL     1       3.685   4.798  17.456  0.00  0.00    +0.000 A 
ATOM     23  C   UNL     1       2.354   4.687  17.855  0.00  0.00    +0.000 A 
ATOM     24  C   UNL     1       1.782   5.620  18.709  0.00  0.00    +0.000 A 
BRANCH  22  25
ATOM     25  O   UNL     1       4.171   3.858  16.590  0.00  0.00    +0.000 OA
ATOM     26  H   UNL     1       5.010   4.192  16.227  0.00  0.00    +0.000 HD
ENDBRANCH  22  25
BRANCH  23  27
ATOM     27  O   UNL     1       1.592   3.652  17.388  0.00  0.00    +0.000 OA
ATOM     28  H   UNL     1       0.724   3.775  17.822  0.00  0.00    +0.000 HD
ENDBRANCH  23  27
ENDBRANCH  10  19
TORSDOF 4
ENDMDL
MODEL 7
REMARK VINA RESULT:      -6.5      3.959      8.072
REMARK  Name = 
REMARK  4 active torsions:
REMARK  status: ('A' for Active; 'I' for Inactive)
REMARK    1  A    between atoms: N_6  and  C_7
REMARK    2  A    between atoms: C_17  and  C_18
REMARK    3  A    between atoms: C_21  and  O_22
REMARK    4  A    between atoms: C_23  and  O_24
REMARK                            x       y       z     vdW  Elec       q    Type
REMARK                         _______ _______ _______ _____ _____    ______ ____
ROOT
ATOM      1  O   UNL     1       0.657   9.232  21.597  0.00  0.00    +0.000 OA
ATOM      2  C   UNL     1       1.123   8.578  20.674  0.00  0.00    +0.000 C 
ATOM      3  N   UNL     1       1.443   7.267  20.864  0.00  0.00    +0.000 N 
ATOM      4  C   UNL     1       2.195   6.450  20.060  0.00  0.00    +0.000 C 
ATOM      5  S   UNL     1       2.577   4.954  20.727  0.00  0.00    +0.000 S 
ATOM      6  N   UNL     1       2.600   6.985  18.832  0.00  0.00    +0.000 N 
ATOM      7  C   UNL     1       2.255   8.275  18.390  0.00  0.00    +0.000 C 
ATOM      8  O   UNL     1       2.574   8.736  17.292  0.00  0.00    +0.000 OA
ATOM      9  C   UNL     1       1.432   9.094  19.328  0.00  0.00    +0.000 C 
ATOM     10  C   UNL     1       0.999  10.295  18.882  0.00  0.00    +0.000 C 
ATOM     11  H   UNL     1       1.224   6.913  21.788  0.00  0.00    +0.000 HD
ENDROOT
BRANCH   6  12
ATOM     12  C   UNL     1       3.423   6.218  17.938  0.00  0.00    +0.000 A 
ATOM     13  C   UNL     1       4.587   6.785  17.398  0.00  0.00    +0.000 A 
ATOM     14  C   UNL     1       5.395   6.051  16.524  0.00  0.00    +0.000 A 
ATOM     15  C   UNL     1       5.029   4.754  16.171  0.00  0.00    +0.000 A 
ATOM     16 BR   UNL     1       6.107   3.769  14.970  0.00  0.00    +0.000 Br
ATOM     17  C   UNL     1       3.869   4.181  16.688  0.00  0.00    +0.000 A 
ATOM     18  C   UNL     1       3.068   4.912  17.571  0.00  0.00    +0.000 A 
ENDBRANCH   6  12
BRANCH  10  19
ATOM     19  C   UNL     1       0.198  11.261  19.639  0.00  0.00    +0.000 A 
ATOM     20  C   UNL     1       0.831  12.113  20.559  0.00  0.00    +0.000 A 
ATOM     21  C   UNL     1       0.083  12.998  21.343  0.00  0.00    +0.000 A 
ATOM     22  C   UNL     1      -1.298  13.029  21.193  0.00  0.00    +0.000 A 
ATOM     23  C   UNL     1      -1.924  12.203  20.261  0.00  0.00    +0.000 A 
ATOM     24  C   UNL     1      -1.191  11.320  19.481  0.00  0.00    +0.000 A 
BRANCH  22  25
ATOM     25  O   UNL     1      -2.088  13.852  21.948  0.00  0.00    +0.000 OA
ATOM     26  H   UNL     1      -2.236  14.670  21.441  0.00  0.00    +0.000 HD
ENDBRANCH  22  25
BRANCH  23  27
ATOM     27  O   UNL     1      -3.283  12.251  20.120  0.00  0.00    +0.000 OA
ATOM     28  H   UNL     1      -3.628  11.899  20.966  0.00  0.00    +0.000 HD
ENDBRANCH  23  27
ENDBRANCH  10  19
TORSDOF 4
ENDMDL
MODEL 8
REMARK VINA RESULT:      -6.5      2.662      3.267
REMARK  Name = 
REMARK  4 active torsions:
REMARK  status: ('A' for Active; 'I' for Inactive)
REMARK    1  A    between atoms: N_6  and  C_7
REMARK    2  A    between atoms: C_17  and  C_18
REMARK    3  A    between atoms: C_21  and  O_22
REMARK    4  A    between atoms: C_23  and  O_24
REMARK                            x       y       z     vdW  Elec       q    Type
REMARK                         _______ _______ _______ _____ _____    ______ ____
ROOT
ATOM      1  O   UNL     1       1.821   8.735  17.163  0.00  0.00    +0.000 OA
ATOM      2  C   UNL     1       1.266   9.279  18.109  0.00  0.00    +0.000 C 
ATOM      3  N   UNL     1       0.448  10.348  17.893  0.00  0.00    +0.000 N 
ATOM      4  C   UNL     1      -0.050  11.236  18.810  0.00  0.00    +0.000 C 
ATOM      5  S   UNL     1      -0.839  12.568  18.153  0.00  0.00    +0.000 S 
ATOM      6  N   UNL     1       0.217  10.959  20.156  0.00  0.00    +0.000 N 
ATOM      7  C   UNL     1       0.929   9.828  20.593  0.00  0.00    +0.000 C 
ATOM      8  O   UNL     1       1.131   9.556  21.780  0.00  0.00    +0.000 OA
ATOM      9  C   UNL     1       1.432   8.913  19.527  0.00  0.00    +0.000 C 
ATOM     10  C   UNL     1       2.025   7.765  19.927  0.00  0.00    +0.000 C 
ATOM     11  H   UNL     1       0.331  10.594  16.917  0.00  0.00    +0.000 HD
ENDROOT
BRANCH   6  12
ATOM     12  C   UNL     1      -0.231  11.853  21.188  0.00  0.00    +0.000 A 
ATOM     13  C   UNL     1      -1.316  11.494  22.002  0.00  0.00    +0.000 A 
ATOM     14  C   UNL     1      -1.766  12.356  23.006  0.00  0.00    +0.000 A 
ATOM     15  C   UNL     1      -1.145  13.590  23.186  0.00  0.00    +0.000 A 
ATOM     16 BR   UNL     1      -1.768  14.767  24.527  0.00  0.00    +0.000 Br
ATOM     17  C   UNL     1      -0.076  13.968  22.376  0.00  0.00    +0.000 A 
ATOM     18  C   UNL     1       0.381  13.100  21.379  0.00  0.00    +0.000 A 
ENDBRANCH   6  12
BRANCH  10  19
ATOM     19  C   UNL     1       2.603   6.740  19.053  0.00  0.00    +0.000 A 
ATOM     20  C   UNL     1       1.834   5.618  18.701  0.00  0.00    +0.000 A 
ATOM     21  C   UNL     1       2.383   4.594  17.923  0.00  0.00    +0.000 A 
ATOM     22  C   UNL     1       3.700   4.704  17.494  0.00  0.00    +0.000 A 
ATOM     23  C   UNL     1       4.454   5.830  17.820  0.00  0.00    +0.000 A 
ATOM     24  C   UNL     1       3.920   6.851  18.593  0.00  0.00    +0.000 A 
BRANCH  22  25
ATOM     25  O   UNL     1       4.302   3.725  16.753  0.00  0.00    +0.000 OA
ATOM     26  H   UNL     1       3.868   2.880  16.965  0.00  0.00    +0.000 HD
ENDBRANCH  22  25
BRANCH  23  27
ATOM     27  O   UNL     1       5.746   5.928  17.383  0.00  0.00    +0.000 OA
ATOM     28  H   UNL     1       5.844   5.191  16.748  0.00  0.00    +0.000 HD
ENDBRANCH  23  27
ENDBRANCH  10  19
TORSDOF 4
ENDMDL
MODEL 9
REMARK VINA RESULT:      -6.5      2.296      2.849
REMARK  Name = 
REMARK  4 active torsions:
REMARK  status: ('A' for Active; 'I' for Inactive)
REMARK    1  A    between atoms: N_6  and  C_7
REMARK    2  A    between atoms: C_17  and  C_18
REMARK    3  A    between atoms: C_21  and  O_22
REMARK    4  A    between atoms: C_23  and  O_24
REMARK                            x       y       z     vdW  Elec       q    Type
REMARK                         _______ _______ _______ _____ _____    ______ ____
ROOT
ATOM      1  O   UNL     1       2.953   7.914  17.502  0.00  0.00    +0.000 OA
ATOM      2  C   UNL     1       2.224   8.526  18.270  0.00  0.00    +0.000 C 
ATOM      3  N   UNL     1       1.733   9.747  17.914  0.00  0.00    +0.000 N 
ATOM      4  C   UNL     1       1.128  10.685  18.709  0.00  0.00    +0.000 C 
ATOM      5  S   UNL     1       0.860  12.174  17.973  0.00  0.00    +0.000 S 
ATOM      6  N   UNL     1       0.877  10.312  20.034  0.00  0.00    +0.000 N 
ATOM      7  C   UNL     1       1.184   9.044  20.559  0.00  0.00    +0.000 C 
ATOM      8  O   UNL     1       0.927   8.695  21.714  0.00  0.00    +0.000 OA
ATOM      9  C   UNL     1       1.838   8.084  19.623  0.00  0.00    +0.000 C 
ATOM     10  C   UNL     1       2.045   6.826  20.073  0.00  0.00    +0.000 C 
ATOM     11  H   UNL     1       1.995  10.046  16.982  0.00  0.00    +0.000 HD
ENDROOT
BRANCH   6  12
ATOM     12  C   UNL     1       0.281  11.242  20.954  0.00  0.00    +0.000 A 
ATOM     13  C   UNL     1      -0.842  10.862  21.703  0.00  0.00    +0.000 A 
ATOM     14  C   UNL     1      -1.435  11.758  22.598  0.00  0.00    +0.000 A 
ATOM     15  C   UNL     1      -0.918  13.045  22.730  0.00  0.00    +0.000 A 
ATOM     16 BR   UNL     1      -1.734  14.266  23.921  0.00  0.00    +0.000 Br
ATOM     17  C   UNL     1       0.188  13.443  21.982  0.00  0.00    +0.000 A 
ATOM     18  C   UNL     1       0.788  12.542  21.096  0.00  0.00    +0.000 A 
ENDBRANCH   6  12
BRANCH  10  19
ATOM     19  C   UNL     1       2.684   5.735  19.330  0.00  0.00    +0.000 A 
ATOM     20  C   UNL     1       1.921   4.971  18.432  0.00  0.00    +0.000 A 
ATOM     21  C   UNL     1       2.490   3.883  17.760  0.00  0.00    +0.000 A 
ATOM     22  C   UNL     1       3.824   3.573  17.987  0.00  0.00    +0.000 A 
ATOM     23  C   UNL     1       4.589   4.349  18.857  0.00  0.00    +0.000 A 
ATOM     24  C   UNL     1       4.034   5.428  19.531  0.00  0.00    +0.000 A 
BRANCH  22  25
ATOM     25  O   UNL     1       4.431   2.508  17.382  0.00  0.00    +0.000 OA
ATOM     26  H   UNL     1       5.314   2.402  17.778  0.00  0.00    +0.000 HD
ENDBRANCH  22  25
BRANCH  23  27
ATOM     27  O   UNL     1       5.904   4.036  19.064  0.00  0.00    +0.000 OA
ATOM     28  H   UNL     1       6.112   4.427  19.936  0.00  0.00    +0.000 HD
ENDBRANCH  23  27
ENDBRANCH  10  19
TORSDOF 4
ENDMDL
