MODEL 1
REMARK VINA RESULT:      -8.1      0.000      0.000
REMARK  Name = 
REMARK  9 active torsions:
REMARK  status: ('A' for Active; 'I' for Inactive)
REMARK    1  A    between atoms: C_1  and  C_2
REMARK    2  A    between atoms: C_4  and  C_5
REMARK    3  A    between atoms: C_5  and  C_6
REMARK    4  A    between atoms: C_5  and  N_7
REMARK    5  A    between atoms: C_8  and  C_10
REMARK    6  A    between atoms: C_13  and  C_14
REMARK    7  A    between atoms: C_14  and  C_15
REMARK    8  A    between atoms: C_18  and  C_19
REMARK    9  A    between atoms: C_25  and  C_26
REMARK                            x       y       z     vdW  Elec       q    Type
REMARK                         _______ _______ _______ _____ _____    ______ ____
ROOT
ATOM      1  C   UNL     1       2.561   7.710  18.416  0.00  0.00    +0.000 A 
ATOM      2  N   UNL     1       2.525   8.658  17.419  0.00  0.00    +0.000 N 
ATOM      3  C   UNL     1       1.781   9.739  17.812  0.00  0.00    +0.000 A 
ATOM      4  C   UNL     1       1.278   9.495  19.077  0.00  0.00    +0.000 A 
ATOM      5  C   UNL     1       1.795   8.213  19.470  0.00  0.00    +0.000 A 
ATOM      6  C   UNL     1       1.575   7.526  20.776  0.00  0.00    +0.000 C 
ATOM      7  H   UNL     1       2.957   8.555  16.511  0.00  0.00    +0.000 HD
ENDROOT
BRANCH   1   9
ATOM      8  N   UNL     1       4.599   6.480  18.202  0.00  0.00    +0.000 N 
ATOM      9  C   UNL     1       3.231   6.426  18.327  0.00  0.00    +0.000 C 
ATOM     10  O   UNL     1       2.637   5.350  18.367  0.00  0.00    +0.000 OA
ATOM     11  H   UNL     1       5.102   7.338  18.384  0.00  0.00    +0.000 HD
BRANCH   8  12
ATOM     12  C   UNL     1       5.401   5.268  18.120  0.00  0.00    +0.000 C 
ATOM     13  C   UNL     1       6.476   5.231  19.207  0.00  0.00    +0.000 C 
BRANCH  12  17
ATOM     14  C   UNL     1       6.603   4.174  13.267  0.00  0.00    +0.000 C 
ATOM     15  C   UNL     1       6.455   4.639  14.657  0.00  0.00    +0.000 A 
ATOM     16  C   UNL     1       5.584   4.347  15.676  0.00  0.00    +0.000 A 
ATOM     17  C   UNL     1       6.006   5.172  16.748  0.00  0.00    +0.000 A 
ATOM     18  N   UNL     1       7.075   5.907  16.399  0.00  0.00    +0.000 NA
ATOM     19  O   UNL     1       7.347   5.571  15.083  0.00  0.00    +0.000 OA
ENDBRANCH  12  17
ENDBRANCH   8  12
ENDBRANCH   1   9
BRANCH   4  20
ATOM     20  C   UNL     1       0.418  10.424  19.882  0.00  0.00    +0.000 C 
BRANCH  20  21
ATOM     21  C   UNL     1      -0.865  10.645  19.124  0.00  0.00    +0.000 A 
ATOM     22  C   UNL     1      -1.358   9.696  18.224  0.00  0.00    +0.000 A 
ATOM     23  C   UNL     1      -2.589   9.898  17.596  0.00  0.00    +0.000 A 
ATOM     24  C   UNL     1      -3.319  11.054  17.878  0.00  0.00    +0.000 A 
ATOM     25  N   UNL     1      -2.854  11.992  18.752  0.00  0.00    +0.000 NA
ATOM     26  C   UNL     1      -1.656  11.768  19.343  0.00  0.00    +0.000 A 
BRANCH  24  27
ATOM     27  C   UNL     1      -4.674  11.281  17.217  0.00  0.00    +0.000 C 
ATOM     28  F   UNL     1      -5.094  12.582  17.280  0.00  0.00    +0.000 F 
ATOM     29  F   UNL     1      -4.681  10.969  15.888  0.00  0.00    +0.000 F 
ATOM     30  F   UNL     1      -5.678  10.551  17.780  0.00  0.00    +0.000 F 
ENDBRANCH  24  27
ENDBRANCH  20  21
ENDBRANCH   4  20
TORSDOF 6
ENDMDL
MODEL 2
REMARK VINA RESULT:      -8.0      1.264      1.725
REMARK  Name = 
REMARK  9 active torsions:
REMARK  status: ('A' for Active; 'I' for Inactive)
REMARK    1  A    between atoms: C_1  and  C_2
REMARK    2  A    between atoms: C_4  and  C_5
REMARK    3  A    between atoms: C_5  and  C_6
REMARK    4  A    between atoms: C_5  and  N_7
REMARK    5  A    between atoms: C_8  and  C_10
REMARK    6  A    between atoms: C_13  and  C_14
REMARK    7  A    between atoms: C_14  and  C_15
REMARK    8  A    between atoms: C_18  and  C_19
REMARK    9  A    between atoms: C_25  and  C_26
REMARK                            x       y       z     vdW  Elec       q    Type
REMARK                         _______ _______ _______ _____ _____    ______ ____
ROOT
ATOM      1  C   UNL     1       1.918   7.528  19.744  0.00  0.00    +0.000 A 
ATOM      2  N   UNL     1       1.396   7.872  20.970  0.00  0.00    +0.000 N 
ATOM      3  C   UNL     1       0.956   9.169  20.957  0.00  0.00    +0.000 A 
ATOM      4  C   UNL     1       1.222   9.715  19.714  0.00  0.00    +0.000 A 
ATOM      5  C   UNL     1       1.814   8.662  18.935  0.00  0.00    +0.000 A 
ATOM      6  C   UNL     1       2.238   8.741  17.507  0.00  0.00    +0.000 C 
ATOM      7  H   UNL     1       1.374   7.264  21.778  0.00  0.00    +0.000 HD
ENDROOT
BRANCH   1   9
ATOM      8  N   UNL     1       3.775   6.289  18.889  0.00  0.00    +0.000 N 
ATOM      9  C   UNL     1       2.505   6.243  19.415  0.00  0.00    +0.000 C 
ATOM     10  O   UNL     1       1.930   5.171  19.596  0.00  0.00    +0.000 OA
ATOM     11  H   UNL     1       4.326   7.134  18.941  0.00  0.00    +0.000 HD
BRANCH   8  12
ATOM     12  C   UNL     1       4.492   5.073  18.531  0.00  0.00    +0.000 C 
ATOM     13  C   UNL     1       5.692   4.839  19.448  0.00  0.00    +0.000 C 
BRANCH  12  17
ATOM     14  C   UNL     1       6.025   4.208  13.725  0.00  0.00    +0.000 C 
ATOM     15  C   UNL     1       5.580   4.696  15.042  0.00  0.00    +0.000 A 
ATOM     16  C   UNL     1       5.311   4.095  16.245  0.00  0.00    +0.000 A 
ATOM     17  C   UNL     1       4.910   5.158  17.090  0.00  0.00    +0.000 A 
ATOM     18  N   UNL     1       4.949   6.333  16.439  0.00  0.00    +0.000 NA
ATOM     19  O   UNL     1       5.365   6.034  15.152  0.00  0.00    +0.000 OA
ENDBRANCH  12  17
ENDBRANCH   8  12
ENDBRANCH   1   9
BRANCH   4  20
ATOM     20  C   UNL     1       0.894  11.111  19.271  0.00  0.00    +0.000 C 
BRANCH  20  21
ATOM     21  C   UNL     1      -0.561  11.143  18.879  0.00  0.00    +0.000 A 
ATOM     22  C   UNL     1      -1.100  10.215  17.984  0.00  0.00    +0.000 A 
ATOM     23  C   UNL     1      -2.468  10.227  17.701  0.00  0.00    +0.000 A 
ATOM     24  C   UNL     1      -3.287  11.170  18.323  0.00  0.00    +0.000 A 
ATOM     25  N   UNL     1      -2.780  12.085  19.198  0.00  0.00    +0.000 NA
ATOM     26  C   UNL     1      -1.449  12.049  19.450  0.00  0.00    +0.000 A 
BRANCH  24  27
ATOM     27  C   UNL     1      -4.785  11.184  18.042  0.00  0.00    +0.000 C 
ATOM     28  F   UNL     1      -5.416  10.028  18.415  0.00  0.00    +0.000 F 
ATOM     29  F   UNL     1      -5.446  12.180  18.702  0.00  0.00    +0.000 F 
ATOM     30  F   UNL     1      -5.084  11.346  16.721  0.00  0.00    +0.000 F 
ENDBRANCH  24  27
ENDBRANCH  20  21
ENDBRANCH   4  20
TORSDOF 6
ENDMDL
MODEL 3
REMARK VINA RESULT:      -7.9      0.596      1.199
REMARK  Name = 
REMARK  9 active torsions:
REMARK  status: ('A' for Active; 'I' for Inactive)
REMARK    1  A    between atoms: C_1  and  C_2
REMARK    2  A    between atoms: C_4  and  C_5
REMARK    3  A    between atoms: C_5  and  C_6
REMARK    4  A    between atoms: C_5  and  N_7
REMARK    5  A    between atoms: C_8  and  C_10
REMARK    6  A    between atoms: C_13  and  C_14
REMARK    7  A    between atoms: C_14  and  C_15
REMARK    8  A    between atoms: C_18  and  C_19
REMARK    9  A    between atoms: C_25  and  C_26
REMARK                            x       y       z     vdW  Elec       q    Type
REMARK                         _______ _______ _______ _____ _____    ______ ____
ROOT
ATOM      1  C   UNL     1       2.369   7.764  18.444  0.00  0.00    +0.000 A 
ATOM      2  N   UNL     1       2.311   8.724  17.459  0.00  0.00    +0.000 N 
ATOM      3  C   UNL     1       1.615   9.819  17.897  0.00  0.00    +0.000 A 
ATOM      4  C   UNL     1       1.166   9.574  19.183  0.00  0.00    +0.000 A 
ATOM      5  C   UNL     1       1.667   8.275  19.538  0.00  0.00    +0.000 A 
ATOM      6  C   UNL     1       1.491   7.580  20.847  0.00  0.00    +0.000 C 
ATOM      7  H   UNL     1       2.697   8.619  16.530  0.00  0.00    +0.000 HD
ENDROOT
BRANCH   1   9
ATOM      8  N   UNL     1       4.372   6.479  18.222  0.00  0.00    +0.000 N 
ATOM      9  C   UNL     1       2.999   6.465  18.310  0.00  0.00    +0.000 C 
ATOM     10  O   UNL     1       2.371   5.408  18.285  0.00  0.00    +0.000 OA
ATOM     11  H   UNL     1       4.896   7.310  18.457  0.00  0.00    +0.000 HD
BRANCH   8  12
ATOM     12  C   UNL     1       5.136   5.245  18.102  0.00  0.00    +0.000 C 
ATOM     13  C   UNL     1       6.292   5.203  19.102  0.00  0.00    +0.000 C 
BRANCH  12  17
ATOM     14  C   UNL     1       6.184   3.800  13.306  0.00  0.00    +0.000 C 
ATOM     15  C   UNL     1       6.030   4.410  14.638  0.00  0.00    +0.000 A 
ATOM     16  C   UNL     1       5.361   4.055  15.782  0.00  0.00    +0.000 A 
ATOM     17  C   UNL     1       5.628   5.109  16.689  0.00  0.00    +0.000 A 
ATOM     18  N   UNL     1       6.423   6.037  16.130  0.00  0.00    +0.000 NA
ATOM     19  O   UNL     1       6.667   5.593  14.841  0.00  0.00    +0.000 OA
ENDBRANCH  12  17
ENDBRANCH   8  12
ENDBRANCH   1   9
BRANCH   4  20
ATOM     20  C   UNL     1       0.371  10.517  20.037  0.00  0.00    +0.000 C 
BRANCH  20  21
ATOM     21  C   UNL     1      -0.972  10.717  19.383  0.00  0.00    +0.000 A 
ATOM     22  C   UNL     1      -1.698  11.900  19.546  0.00  0.00    +0.000 A 
ATOM     23  C   UNL     1      -2.903  12.082  18.863  0.00  0.00    +0.000 A 
ATOM     24  C   UNL     1      -3.369  11.075  18.017  0.00  0.00    +0.000 A 
ATOM     25  N   UNL     1      -2.675   9.913  17.846  0.00  0.00    +0.000 NA
ATOM     26  C   UNL     1      -1.512   9.765  18.523  0.00  0.00    +0.000 A 
BRANCH  24  27
ATOM     27  C   UNL     1      -4.672  11.266  17.249  0.00  0.00    +0.000 C 
ATOM     28  F   UNL     1      -4.597  10.850  15.947  0.00  0.00    +0.000 F 
ATOM     29  F   UNL     1      -5.718  10.571  17.785  0.00  0.00    +0.000 F 
ATOM     30  F   UNL     1      -5.076  12.567  17.187  0.00  0.00    +0.000 F 
ENDBRANCH  24  27
ENDBRANCH  20  21
ENDBRANCH   4  20
TORSDOF 6
ENDMDL
MODEL 4
REMARK VINA RESULT:      -7.8      2.701      3.309
REMARK  Name = 
REMARK  9 active torsions:
REMARK  status: ('A' for Active; 'I' for Inactive)
REMARK    1  A    between atoms: C_1  and  C_2
REMARK    2  A    between atoms: C_4  and  C_5
REMARK    3  A    between atoms: C_5  and  C_6
REMARK    4  A    between atoms: C_5  and  N_7
REMARK    5  A    between atoms: C_8  and  C_10
REMARK    6  A    between atoms: C_13  and  C_14
REMARK    7  A    between atoms: C_14  and  C_15
REMARK    8  A    between atoms: C_18  and  C_19
REMARK    9  A    between atoms: C_25  and  C_26
REMARK                            x       y       z     vdW  Elec       q    Type
REMARK                         _______ _______ _______ _____ _____    ______ ____
ROOT
ATOM      1  C   UNL     1       3.157   7.042  18.310  0.00  0.00    +0.000 A 
ATOM      2  N   UNL     1       3.100   8.164  17.515  0.00  0.00    +0.000 N 
ATOM      3  C   UNL     1       2.202   9.065  18.022  0.00  0.00    +0.000 A 
ATOM      4  C   UNL     1       1.620   8.523  19.153  0.00  0.00    +0.000 A 
ATOM      5  C   UNL     1       2.246   7.245  19.350  0.00  0.00    +0.000 A 
ATOM      6  C   UNL     1       1.992   6.290  20.468  0.00  0.00    +0.000 C 
ATOM      7  H   UNL     1       3.621   8.288  16.657  0.00  0.00    +0.000 HD
ENDROOT
BRANCH   1   9
ATOM      8  N   UNL     1       5.334   6.099  18.017  0.00  0.00    +0.000 N 
ATOM      9  C   UNL     1       3.978   5.874  18.052  0.00  0.00    +0.000 C 
ATOM     10  O   UNL     1       3.516   4.747  17.882  0.00  0.00    +0.000 OA
ATOM     11  H   UNL     1       5.723   6.964  18.366  0.00  0.00    +0.000 HD
BRANCH   8  12
ATOM     12  C   UNL     1       6.278   5.015  17.786  0.00  0.00    +0.000 C 
ATOM     13  C   UNL     1       7.580   5.230  18.557  0.00  0.00    +0.000 C 
BRANCH  12  17
ATOM     14  C   UNL     1       6.343   3.735  12.831  0.00  0.00    +0.000 C 
ATOM     15  C   UNL     1       6.497   4.271  14.195  0.00  0.00    +0.000 A 
ATOM     16  C   UNL     1       5.944   3.964  15.412  0.00  0.00    +0.000 A 
ATOM     17  C   UNL     1       6.528   4.890  16.310  0.00  0.00    +0.000 A 
ATOM     18  N   UNL     1       7.391   5.699  15.674  0.00  0.00    +0.000 NA
ATOM     19  O   UNL     1       7.362   5.308  14.345  0.00  0.00    +0.000 OA
ENDBRANCH  12  17
ENDBRANCH   8  12
ENDBRANCH   1   9
BRANCH   4  20
ATOM     20  C   UNL     1       0.589   9.183  20.021  0.00  0.00    +0.000 C 
BRANCH  20  21
ATOM     21  C   UNL     1       0.595  10.657  19.712  0.00  0.00    +0.000 A 
ATOM     22  C   UNL     1      -0.198  11.197  18.695  0.00  0.00    +0.000 A 
ATOM     23  C   UNL     1      -0.226  12.578  18.486  0.00  0.00    +0.000 A 
ATOM     24  C   UNL     1       0.543  13.409  19.302  0.00  0.00    +0.000 A 
ATOM     25  N   UNL     1       1.324  12.902  20.298  0.00  0.00    +0.000 NA
ATOM     26  C   UNL     1       1.332  11.558  20.474  0.00  0.00    +0.000 A 
BRANCH  24  27
ATOM     27  C   UNL     1       0.509  14.920  19.101  0.00  0.00    +0.000 C 
ATOM     28  F   UNL     1      -0.523  15.335  18.303  0.00  0.00    +0.000 F 
ATOM     29  F   UNL     1       0.359  15.613  20.267  0.00  0.00    +0.000 F 
ATOM     30  F   UNL     1       1.637  15.411  18.513  0.00  0.00    +0.000 F 
ENDBRANCH  24  27
ENDBRANCH  20  21
ENDBRANCH   4  20
TORSDOF 6
ENDMDL
MODEL 5
REMARK VINA RESULT:      -7.7      2.442      3.046
REMARK  Name = 
REMARK  9 active torsions:
REMARK  status: ('A' for Active; 'I' for Inactive)
REMARK    1  A    between atoms: C_1  and  C_2
REMARK    2  A    between atoms: C_4  and  C_5
REMARK    3  A    between atoms: C_5  and  C_6
REMARK    4  A    between atoms: C_5  and  N_7
REMARK    5  A    between atoms: C_8  and  C_10
REMARK    6  A    between atoms: C_13  and  C_14
REMARK    7  A    between atoms: C_14  and  C_15
REMARK    8  A    between atoms: C_18  and  C_19
REMARK    9  A    between atoms: C_25  and  C_26
REMARK                            x       y       z     vdW  Elec       q    Type
REMARK                         _______ _______ _______ _____ _____    ______ ____
ROOT
ATOM      1  C   UNL     1       3.301   6.390  18.646  0.00  0.00    +0.000 A 
ATOM      2  N   UNL     1       3.130   7.570  17.959  0.00  0.00    +0.000 N 
ATOM      3  C   UNL     1       2.216   8.367  18.595  0.00  0.00    +0.000 A 
ATOM      4  C   UNL     1       1.737   7.694  19.705  0.00  0.00    +0.000 A 
ATOM      5  C   UNL     1       2.446   6.445  19.749  0.00  0.00    +0.000 A 
ATOM      6  C   UNL     1       2.317   5.383  20.789  0.00  0.00    +0.000 C 
ATOM      7  H   UNL     1       3.589   7.801  17.088  0.00  0.00    +0.000 HD
ENDROOT
BRANCH   1   9
ATOM      8  N   UNL     1       5.484   5.643  18.022  0.00  0.00    +0.000 N 
ATOM      9  C   UNL     1       4.170   5.302  18.237  0.00  0.00    +0.000 C 
ATOM     10  O   UNL     1       3.781   4.144  18.096  0.00  0.00    +0.000 OA
ATOM     11  H   UNL     1       5.847   6.530  18.342  0.00  0.00    +0.000 HD
BRANCH   8  12
ATOM     12  C   UNL     1       6.471   4.648  17.626  0.00  0.00    +0.000 C 
ATOM     13  C   UNL     1       7.830   4.917  18.274  0.00  0.00    +0.000 C 
BRANCH  12  17
ATOM     14  C   UNL     1       6.105   3.661  12.618  0.00  0.00    +0.000 C 
ATOM     15  C   UNL     1       6.362   4.129  13.991  0.00  0.00    +0.000 A 
ATOM     16  C   UNL     1       5.967   3.709  15.236  0.00  0.00    +0.000 A 
ATOM     17  C   UNL     1       6.572   4.628  16.128  0.00  0.00    +0.000 A 
ATOM     18  N   UNL     1       7.299   5.540  15.460  0.00  0.00    +0.000 NA
ATOM     19  O   UNL     1       7.158   5.223  14.120  0.00  0.00    +0.000 OA
ENDBRANCH  12  17
ENDBRANCH   8  12
ENDBRANCH   1   9
BRANCH   4  20
ATOM     20  C   UNL     1       0.726   8.211  20.686  0.00  0.00    +0.000 C 
BRANCH  20  21
ATOM     21  C   UNL     1       0.456   9.656  20.357  0.00  0.00    +0.000 A 
ATOM     22  C   UNL     1       1.087  10.695  21.047  0.00  0.00    +0.000 A 
ATOM     23  C   UNL     1       0.872  12.022  20.665  0.00  0.00    +0.000 A 
ATOM     24  C   UNL     1       0.026  12.296  19.590  0.00  0.00    +0.000 A 
ATOM     25  N   UNL     1      -0.600  11.296  18.905  0.00  0.00    +0.000 NA
ATOM     26  C   UNL     1      -0.373  10.020  19.301  0.00  0.00    +0.000 A 
BRANCH  24  27
ATOM     27  C   UNL     1      -0.204  13.737  19.147  0.00  0.00    +0.000 C 
ATOM     28  F   UNL     1      -1.171  14.377  19.874  0.00  0.00    +0.000 F 
ATOM     29  F   UNL     1       0.908  14.519  19.267  0.00  0.00    +0.000 F 
ATOM     30  F   UNL     1      -0.602  13.845  17.847  0.00  0.00    +0.000 F 
ENDBRANCH  24  27
ENDBRANCH  20  21
ENDBRANCH   4  20
TORSDOF 6
ENDMDL
MODEL 6
REMARK VINA RESULT:      -7.7      2.899      3.503
REMARK  Name = 
REMARK  9 active torsions:
REMARK  status: ('A' for Active; 'I' for Inactive)
REMARK    1  A    between atoms: C_1  and  C_2
REMARK    2  A    between atoms: C_4  and  C_5
REMARK    3  A    between atoms: C_5  and  C_6
REMARK    4  A    between atoms: C_5  and  N_7
REMARK    5  A    between atoms: C_8  and  C_10
REMARK    6  A    between atoms: C_13  and  C_14
REMARK    7  A    between atoms: C_14  and  C_15
REMARK    8  A    between atoms: C_18  and  C_19
REMARK    9  A    between atoms: C_25  and  C_26
REMARK                            x       y       z     vdW  Elec       q    Type
REMARK                         _______ _______ _______ _____ _____    ______ ____
ROOT
ATOM      1  C   UNL     1       2.795   7.455  18.509  0.00  0.00    +0.000 A 
ATOM      2  N   UNL     1       2.705   8.394  17.507  0.00  0.00    +0.000 N 
ATOM      3  C   UNL     1       1.797   9.363  17.838  0.00  0.00    +0.000 A 
ATOM      4  C   UNL     1       1.239   9.048  19.064  0.00  0.00    +0.000 A 
ATOM      5  C   UNL     1       1.892   7.845  19.501  0.00  0.00    +0.000 A 
ATOM      6  C   UNL     1       1.670   7.128  20.790  0.00  0.00    +0.000 C 
ATOM      7  H   UNL     1       3.214   8.354  16.634  0.00  0.00    +0.000 HD
ENDROOT
BRANCH   1   9
ATOM      8  N   UNL     1       4.938   6.484  18.090  0.00  0.00    +0.000 N 
ATOM      9  C   UNL     1       3.635   6.272  18.475  0.00  0.00    +0.000 C 
ATOM     10  O   UNL     1       3.234   5.149  18.775  0.00  0.00    +0.000 OA
ATOM     11  H   UNL     1       5.322   7.418  18.054  0.00  0.00    +0.000 HD
BRANCH   8  12
ATOM     12  C   UNL     1       5.898   5.390  18.029  0.00  0.00    +0.000 C 
ATOM     13  C   UNL     1       7.124   5.671  18.897  0.00  0.00    +0.000 C 
BRANCH  12  17
ATOM     14  C   UNL     1       6.305   3.851  13.165  0.00  0.00    +0.000 C 
ATOM     15  C   UNL     1       6.387   4.434  14.516  0.00  0.00    +0.000 A 
ATOM     16  C   UNL     1       5.673   4.267  15.675  0.00  0.00    +0.000 A 
ATOM     17  C   UNL     1       6.282   5.155  16.596  0.00  0.00    +0.000 A 
ATOM     18  N   UNL     1       7.310   5.808  16.028  0.00  0.00    +0.000 NA
ATOM     19  O   UNL     1       7.366   5.354  14.721  0.00  0.00    +0.000 OA
ENDBRANCH  12  17
ENDBRANCH   8  12
ENDBRANCH   1   9
BRANCH   4  20
ATOM     20  C   UNL     1       0.205   9.850  19.800  0.00  0.00    +0.000 C 
BRANCH  20  21
ATOM     21  C   UNL     1       0.428  11.304  19.475  0.00  0.00    +0.000 A 
ATOM     22  C   UNL     1      -0.441  12.011  18.640  0.00  0.00    +0.000 A 
ATOM     23  C   UNL     1      -0.248  13.377  18.422  0.00  0.00    +0.000 A 
ATOM     24  C   UNL     1       0.818  14.026  19.048  0.00  0.00    +0.000 A 
ATOM     25  N   UNL     1       1.677  13.353  19.866  0.00  0.00    +0.000 NA
ATOM     26  C   UNL     1       1.465  12.029  20.055  0.00  0.00    +0.000 A 
BRANCH  24  27
ATOM     27  C   UNL     1       1.031  15.521  18.838  0.00  0.00    +0.000 C 
ATOM     28  F   UNL     1       1.245  16.205  20.003  0.00  0.00    +0.000 F 
ATOM     29  F   UNL     1       2.114  15.803  18.056  0.00  0.00    +0.000 F 
ATOM     30  F   UNL     1      -0.031  16.139  18.247  0.00  0.00    +0.000 F 
ENDBRANCH  24  27
ENDBRANCH  20  21
ENDBRANCH   4  20
TORSDOF 6
ENDMDL
MODEL 7
REMARK VINA RESULT:      -7.7      2.770      3.495
REMARK  Name = 
REMARK  9 active torsions:
REMARK  status: ('A' for Active; 'I' for Inactive)
REMARK    1  A    between atoms: C_1  and  C_2
REMARK    2  A    between atoms: C_4  and  C_5
REMARK    3  A    between atoms: C_5  and  C_6
REMARK    4  A    between atoms: C_5  and  N_7
REMARK    5  A    between atoms: C_8  and  C_10
REMARK    6  A    between atoms: C_13  and  C_14
REMARK    7  A    between atoms: C_14  and  C_15
REMARK    8  A    between atoms: C_18  and  C_19
REMARK    9  A    between atoms: C_25  and  C_26
REMARK                            x       y       z     vdW  Elec       q    Type
REMARK                         _______ _______ _______ _____ _____    ______ ____
ROOT
ATOM      1  C   UNL     1       3.085   7.114  18.369  0.00  0.00    +0.000 A 
ATOM      2  N   UNL     1       2.991   8.192  17.517  0.00  0.00    +0.000 N 
ATOM      3  C   UNL     1       2.067   9.090  17.982  0.00  0.00    +0.000 A 
ATOM      4  C   UNL     1       1.504   8.587  19.141  0.00  0.00    +0.000 A 
ATOM      5  C   UNL     1       2.170   7.340  19.399  0.00  0.00    +0.000 A 
ATOM      6  C   UNL     1       1.948   6.436  20.565  0.00  0.00    +0.000 C 
ATOM      7  H   UNL     1       3.506   8.290  16.653  0.00  0.00    +0.000 HD
ENDROOT
BRANCH   1   9
ATOM      8  N   UNL     1       5.286   6.232  18.065  0.00  0.00    +0.000 N 
ATOM      9  C   UNL     1       3.942   5.961  18.166  0.00  0.00    +0.000 C 
ATOM     10  O   UNL     1       3.518   4.808  18.097  0.00  0.00    +0.000 OA
ATOM     11  H   UNL     1       5.653   7.135  18.335  0.00  0.00    +0.000 HD
BRANCH   8  12
ATOM     12  C   UNL     1       6.263   5.169  17.879  0.00  0.00    +0.000 C 
ATOM     13  C   UNL     1       7.560   5.460  18.634  0.00  0.00    +0.000 C 
BRANCH  12  17
ATOM     14  C   UNL     1       6.276   3.739  12.965  0.00  0.00    +0.000 C 
ATOM     15  C   UNL     1       6.455   4.305  14.313  0.00  0.00    +0.000 A 
ATOM     16  C   UNL     1       5.879   4.068  15.536  0.00  0.00    +0.000 A 
ATOM     17  C   UNL     1       6.513   4.985  16.409  0.00  0.00    +0.000 A 
ATOM     18  N   UNL     1       7.426   5.722  15.755  0.00  0.00    +0.000 NA
ATOM     19  O   UNL     1       7.380   5.293  14.439  0.00  0.00    +0.000 OA
ENDBRANCH  12  17
ENDBRANCH   8  12
ENDBRANCH   1   9
BRANCH   4  20
ATOM     20  C   UNL     1       0.454   9.257  19.979  0.00  0.00    +0.000 C 
BRANCH  20  21
ATOM     21  C   UNL     1       0.587  10.746  19.787  0.00  0.00    +0.000 A 
ATOM     22  C   UNL     1       1.448  11.513  20.576  0.00  0.00    +0.000 A 
ATOM     23  C   UNL     1       1.605  12.878  20.321  0.00  0.00    +0.000 A 
ATOM     24  C   UNL     1       0.895  13.463  19.271  0.00  0.00    +0.000 A 
ATOM     25  N   UNL     1       0.049  12.731  18.490  0.00  0.00    +0.000 NA
ATOM     26  C   UNL     1      -0.082  11.411  18.765  0.00  0.00    +0.000 A 
BRANCH  24  27
ATOM     27  C   UNL     1       1.069  14.946  18.966  0.00  0.00    +0.000 C 
ATOM     28  F   UNL     1       2.101  15.203  18.104  0.00  0.00    +0.000 F 
ATOM     29  F   UNL     1      -0.030  15.506  18.381  0.00  0.00    +0.000 F 
ATOM     30  F   UNL     1       1.330  15.698  20.073  0.00  0.00    +0.000 F 
ENDBRANCH  24  27
ENDBRANCH  20  21
ENDBRANCH   4  20
TORSDOF 6
ENDMDL
MODEL 8
REMARK VINA RESULT:      -7.7      1.544      2.072
REMARK  Name = 
REMARK  9 active torsions:
REMARK  status: ('A' for Active; 'I' for Inactive)
REMARK    1  A    between atoms: C_1  and  C_2
REMARK    2  A    between atoms: C_4  and  C_5
REMARK    3  A    between atoms: C_5  and  C_6
REMARK    4  A    between atoms: C_5  and  N_7
REMARK    5  A    between atoms: C_8  and  C_10
REMARK    6  A    between atoms: C_13  and  C_14
REMARK    7  A    between atoms: C_14  and  C_15
REMARK    8  A    between atoms: C_18  and  C_19
REMARK    9  A    between atoms: C_25  and  C_26
REMARK                            x       y       z     vdW  Elec       q    Type
REMARK                         _______ _______ _______ _____ _____    ______ ____
ROOT
ATOM      1  C   UNL     1       2.022   6.789  19.537  0.00  0.00    +0.000 A 
ATOM      2  N   UNL     1       1.561   6.949  20.824  0.00  0.00    +0.000 N 
ATOM      3  C   UNL     1       1.253   8.262  21.063  0.00  0.00    +0.000 A 
ATOM      4  C   UNL     1       1.549   9.000  19.931  0.00  0.00    +0.000 A 
ATOM      5  C   UNL     1       2.016   8.057  18.952  0.00  0.00    +0.000 A 
ATOM      6  C   UNL     1       2.418   8.357  17.547  0.00  0.00    +0.000 C 
ATOM      7  H   UNL     1       1.493   6.207  21.507  0.00  0.00    +0.000 HD
ENDROOT
BRANCH   1   9
ATOM      8  N   UNL     1       3.757   5.167  19.270  0.00  0.00    +0.000 N 
ATOM      9  C   UNL     1       2.470   5.536  18.958  0.00  0.00    +0.000 C 
ATOM     10  O   UNL     1       1.760   4.830  18.243  0.00  0.00    +0.000 OA
ATOM     11  H   UNL     1       4.259   5.624  20.018  0.00  0.00    +0.000 HD
BRANCH   8  12
ATOM     12  C   UNL     1       4.331   3.924  18.773  0.00  0.00    +0.000 C 
ATOM     13  C   UNL     1       4.833   3.042  19.916  0.00  0.00    +0.000 C 
BRANCH  12  17
ATOM     14  C   UNL     1       7.236   4.930  14.681  0.00  0.00    +0.000 C 
ATOM     15  C   UNL     1       6.610   4.665  15.989  0.00  0.00    +0.000 A 
ATOM     16  C   UNL     1       5.339   4.348  16.395  0.00  0.00    +0.000 A 
ATOM     17  C   UNL     1       5.433   4.246  17.805  0.00  0.00    +0.000 A 
ATOM     18  N   UNL     1       6.689   4.476  18.222  0.00  0.00    +0.000 NA
ATOM     19  O   UNL     1       7.421   4.743  17.077  0.00  0.00    +0.000 OA
ENDBRANCH  12  17
ENDBRANCH   8  12
ENDBRANCH   1   9
BRANCH   4  20
ATOM     20  C   UNL     1       1.354  10.478  19.761  0.00  0.00    +0.000 C 
BRANCH  20  21
ATOM     21  C   UNL     1      -0.083  10.716  19.377  0.00  0.00    +0.000 A 
ATOM     22  C   UNL     1      -0.880  11.642  20.056  0.00  0.00    +0.000 A 
ATOM     23  C   UNL     1      -2.185  11.894  19.625  0.00  0.00    +0.000 A 
ATOM     24  C   UNL     1      -2.680  11.214  18.511  0.00  0.00    +0.000 A 
ATOM     25  N   UNL     1      -1.919  10.306  17.837  0.00  0.00    +0.000 NA
ATOM     26  C   UNL     1      -0.659  10.082  18.281  0.00  0.00    +0.000 A 
BRANCH  24  27
ATOM     27  C   UNL     1      -4.095  11.491  18.015  0.00  0.00    +0.000 C 
ATOM     28  F   UNL     1      -4.135  11.950  16.726  0.00  0.00    +0.000 F 
ATOM     29  F   UNL     1      -4.893  10.383  18.023  0.00  0.00    +0.000 F 
ATOM     30  F   UNL     1      -4.750  12.432  18.752  0.00  0.00    +0.000 F 
ENDBRANCH  24  27
ENDBRANCH  20  21
ENDBRANCH   4  20
TORSDOF 6
ENDMDL
MODEL 9
REMARK VINA RESULT:      -7.6      2.954      4.954
REMARK  Name = 
REMARK  9 active torsions:
REMARK  status: ('A' for Active; 'I' for Inactive)
REMARK    1  A    between atoms: C_1  and  C_2
REMARK    2  A    between atoms: C_4  and  C_5
REMARK    3  A    between atoms: C_5  and  C_6
REMARK    4  A    between atoms: C_5  and  N_7
REMARK    5  A    between atoms: C_8  and  C_10
REMARK    6  A    between atoms: C_13  and  C_14
REMARK    7  A    between atoms: C_14  and  C_15
REMARK    8  A    between atoms: C_18  and  C_19
REMARK    9  A    between atoms: C_25  and  C_26
REMARK                            x       y       z     vdW  Elec       q    Type
REMARK                         _______ _______ _______ _____ _____    ______ ____
ROOT
ATOM      1  C   UNL     1       5.762   5.557  16.716  0.00  0.00    +0.000 A 
ATOM      2  N   UNL     1       5.869   6.880  17.083  0.00  0.00    +0.000 N 
ATOM      3  C   UNL     1       4.877   7.213  17.966  0.00  0.00    +0.000 A 
ATOM      4  C   UNL     1       4.069   6.108  18.165  0.00  0.00    +0.000 A 
ATOM      5  C   UNL     1       4.647   5.048  17.387  0.00  0.00    +0.000 A 
ATOM      6  C   UNL     1       4.166   3.638  17.305  0.00  0.00    +0.000 C 
ATOM      7  H   UNL     1       6.561   7.522  16.723  0.00  0.00    +0.000 HD
ENDROOT
BRANCH   1   9
ATOM      8  N   UNL     1       6.145   4.789  14.485  0.00  0.00    +0.000 N 
ATOM      9  C   UNL     1       6.627   4.878  15.770  0.00  0.00    +0.000 C 
ATOM     10  O   UNL     1       7.726   4.416  16.071  0.00  0.00    +0.000 OA
ATOM     11  H   UNL     1       5.357   5.347  14.189  0.00  0.00    +0.000 HD
BRANCH   8  12
ATOM     12  C   UNL     1       6.916   4.150  13.429  0.00  0.00    +0.000 C 
ATOM     13  C   UNL     1       7.830   5.149  12.719  0.00  0.00    +0.000 C 
BRANCH  12  17
ATOM     14  C   UNL     1       3.053   2.849  10.333  0.00  0.00    +0.000 C 
ATOM     15  C   UNL     1       4.264   3.006  11.157  0.00  0.00    +0.000 A 
ATOM     16  C   UNL     1       4.712   3.967  12.029  0.00  0.00    +0.000 A 
ATOM     17  C   UNL     1       5.972   3.490  12.465  0.00  0.00    +0.000 A 
ATOM     18  N   UNL     1       6.261   2.305  11.899  0.00  0.00    +0.000 NA
ATOM     19  O   UNL     1       5.186   2.011  11.077  0.00  0.00    +0.000 OA
ENDBRANCH  12  17
ENDBRANCH   8  12
ENDBRANCH   1   9
BRANCH   4  20
ATOM     20  C   UNL     1       2.871   6.038  19.065  0.00  0.00    +0.000 C 
BRANCH  20  21
ATOM     21  C   UNL     1       2.233   7.402  19.097  0.00  0.00    +0.000 A 
ATOM     22  C   UNL     1       2.003   8.132  17.928  0.00  0.00    +0.000 A 
ATOM     23  C   UNL     1       1.339   9.360  17.987  0.00  0.00    +0.000 A 
ATOM     24  C   UNL     1       0.908   9.846  19.222  0.00  0.00    +0.000 A 
ATOM     25  N   UNL     1       1.124   9.149  20.375  0.00  0.00    +0.000 NA
ATOM     26  C   UNL     1       1.772   7.963  20.285  0.00  0.00    +0.000 A 
BRANCH  24  27
ATOM     27  C   UNL     1       0.165  11.175  19.302  0.00  0.00    +0.000 C 
ATOM     28  F   UNL     1       0.275  11.783  20.524  0.00  0.00    +0.000 F 
ATOM     29  F   UNL     1       0.617  12.097  18.404  0.00  0.00    +0.000 F 
ATOM     30  F   UNL     1      -1.175  11.057  19.079  0.00  0.00    +0.000 F 
ENDBRANCH  24  27
ENDBRANCH  20  21
ENDBRANCH   4  20
TORSDOF 6
ENDMDL
