MODEL 1
REMARK VINA RESULT:      -6.0      0.000      0.000
REMARK  Name = 
REMARK  4 active torsions:
REMARK  status: ('A' for Active; 'I' for Inactive)
REMARK    1  A    between atoms: C_1  and  O_2
REMARK    2  A    between atoms: O_2  and  C_3
REMARK    3  A    between atoms: N_16  and  S_17
REMARK    4  A    between atoms: S_17  and  C_18
REMARK                            x       y       z     vdW  Elec       q    Type
REMARK                         _______ _______ _______ _____ _____    ______ ____
ROOT
ATOM      1  C   UNL     1      10.607  12.326  18.991  0.00  0.00    +0.000 A 
ATOM      2  C   UNL     1      10.850  12.077  17.621  0.00  0.00    +0.000 A 
ATOM      3  C   UNL     1      11.291  13.081  16.754  0.00  0.00    +0.000 A 
ATOM      4  C   UNL     1      11.606  14.326  17.262  0.00  0.00    +0.000 A 
ATOM      5  C   UNL     1      11.409  14.589  18.627  0.00  0.00    +0.000 A 
ATOM      6  C   UNL     1      10.762  13.636  19.490  0.00  0.00    +0.000 A 
ATOM      7  C   UNL     1      10.083  14.119  20.831  0.00  0.00    +0.000 C 
ATOM      8  C   UNL     1       8.447  13.884  21.192  0.00  0.00    +0.000 C 
ATOM      9  C   UNL     1       7.317  15.072  20.675  0.00  0.00    +0.000 C 
ATOM     10  C   UNL     1       8.168  15.526  19.552  0.00  0.00    +0.000 C 
ATOM     11  C   UNL     1       8.197  14.282  18.610  0.00  0.00    +0.000 C 
ATOM     12  C   UNL     1       7.152  14.421  17.571  0.00  0.00    +0.000 C 
ATOM     13  C   UNL     1       5.861  14.763  18.246  0.00  0.00    +0.000 C 
ATOM     14  N   UNL     1       5.899  15.131  19.735  0.00  0.00    +0.000 NA
ATOM     15  C   UNL     1       9.243  16.306  20.331  0.00  0.00    +0.000 C 
ATOM     16  N   UNL     1      10.280  15.568  21.033  0.00  0.00    +0.000 NA
ATOM     17  C   UNL     1      11.607  16.046  20.615  0.00  0.00    +0.000 C 
ATOM     18  C   UNL     1      11.773  15.969  19.099  0.00  0.00    +0.000 C 
ENDROOT
BRANCH  14  19
ATOM     19  S   UNL     1       5.214  16.767  19.918  0.00  0.00    +0.000 S 
ATOM     20  C   UNL     1       3.501  16.546  19.502  0.00  0.00    +0.000 C 
ATOM     21  O   UNL     1       5.320  17.123  21.303  0.00  0.00    +0.000 OA
ATOM     22  O   UNL     1       5.806  17.617  18.896  0.00  0.00    +0.000 OA
ENDBRANCH  14  19
BRANCH   1  24
ATOM     23  C   UNL     1       9.293  10.348  19.258  0.00  0.00    +0.000 C 
ATOM     24  O   UNL     1      10.060  11.401  19.835  0.00  0.00    +0.000 OA
ENDBRANCH   1  24
TORSDOF 2
ENDMDL
MODEL 2
REMARK VINA RESULT:      -5.6      5.982      9.676
REMARK  Name = 
REMARK  4 active torsions:
REMARK  status: ('A' for Active; 'I' for Inactive)
REMARK    1  A    between atoms: C_1  and  O_2
REMARK    2  A    between atoms: O_2  and  C_3
REMARK    3  A    between atoms: N_16  and  S_17
REMARK    4  A    between atoms: S_17  and  C_18
REMARK                            x       y       z     vdW  Elec       q    Type
REMARK                         _______ _______ _______ _____ _____    ______ ____
ROOT
ATOM      1  C   UNL     1       0.133  10.107  21.194  0.00  0.00    +0.000 A 
ATOM      2  C   UNL     1      -0.148  10.309  22.564  0.00  0.00    +0.000 A 
ATOM      3  C   UNL     1      -1.082  11.256  22.996  0.00  0.00    +0.000 A 
ATOM      4  C   UNL     1      -1.834  11.941  22.062  0.00  0.00    +0.000 A 
ATOM      5  C   UNL     1      -1.601  11.732  20.693  0.00  0.00    +0.000 A 
ATOM      6  C   UNL     1      -0.506  10.919  20.234  0.00  0.00    +0.000 A 
ATOM      7  C   UNL     1       0.062  11.112  18.773  0.00  0.00    +0.000 C 
ATOM      8  C   UNL     1       1.671  11.510  18.436  0.00  0.00    +0.000 C 
ATOM      9  C   UNL     1       2.107  13.172  18.381  0.00  0.00    +0.000 C 
ATOM     10  C   UNL     1       1.011  13.585  19.287  0.00  0.00    +0.000 C 
ATOM     11  C   UNL     1       1.402  12.911  20.639  0.00  0.00    +0.000 C 
ATOM     12  C   UNL     1       2.148  13.876  21.478  0.00  0.00    +0.000 C 
ATOM     13  C   UNL     1       3.240  14.474  20.647  0.00  0.00    +0.000 C 
ATOM     14  N   UNL     1       3.233  14.200  19.138  0.00  0.00    +0.000 NA
ATOM     15  C   UNL     1      -0.188  13.452  18.330  0.00  0.00    +0.000 C 
ATOM     16  N   UNL     1      -0.711  12.129  18.034  0.00  0.00    +0.000 NA
ATOM     17  C   UNL     1      -2.156  12.087  18.310  0.00  0.00    +0.000 C 
ATOM     18  C   UNL     1      -2.461  12.519  19.743  0.00  0.00    +0.000 C 
ENDROOT
BRANCH  14  19
ATOM     19  S   UNL     1       3.167  15.767  18.291  0.00  0.00    +0.000 S 
ATOM     20  C   UNL     1       4.515  16.679  19.004  0.00  0.00    +0.000 C 
ATOM     21  O   UNL     1       3.447  15.519  16.908  0.00  0.00    +0.000 OA
ATOM     22  O   UNL     1       1.933  16.434  18.681  0.00  0.00    +0.000 OA
ENDBRANCH  14  19
BRANCH   1  24
ATOM     23  C   UNL     1       1.178   7.960  21.281  0.00  0.00    +0.000 C 
ATOM     24  O   UNL     1       1.124   9.280  20.747  0.00  0.00    +0.000 OA
ENDBRANCH   1  24
TORSDOF 2
ENDMDL
MODEL 3
REMARK VINA RESULT:      -5.5      6.858      9.851
REMARK  Name = 
REMARK  4 active torsions:
REMARK  status: ('A' for Active; 'I' for Inactive)
REMARK    1  A    between atoms: C_1  and  O_2
REMARK    2  A    between atoms: O_2  and  C_3
REMARK    3  A    between atoms: N_16  and  S_17
REMARK    4  A    between atoms: S_17  and  C_18
REMARK                            x       y       z     vdW  Elec       q    Type
REMARK                         _______ _______ _______ _____ _____    ______ ____
ROOT
ATOM      1  C   UNL     1      -0.125  10.078  19.938  0.00  0.00    +0.000 A 
ATOM      2  C   UNL     1       0.659   9.392  20.892  0.00  0.00    +0.000 A 
ATOM      3  C   UNL     1       0.587   9.684  22.257  0.00  0.00    +0.000 A 
ATOM      4  C   UNL     1      -0.353  10.589  22.708  0.00  0.00    +0.000 A 
ATOM      5  C   UNL     1      -1.172  11.259  21.785  0.00  0.00    +0.000 A 
ATOM      6  C   UNL     1      -0.969  11.124  20.366  0.00  0.00    +0.000 A 
ATOM      7  C   UNL     1      -1.505  12.238  19.383  0.00  0.00    +0.000 C 
ATOM      8  C   UNL     1      -0.516  13.106  18.320  0.00  0.00    +0.000 C 
ATOM      9  C   UNL     1       0.229  14.547  18.888  0.00  0.00    +0.000 C 
ATOM     10  C   UNL     1       0.208  14.111  20.302  0.00  0.00    +0.000 C 
ATOM     11  C   UNL     1       1.184  12.894  20.307  0.00  0.00    +0.000 C 
ATOM     12  C   UNL     1       2.537  13.344  20.707  0.00  0.00    +0.000 C 
ATOM     13  C   UNL     1       2.900  14.535  19.877  0.00  0.00    +0.000 C 
ATOM     14  N   UNL     1       1.804  15.179  19.019  0.00  0.00    +0.000 NA
ATOM     15  C   UNL     1      -1.291  14.284  20.611  0.00  0.00    +0.000 C 
ATOM     16  N   UNL     1      -2.232  13.290  20.120  0.00  0.00    +0.000 NA
ATOM     17  C   UNL     1      -3.045  12.776  21.233  0.00  0.00    +0.000 C 
ATOM     18  C   UNL     1      -2.167  12.230  22.357  0.00  0.00    +0.000 C 
ENDROOT
BRANCH  14  19
ATOM     19  S   UNL     1       1.648  16.885  19.510  0.00  0.00    +0.000 S 
ATOM     20  C   UNL     1       1.981  16.846  21.254  0.00  0.00    +0.000 C 
ATOM     21  O   UNL     1       2.687  17.618  18.848  0.00  0.00    +0.000 OA
ATOM     22  O   UNL     1       0.255  17.274  19.339  0.00  0.00    +0.000 OA
ENDBRANCH  14  19
BRANCH   1  24
ATOM     23  C   UNL     1       1.319   9.658  18.082  0.00  0.00    +0.000 C 
ATOM     24  O   UNL     1       0.011   9.902  18.590  0.00  0.00    +0.000 OA
ENDBRANCH   1  24
TORSDOF 2
ENDMDL
MODEL 4
REMARK VINA RESULT:      -5.5      9.674     11.921
REMARK  Name = 
REMARK  4 active torsions:
REMARK  status: ('A' for Active; 'I' for Inactive)
REMARK    1  A    between atoms: C_1  and  O_2
REMARK    2  A    between atoms: O_2  and  C_3
REMARK    3  A    between atoms: N_16  and  S_17
REMARK    4  A    between atoms: S_17  and  C_18
REMARK                            x       y       z     vdW  Elec       q    Type
REMARK                         _______ _______ _______ _____ _____    ______ ____
ROOT
ATOM      1  C   UNL     1      -1.215  14.155  22.121  0.00  0.00    +0.000 A 
ATOM      2  C   UNL     1      -2.362  14.390  22.911  0.00  0.00    +0.000 A 
ATOM      3  C   UNL     1      -2.996  13.363  23.618  0.00  0.00    +0.000 A 
ATOM      4  C   UNL     1      -2.430  12.104  23.639  0.00  0.00    +0.000 A 
ATOM      5  C   UNL     1      -1.268  11.852  22.891  0.00  0.00    +0.000 A 
ATOM      6  C   UNL     1      -0.723  12.839  21.997  0.00  0.00    +0.000 A 
ATOM      7  C   UNL     1       0.217  12.393  20.808  0.00  0.00    +0.000 C 
ATOM      8  C   UNL     1      -0.113  12.713  19.180  0.00  0.00    +0.000 C 
ATOM      9  C   UNL     1      -1.068  11.586  18.302  0.00  0.00    +0.000 C 
ATOM     10  C   UNL     1      -1.758  11.087  19.513  0.00  0.00    +0.000 C 
ATOM     11  C   UNL     1      -2.581  12.327  19.983  0.00  0.00    +0.000 C 
ATOM     12  C   UNL     1      -3.958  12.242  19.445  0.00  0.00    +0.000 C 
ATOM     13  C   UNL     1      -3.872  11.969  17.976  0.00  0.00    +0.000 C 
ATOM     14  N   UNL     1      -2.504  11.600  17.388  0.00  0.00    +0.000 NA
ATOM     15  C   UNL     1      -0.626  10.253  20.140  0.00  0.00    +0.000 C 
ATOM     16  N   UNL     1       0.451  10.936  20.836  0.00  0.00    +0.000 NA
ATOM     17  C   UNL     1       0.598  10.389  22.194  0.00  0.00    +0.000 C 
ATOM     18  C   UNL     1      -0.718  10.455  22.966  0.00  0.00    +0.000 C 
ENDROOT
BRANCH  14  19
ATOM     19  S   UNL     1      -2.648  10.004  16.609  0.00  0.00    +0.000 S 
ATOM     20  C   UNL     1      -3.191  10.394  14.963  0.00  0.00    +0.000 C 
ATOM     21  O   UNL     1      -1.333   9.436  16.549  0.00  0.00    +0.000 OA
ATOM     22  O   UNL     1      -3.728   9.282  17.266  0.00  0.00    +0.000 OA
ENDBRANCH  14  19
BRANCH   1  24
ATOM     23  C   UNL     1      -1.516  15.938  20.559  0.00  0.00    +0.000 C 
ATOM     24  O   UNL     1      -0.647  15.108  21.324  0.00  0.00    +0.000 OA
ENDBRANCH   1  24
TORSDOF 2
ENDMDL
MODEL 5
REMARK VINA RESULT:      -5.4      2.497      3.930
REMARK  Name = 
REMARK  4 active torsions:
REMARK  status: ('A' for Active; 'I' for Inactive)
REMARK    1  A    between atoms: C_1  and  O_2
REMARK    2  A    between atoms: O_2  and  C_3
REMARK    3  A    between atoms: N_16  and  S_17
REMARK    4  A    between atoms: S_17  and  C_18
REMARK                            x       y       z     vdW  Elec       q    Type
REMARK                         _______ _______ _______ _____ _____    ______ ____
ROOT
ATOM      1  C   UNL     1      10.591  12.661  18.621  0.00  0.00    +0.000 A 
ATOM      2  C   UNL     1      10.121  11.394  18.209  0.00  0.00    +0.000 A 
ATOM      3  C   UNL     1       8.803  11.195  17.787  0.00  0.00    +0.000 A 
ATOM      4  C   UNL     1       7.960  12.282  17.661  0.00  0.00    +0.000 A 
ATOM      5  C   UNL     1       8.414  13.559  18.029  0.00  0.00    +0.000 A 
ATOM      6  C   UNL     1       9.694  13.748  18.658  0.00  0.00    +0.000 A 
ATOM      7  C   UNL     1       9.965  15.041  19.524  0.00  0.00    +0.000 C 
ATOM      8  C   UNL     1      10.413  15.003  21.155  0.00  0.00    +0.000 C 
ATOM      9  C   UNL     1       9.171  14.969  22.343  0.00  0.00    +0.000 C 
ATOM     10  C   UNL     1       8.188  14.343  21.431  0.00  0.00    +0.000 C 
ATOM     11  C   UNL     1       8.801  12.932  21.170  0.00  0.00    +0.000 C 
ATOM     12  C   UNL     1       8.209  11.952  22.108  0.00  0.00    +0.000 C 
ATOM     13  C   UNL     1       8.298  12.514  23.492  0.00  0.00    +0.000 C 
ATOM     14  N   UNL     1       8.712  13.982  23.652  0.00  0.00    +0.000 NA
ATOM     15  C   UNL     1       7.853  15.549  20.533  0.00  0.00    +0.000 C 
ATOM     16  N   UNL     1       8.799  15.946  19.504  0.00  0.00    +0.000 NA
ATOM     17  C   UNL     1       8.124  16.009  18.198  0.00  0.00    +0.000 C 
ATOM     18  C   UNL     1       7.434  14.687  17.865  0.00  0.00    +0.000 C 
ENDROOT
BRANCH  14  19
ATOM     19  S   UNL     1       7.410  14.834  24.522  0.00  0.00    +0.000 S 
ATOM     20  C   UNL     1       7.157  13.834  25.968  0.00  0.00    +0.000 C 
ATOM     21  O   UNL     1       7.925  16.112  24.918  0.00  0.00    +0.000 OA
ATOM     22  O   UNL     1       6.203  14.749  23.714  0.00  0.00    +0.000 OA
ENDBRANCH  14  19
BRANCH   1  24
ATOM     23  C   UNL     1      12.331  11.886  20.063  0.00  0.00    +0.000 C 
ATOM     24  O   UNL     1      11.834  12.862  19.153  0.00  0.00    +0.000 OA
ENDBRANCH   1  24
TORSDOF 2
ENDMDL
MODEL 6
REMARK VINA RESULT:      -5.4     10.947     14.776
REMARK  Name = 
REMARK  4 active torsions:
REMARK  status: ('A' for Active; 'I' for Inactive)
REMARK    1  A    between atoms: C_1  and  O_2
REMARK    2  A    between atoms: O_2  and  C_3
REMARK    3  A    between atoms: N_16  and  S_17
REMARK    4  A    between atoms: S_17  and  C_18
REMARK                            x       y       z     vdW  Elec       q    Type
REMARK                         _______ _______ _______ _____ _____    ______ ____
ROOT
ATOM      1  C   UNL     1      -6.773  13.568  18.610  0.00  0.00    +0.000 A 
ATOM      2  C   UNL     1      -6.783  12.444  17.754  0.00  0.00    +0.000 A 
ATOM      3  C   UNL     1      -6.924  11.142  18.243  0.00  0.00    +0.000 A 
ATOM      4  C   UNL     1      -7.172  10.946  19.588  0.00  0.00    +0.000 A 
ATOM      5  C   UNL     1      -7.204  12.050  20.456  0.00  0.00    +0.000 A 
ATOM      6  C   UNL     1      -6.856  13.371  20.005  0.00  0.00    +0.000 A 
ATOM      7  C   UNL     1      -6.386  14.463  21.045  0.00  0.00    +0.000 C 
ATOM      8  C   UNL     1      -4.890  15.248  20.970  0.00  0.00    +0.000 C 
ATOM      9  C   UNL     1      -3.544  14.518  21.752  0.00  0.00    +0.000 C 
ATOM     10  C   UNL     1      -4.105  13.152  21.645  0.00  0.00    +0.000 C 
ATOM     11  C   UNL     1      -4.111  12.896  20.106  0.00  0.00    +0.000 C 
ATOM     12  C   UNL     1      -2.879  12.171  19.718  0.00  0.00    +0.000 C 
ATOM     13  C   UNL     1      -1.707  12.890  20.308  0.00  0.00    +0.000 C 
ATOM     14  N   UNL     1      -1.978  13.999  21.332  0.00  0.00    +0.000 NA
ATOM     15  C   UNL     1      -5.202  13.230  22.723  0.00  0.00    +0.000 C 
ATOM     16  N   UNL     1      -6.436  13.937  22.423  0.00  0.00    +0.000 NA
ATOM     17  C   UNL     1      -7.591  13.061  22.679  0.00  0.00    +0.000 C 
ATOM     18  C   UNL     1      -7.476  11.750  21.904  0.00  0.00    +0.000 C 
ENDROOT
BRANCH  14  19
ATOM     19  S   UNL     1      -1.141  13.572  22.847  0.00  0.00    +0.000 S 
ATOM     20  C   UNL     1      -1.251  11.799  22.894  0.00  0.00    +0.000 C 
ATOM     21  O   UNL     1       0.232  13.955  22.701  0.00  0.00    +0.000 OA
ATOM     22  O   UNL     1      -1.932  14.089  23.955  0.00  0.00    +0.000 OA
ENDBRANCH  14  19
BRANCH   1  24
ATOM     23  C   UNL     1      -7.052  15.231  16.917  0.00  0.00    +0.000 C 
ATOM     24  O   UNL     1      -6.515  14.838  18.177  0.00  0.00    +0.000 OA
ENDBRANCH   1  24
TORSDOF 2
ENDMDL
MODEL 7
REMARK VINA RESULT:      -5.4      7.241      9.597
REMARK  Name = 
REMARK  4 active torsions:
REMARK  status: ('A' for Active; 'I' for Inactive)
REMARK    1  A    between atoms: C_1  and  O_2
REMARK    2  A    between atoms: O_2  and  C_3
REMARK    3  A    between atoms: N_16  and  S_17
REMARK    4  A    between atoms: S_17  and  C_18
REMARK                            x       y       z     vdW  Elec       q    Type
REMARK                         _______ _______ _______ _____ _____    ______ ____
ROOT
ATOM      1  C   UNL     1      -0.554  10.120  18.312  0.00  0.00    +0.000 A 
ATOM      2  C   UNL     1       0.524   9.362  17.803  0.00  0.00    +0.000 A 
ATOM      3  C   UNL     1       1.560   8.907  18.624  0.00  0.00    +0.000 A 
ATOM      4  C   UNL     1       1.481   9.104  19.989  0.00  0.00    +0.000 A 
ATOM      5  C   UNL     1       0.400   9.823  20.525  0.00  0.00    +0.000 A 
ATOM      6  C   UNL     1      -0.563  10.474  19.677  0.00  0.00    +0.000 A 
ATOM      7  C   UNL     1      -1.423  11.675  20.236  0.00  0.00    +0.000 C 
ATOM      8  C   UNL     1      -1.429  13.223  19.555  0.00  0.00    +0.000 C 
ATOM      9  C   UNL     1      -0.252  14.357  20.090  0.00  0.00    +0.000 C 
ATOM     10  C   UNL     1       0.712  13.307  20.490  0.00  0.00    +0.000 C 
ATOM     11  C   UNL     1       1.096  12.647  19.129  0.00  0.00    +0.000 C 
ATOM     12  C   UNL     1       2.337  13.265  18.611  0.00  0.00    +0.000 C 
ATOM     13  C   UNL     1       2.175  14.752  18.652  0.00  0.00    +0.000 C 
ATOM     14  N   UNL     1       0.963  15.326  19.397  0.00  0.00    +0.000 NA
ATOM     15  C   UNL     1       0.031  12.797  21.774  0.00  0.00    +0.000 C 
ATOM     16  N   UNL     1      -1.124  11.922  21.660  0.00  0.00    +0.000 NA
ATOM     17  C   UNL     1      -0.902  10.693  22.438  0.00  0.00    +0.000 C 
ATOM     18  C   UNL     1       0.390   9.996  22.018  0.00  0.00    +0.000 C 
ENDROOT
BRANCH  14  19
ATOM     19  S   UNL     1       1.564  16.411  20.678  0.00  0.00    +0.000 S 
ATOM     20  C   UNL     1       1.998  17.891  19.796  0.00  0.00    +0.000 C 
ATOM     21  O   UNL     1       0.465  16.690  21.554  0.00  0.00    +0.000 OA
ATOM     22  O   UNL     1       2.795  15.841  21.206  0.00  0.00    +0.000 OA
ENDBRANCH  14  19
BRANCH   1  24
ATOM     23  C   UNL     1      -2.652   9.889  17.192  0.00  0.00    +0.000 C 
ATOM     24  O   UNL     1      -1.515  10.682  17.518  0.00  0.00    +0.000 OA
ENDBRANCH   1  24
TORSDOF 2
ENDMDL
MODEL 8
REMARK VINA RESULT:      -5.4      6.128     10.367
REMARK  Name = 
REMARK  4 active torsions:
REMARK  status: ('A' for Active; 'I' for Inactive)
REMARK    1  A    between atoms: C_1  and  O_2
REMARK    2  A    between atoms: O_2  and  C_3
REMARK    3  A    between atoms: N_16  and  S_17
REMARK    4  A    between atoms: S_17  and  C_18
REMARK                            x       y       z     vdW  Elec       q    Type
REMARK                         _______ _______ _______ _____ _____    ______ ____
ROOT
ATOM      1  C   UNL     1      -1.313  11.623  22.496  0.00  0.00    +0.000 A 
ATOM      2  C   UNL     1      -2.266  12.365  23.229  0.00  0.00    +0.000 A 
ATOM      3  C   UNL     1      -3.275  13.100  22.599  0.00  0.00    +0.000 A 
ATOM      4  C   UNL     1      -3.420  13.016  21.228  0.00  0.00    +0.000 A 
ATOM      5  C   UNL     1      -2.509  12.255  20.478  0.00  0.00    +0.000 A 
ATOM      6  C   UNL     1      -1.346  11.664  21.086  0.00  0.00    +0.000 A 
ATOM      7  C   UNL     1      -0.096  11.287  20.197  0.00  0.00    +0.000 C 
ATOM      8  C   UNL     1       1.457  11.908  20.450  0.00  0.00    +0.000 C 
ATOM      9  C   UNL     1       1.879  13.389  19.687  0.00  0.00    +0.000 C 
ATOM     10  C   UNL     1       0.477  13.859  19.615  0.00  0.00    +0.000 C 
ATOM     11  C   UNL     1       0.095  14.050  21.116  0.00  0.00    +0.000 C 
ATOM     12  C   UNL     1       0.305  15.462  21.506  0.00  0.00    +0.000 C 
ATOM     13  C   UNL     1       1.678  15.870  21.071  0.00  0.00    +0.000 C 
ATOM     14  N   UNL     1       2.457  14.921  20.152  0.00  0.00    +0.000 NA
ATOM     15  C   UNL     1      -0.047  12.958  18.482  0.00  0.00    +0.000 C 
ATOM     16  N   UNL     1      -0.356  11.568  18.772  0.00  0.00    +0.000 NA
ATOM     17  C   UNL     1      -1.733  11.261  18.352  0.00  0.00    +0.000 C 
ATOM     18  C   UNL     1      -2.735  12.219  18.993  0.00  0.00    +0.000 C 
ENDROOT
BRANCH  14  19
ATOM     19  S   UNL     1       2.864  15.806  18.659  0.00  0.00    +0.000 S 
ATOM     20  C   UNL     1       4.290  16.760  19.120  0.00  0.00    +0.000 C 
ATOM     21  O   UNL     1       3.244  14.835  17.676  0.00  0.00    +0.000 OA
ATOM     22  O   UNL     1       1.782  16.741  18.385  0.00  0.00    +0.000 OA
ENDBRANCH  14  19
BRANCH   1  24
ATOM     23  C   UNL     1      -0.335   9.590  23.284  0.00  0.00    +0.000 C 
ATOM     24  O   UNL     1      -0.245  10.996  23.074  0.00  0.00    +0.000 OA
ENDBRANCH   1  24
TORSDOF 2
ENDMDL
MODEL 9
REMARK VINA RESULT:      -5.3      9.901     11.632
REMARK  Name = 
REMARK  4 active torsions:
REMARK  status: ('A' for Active; 'I' for Inactive)
REMARK    1  A    between atoms: C_1  and  O_2
REMARK    2  A    between atoms: O_2  and  C_3
REMARK    3  A    between atoms: N_16  and  S_17
REMARK    4  A    between atoms: S_17  and  C_18
REMARK                            x       y       z     vdW  Elec       q    Type
REMARK                         _______ _______ _______ _____ _____    ______ ____
ROOT
ATOM      1  C   UNL     1      -0.497  11.318  20.091  0.00  0.00    +0.000 A 
ATOM      2  C   UNL     1      -0.633  11.414  18.688  0.00  0.00    +0.000 A 
ATOM      3  C   UNL     1      -0.678  12.647  18.032  0.00  0.00    +0.000 A 
ATOM      4  C   UNL     1      -0.474  13.807  18.753  0.00  0.00    +0.000 A 
ATOM      5  C   UNL     1      -0.300  13.738  20.145  0.00  0.00    +0.000 A 
ATOM      6  C   UNL     1      -0.458  12.500  20.861  0.00  0.00    +0.000 A 
ATOM      7  C   UNL     1      -0.784  12.517  22.406  0.00  0.00    +0.000 C 
ATOM      8  C   UNL     1      -2.157  11.797  23.083  0.00  0.00    +0.000 C 
ATOM      9  C   UNL     1      -3.600  12.727  23.188  0.00  0.00    +0.000 C 
ATOM     10  C   UNL     1      -3.231  13.597  22.049  0.00  0.00    +0.000 C 
ATOM     11  C   UNL     1      -3.244  12.613  20.838  0.00  0.00    +0.000 C 
ATOM     12  C   UNL     1      -4.558  12.675  20.161  0.00  0.00    +0.000 C 
ATOM     13  C   UNL     1      -5.628  12.529  21.198  0.00  0.00    +0.000 C 
ATOM     14  N   UNL     1      -5.217  12.597  22.675  0.00  0.00    +0.000 NA
ATOM     15  C   UNL     1      -2.146  14.463  22.716  0.00  0.00    +0.000 C 
ATOM     16  N   UNL     1      -0.823  13.898  22.924  0.00  0.00    +0.000 NA
ATOM     17  C   UNL     1       0.197  14.778  22.332  0.00  0.00    +0.000 C 
ATOM     18  C   UNL     1      -0.088  15.046  20.856  0.00  0.00    +0.000 C 
ENDROOT
BRANCH  14  19
ATOM     19  S   UNL     1      -6.122  13.928  23.441  0.00  0.00    +0.000 S 
ATOM     20  C   UNL     1      -6.777  14.832  22.059  0.00  0.00    +0.000 C 
ATOM     21  O   UNL     1      -7.203  13.343  24.177  0.00  0.00    +0.000 OA
ATOM     22  O   UNL     1      -5.161  14.792  24.113  0.00  0.00    +0.000 OA
ENDBRANCH  14  19
BRANCH   1  24
ATOM     23  C   UNL     1       0.623   9.375  20.917  0.00  0.00    +0.000 C 
ATOM     24  O   UNL     1      -0.573  10.136  20.772  0.00  0.00    +0.000 OA
ENDBRANCH   1  24
TORSDOF 2
ENDMDL
