MODEL 1
REMARK VINA RESULT:      -7.6      0.000      0.000
REMARK  Name = 
REMARK  11 active torsions:
REMARK  status: ('A' for Active; 'I' for Inactive)
REMARK    1  A    between atoms: C_1  and  C_2
REMARK    2  A    between atoms: C_3  and  N_4
REMARK    3  A    between atoms: N_4  and  C_5
REMARK    4  A    between atoms: N_4  and  S_17
REMARK    5  A    between atoms: C_5  and  C_6
REMARK    6  A    between atoms: C_9  and  O_10
REMARK    7  A    between atoms: O_10  and  C_11
REMARK    8  A    between atoms: S_17  and  C_20
REMARK    9  A    between atoms: C_20  and  C_21
REMARK   10  A    between atoms: C_21  and  C_22
REMARK   11  A    between atoms: C_22  and  O_24
REMARK                            x       y       z     vdW  Elec       q    Type
REMARK                         _______ _______ _______ _____ _____    ______ ____
ROOT
ATOM      1  N   UNL     1       3.515   4.757  17.968  0.00  0.00    +0.000 N 
ENDROOT
BRANCH   1   4
ATOM      2  C   UNL     1       2.503   5.452  20.775  0.00  0.00    +0.000 C 
ATOM      3  C   UNL     1       2.558   6.371  19.595  0.00  0.00    +0.000 A 
ATOM      4  C   UNL     1       3.081   6.079  18.349  0.00  0.00    +0.000 A 
ATOM      5  S   UNL     1       3.147   7.452  17.345  0.00  0.00    +0.000 S 
ATOM      6  C   UNL     1       2.119   8.351  18.396  0.00  0.00    +0.000 A 
ATOM      7  C   UNL     1       1.490   9.588  18.140  0.00  0.00    +0.000 A 
ATOM      8  C   UNL     1       0.735  10.188  19.154  0.00  0.00    +0.000 A 
ATOM      9  C   UNL     1       0.650   9.601  20.409  0.00  0.00    +0.000 A 
ATOM     10  C   UNL     1       1.267   8.372  20.648  0.00  0.00    +0.000 A 
ATOM     11  C   UNL     1       1.977   7.701  19.623  0.00  0.00    +0.000 A 
ENDBRANCH   1   4
BRANCH   1  12
ATOM     12  S   UNL     1       2.223   3.707  17.540  0.00  0.00    +0.000 S 
ATOM     13  O   UNL     1       0.995   4.477  17.552  0.00  0.00    +0.000 OA
ATOM     14  O   UNL     1       2.616   2.993  16.342  0.00  0.00    +0.000 OA
BRANCH  12  15
ATOM     15  C   UNL     1       2.040   2.474  18.848  0.00  0.00    +0.000 C 
BRANCH  15  16
ATOM     16  C   UNL     1       3.368   1.713  18.984  0.00  0.00    +0.000 C 
BRANCH  16  17
ATOM     17  C   UNL     1       4.043   1.986  20.301  0.00  0.00    +0.000 C 
ATOM     18  O   UNL     1       5.233   1.875  20.517  0.00  0.00    +0.000 OA
BRANCH  17  19
ATOM     19  O   UNL     1       3.166   2.392  21.251  0.00  0.00    +0.000 OA
ATOM     20  H   UNL     1       3.371   2.084  22.153  0.00  0.00    +0.000 HD
ENDBRANCH  17  19
ENDBRANCH  16  17
ENDBRANCH  15  16
ENDBRANCH  12  15
ENDBRANCH   1  12
BRANCH   1  21
ATOM     21  C   UNL     1       4.740   4.553  17.154  0.00  0.00    +0.000 C 
BRANCH  21  22
ATOM     22  C   UNL     1       5.992   5.338  17.541  0.00  0.00    +0.000 A 
ATOM     23  C   UNL     1       6.539   6.301  16.680  0.00  0.00    +0.000 A 
ATOM     24  C   UNL     1       7.518   7.190  17.147  0.00  0.00    +0.000 A 
ATOM     25  C   UNL     1       7.968   7.123  18.467  0.00  0.00    +0.000 A 
ATOM     26  C   UNL     1       7.523   6.082  19.275  0.00  0.00    +0.000 A 
ATOM     27  C   UNL     1       6.528   5.206  18.824  0.00  0.00    +0.000 A 
BRANCH  25  28
ATOM     28  O   UNL     1       8.881   8.063  18.834  0.00  0.00    +0.000 OA
BRANCH  28  29
ATOM     29  C   UNL     1       8.644   9.424  18.486  0.00  0.00    +0.000 C 
ATOM     30  F   UNL     1       9.455   9.916  17.525  0.00  0.00    +0.000 F 
ATOM     31  F   UNL     1       7.365   9.551  18.066  0.00  0.00    +0.000 F 
ATOM     32  F   UNL     1       8.796  10.196  19.587  0.00  0.00    +0.000 F 
ENDBRANCH  28  29
ENDBRANCH  25  28
ENDBRANCH  21  22
ENDBRANCH   1  21
TORSDOF 10
ENDMDL
MODEL 2
REMARK VINA RESULT:      -7.3      0.750      1.289
REMARK  Name = 
REMARK  11 active torsions:
REMARK  status: ('A' for Active; 'I' for Inactive)
REMARK    1  A    between atoms: C_1  and  C_2
REMARK    2  A    between atoms: C_3  and  N_4
REMARK    3  A    between atoms: N_4  and  C_5
REMARK    4  A    between atoms: N_4  and  S_17
REMARK    5  A    between atoms: C_5  and  C_6
REMARK    6  A    between atoms: C_9  and  O_10
REMARK    7  A    between atoms: O_10  and  C_11
REMARK    8  A    between atoms: S_17  and  C_20
REMARK    9  A    between atoms: C_20  and  C_21
REMARK   10  A    between atoms: C_21  and  C_22
REMARK   11  A    between atoms: C_22  and  O_24
REMARK                            x       y       z     vdW  Elec       q    Type
REMARK                         _______ _______ _______ _____ _____    ______ ____
ROOT
ATOM      1  N   UNL     1       3.500   4.869  18.088  0.00  0.00    +0.000 N 
ENDROOT
BRANCH   1   4
ATOM      2  C   UNL     1       2.624   5.786  20.878  0.00  0.00    +0.000 C 
ATOM      3  C   UNL     1       2.570   6.591  19.617  0.00  0.00    +0.000 A 
ATOM      4  C   UNL     1       3.033   6.204  18.373  0.00  0.00    +0.000 A 
ATOM      5  S   UNL     1       2.981   7.478  17.246  0.00  0.00    +0.000 S 
ATOM      6  C   UNL     1       1.977   8.433  18.272  0.00  0.00    +0.000 A 
ATOM      7  C   UNL     1       1.281   9.615  17.944  0.00  0.00    +0.000 A 
ATOM      8  C   UNL     1       0.562  10.279  18.943  0.00  0.00    +0.000 A 
ATOM      9  C   UNL     1       0.575   9.810  20.249  0.00  0.00    +0.000 A 
ATOM     10  C   UNL     1       1.258   8.632  20.561  0.00  0.00    +0.000 A 
ATOM     11  C   UNL     1       1.936   7.895  19.560  0.00  0.00    +0.000 A 
ENDBRANCH   1   4
BRANCH   1  12
ATOM     12  S   UNL     1       2.232   3.741  17.814  0.00  0.00    +0.000 S 
ATOM     13  O   UNL     1       0.969   4.437  17.968  0.00  0.00    +0.000 OA
ATOM     14  O   UNL     1       2.525   3.044  16.578  0.00  0.00    +0.000 OA
BRANCH  12  15
ATOM     15  C   UNL     1       2.276   2.508  19.134  0.00  0.00    +0.000 C 
BRANCH  15  16
ATOM     16  C   UNL     1       1.326   2.963  20.251  0.00  0.00    +0.000 C 
BRANCH  16  17
ATOM     17  C   UNL     1       1.780   2.491  21.606  0.00  0.00    +0.000 C 
ATOM     18  O   UNL     1       1.048   2.209  22.534  0.00  0.00    +0.000 OA
BRANCH  17  19
ATOM     19  O   UNL     1       3.130   2.397  21.689  0.00  0.00    +0.000 OA
ATOM     20  H   UNL     1       3.573   3.195  22.032  0.00  0.00    +0.000 HD
ENDBRANCH  17  19
ENDBRANCH  16  17
ENDBRANCH  15  16
ENDBRANCH  12  15
ENDBRANCH   1  12
BRANCH   1  21
ATOM     21  C   UNL     1       4.696   4.637  17.239  0.00  0.00    +0.000 C 
BRANCH  21  22
ATOM     22  C   UNL     1       5.965   5.421  17.565  0.00  0.00    +0.000 A 
ATOM     23  C   UNL     1       6.444   6.417  16.703  0.00  0.00    +0.000 A 
ATOM     24  C   UNL     1       7.446   7.300  17.131  0.00  0.00    +0.000 A 
ATOM     25  C   UNL     1       7.987   7.193  18.414  0.00  0.00    +0.000 A 
ATOM     26  C   UNL     1       7.606   6.122  19.214  0.00  0.00    +0.000 A 
ATOM     27  C   UNL     1       6.589   5.252  18.804  0.00  0.00    +0.000 A 
BRANCH  25  28
ATOM     28  O   UNL     1       8.916   8.129  18.749  0.00  0.00    +0.000 OA
BRANCH  28  29
ATOM     29  C   UNL     1       8.628   9.503  18.502  0.00  0.00    +0.000 C 
ATOM     30  F   UNL     1       7.389   9.748  18.026  0.00  0.00    +0.000 F 
ATOM     31  F   UNL     1       8.783  10.195  19.654  0.00  0.00    +0.000 F 
ATOM     32  F   UNL     1       9.517   9.988  17.605  0.00  0.00    +0.000 F 
ENDBRANCH  28  29
ENDBRANCH  25  28
ENDBRANCH  21  22
ENDBRANCH   1  21
TORSDOF 10
ENDMDL
MODEL 3
REMARK VINA RESULT:      -7.3      5.723      8.596
REMARK  Name = 
REMARK  11 active torsions:
REMARK  status: ('A' for Active; 'I' for Inactive)
REMARK    1  A    between atoms: C_1  and  C_2
REMARK    2  A    between atoms: C_3  and  N_4
REMARK    3  A    between atoms: N_4  and  C_5
REMARK    4  A    between atoms: N_4  and  S_17
REMARK    5  A    between atoms: C_5  and  C_6
REMARK    6  A    between atoms: C_9  and  O_10
REMARK    7  A    between atoms: O_10  and  C_11
REMARK    8  A    between atoms: S_17  and  C_20
REMARK    9  A    between atoms: C_20  and  C_21
REMARK   10  A    between atoms: C_21  and  C_22
REMARK   11  A    between atoms: C_22  and  O_24
REMARK                            x       y       z     vdW  Elec       q    Type
REMARK                         _______ _______ _______ _____ _____    ______ ____
ROOT
ATOM      1  N   UNL     1      -0.132  11.503  19.427  0.00  0.00    +0.000 N 
ENDROOT
BRANCH   1   4
ATOM      2  C   UNL     1      -1.804  10.109  17.271  0.00  0.00    +0.000 C 
ATOM      3  C   UNL     1      -2.315  11.013  18.350  0.00  0.00    +0.000 A 
ATOM      4  C   UNL     1      -1.571  11.582  19.366  0.00  0.00    +0.000 A 
ATOM      5  S   UNL     1      -2.551  12.373  20.511  0.00  0.00    +0.000 S 
ATOM      6  C   UNL     1      -3.924  12.318  19.470  0.00  0.00    +0.000 A 
ATOM      7  C   UNL     1      -5.151  12.999  19.621  0.00  0.00    +0.000 A 
ATOM      8  C   UNL     1      -6.171  12.774  18.691  0.00  0.00    +0.000 A 
ATOM      9  C   UNL     1      -5.997  11.855  17.665  0.00  0.00    +0.000 A 
ATOM     10  C   UNL     1      -4.775  11.195  17.518  0.00  0.00    +0.000 A 
ATOM     11  C   UNL     1      -3.696  11.454  18.398  0.00  0.00    +0.000 A 
ENDBRANCH   1   4
BRANCH   1  12
ATOM     12  S   UNL     1       0.645  13.035  19.355  0.00  0.00    +0.000 S 
ATOM     13  O   UNL     1      -0.069  13.856  18.397  0.00  0.00    +0.000 OA
ATOM     14  O   UNL     1       0.822  13.502  20.715  0.00  0.00    +0.000 OA
BRANCH  12  15
ATOM     15  C   UNL     1       2.298  12.799  18.662  0.00  0.00    +0.000 C 
BRANCH  15  16
ATOM     16  C   UNL     1       2.746  14.122  18.022  0.00  0.00    +0.000 C 
BRANCH  16  17
ATOM     17  C   UNL     1       3.173  15.132  19.052  0.00  0.00    +0.000 C 
ATOM     18  O   UNL     1       4.275  15.194  19.562  0.00  0.00    +0.000 OA
BRANCH  17  19
ATOM     19  O   UNL     1       2.180  16.002  19.358  0.00  0.00    +0.000 OA
ATOM     20  H   UNL     1       1.692  15.792  20.176  0.00  0.00    +0.000 HD
ENDBRANCH  17  19
ENDBRANCH  16  17
ENDBRANCH  15  16
ENDBRANCH  12  15
ENDBRANCH   1  12
BRANCH   1  21
ATOM     21  C   UNL     1       0.549  10.534  20.324  0.00  0.00    +0.000 C 
BRANCH  21  22
ATOM     22  C   UNL     1       1.118   9.263  19.698  0.00  0.00    +0.000 A 
ATOM     23  C   UNL     1       1.477   9.219  18.343  0.00  0.00    +0.000 A 
ATOM     24  C   UNL     1       2.235   8.147  17.848  0.00  0.00    +0.000 A 
ATOM     25  C   UNL     1       2.630   7.107  18.690  0.00  0.00    +0.000 A 
ATOM     26  C   UNL     1       2.158   7.087  19.998  0.00  0.00    +0.000 A 
ATOM     27  C   UNL     1       1.423   8.165  20.506  0.00  0.00    +0.000 A 
BRANCH  25  28
ATOM     28  O   UNL     1       3.404   6.142  18.123  0.00  0.00    +0.000 OA
BRANCH  28  29
ATOM     29  C   UNL     1       2.848   4.846  17.920  0.00  0.00    +0.000 C 
ATOM     30  F   UNL     1       2.892   4.032  18.996  0.00  0.00    +0.000 F 
ATOM     31  F   UNL     1       1.555   4.980  17.545  0.00  0.00    +0.000 F 
ATOM     32  F   UNL     1       3.509   4.232  16.912  0.00  0.00    +0.000 F 
ENDBRANCH  28  29
ENDBRANCH  25  28
ENDBRANCH  21  22
ENDBRANCH   1  21
TORSDOF 10
ENDMDL
MODEL 4
REMARK VINA RESULT:      -7.2      3.151      5.799
REMARK  Name = 
REMARK  11 active torsions:
REMARK  status: ('A' for Active; 'I' for Inactive)
REMARK    1  A    between atoms: C_1  and  C_2
REMARK    2  A    between atoms: C_3  and  N_4
REMARK    3  A    between atoms: N_4  and  C_5
REMARK    4  A    between atoms: N_4  and  S_17
REMARK    5  A    between atoms: C_5  and  C_6
REMARK    6  A    between atoms: C_9  and  O_10
REMARK    7  A    between atoms: O_10  and  C_11
REMARK    8  A    between atoms: S_17  and  C_20
REMARK    9  A    between atoms: C_20  and  C_21
REMARK   10  A    between atoms: C_21  and  C_22
REMARK   11  A    between atoms: C_22  and  O_24
REMARK                            x       y       z     vdW  Elec       q    Type
REMARK                         _______ _______ _______ _____ _____    ______ ____
ROOT
ATOM      1  N   UNL     1       2.498   4.855  18.924  0.00  0.00    +0.000 N 
ENDROOT
BRANCH   1   4
ATOM      2  C   UNL     1       5.472   5.362  19.459  0.00  0.00    +0.000 C 
ATOM      3  C   UNL     1       4.867   4.866  18.182  0.00  0.00    +0.000 A 
ATOM      4  C   UNL     1       3.535   4.569  17.964  0.00  0.00    +0.000 A 
ATOM      5  S   UNL     1       3.283   3.835  16.449  0.00  0.00    +0.000 S 
ATOM      6  C   UNL     1       4.860   4.269  15.903  0.00  0.00    +0.000 A 
ATOM      7  C   UNL     1       5.369   4.200  14.589  0.00  0.00    +0.000 A 
ATOM      8  C   UNL     1       6.705   4.546  14.360  0.00  0.00    +0.000 A 
ATOM      9  C   UNL     1       7.531   4.902  15.418  0.00  0.00    +0.000 A 
ATOM     10  C   UNL     1       7.013   4.978  16.712  0.00  0.00    +0.000 A 
ATOM     11  C   UNL     1       5.648   4.706  16.969  0.00  0.00    +0.000 A 
ENDBRANCH   1   4
BRANCH   1  12
ATOM     12  S   UNL     1       1.674   3.454  19.485  0.00  0.00    +0.000 S 
ATOM     13  O   UNL     1       1.230   3.707  20.842  0.00  0.00    +0.000 OA
ATOM     14  O   UNL     1       0.712   3.075  18.470  0.00  0.00    +0.000 OA
BRANCH  12  15
ATOM     15  C   UNL     1       2.869   2.105  19.604  0.00  0.00    +0.000 C 
BRANCH  15  16
ATOM     16  C   UNL     1       3.724   2.326  20.861  0.00  0.00    +0.000 C 
BRANCH  16  17
ATOM     17  C   UNL     1       4.935   1.434  20.886  0.00  0.00    +0.000 C 
ATOM     18  O   UNL     1       5.640   1.232  21.855  0.00  0.00    +0.000 OA
BRANCH  17  19
ATOM     19  O   UNL     1       5.164   0.849  19.685  0.00  0.00    +0.000 OA
ATOM     20  H   UNL     1       5.446   1.461  18.981  0.00  0.00    +0.000 HD
ENDBRANCH  17  19
ENDBRANCH  16  17
ENDBRANCH  15  16
ENDBRANCH  12  15
ENDBRANCH   1  12
BRANCH   1  21
ATOM     21  C   UNL     1       2.680   5.895  19.969  0.00  0.00    +0.000 C 
BRANCH  21  22
ATOM     22  C   UNL     1       2.217   7.315  19.650  0.00  0.00    +0.000 A 
ATOM     23  C   UNL     1       2.329   7.840  18.355  0.00  0.00    +0.000 A 
ATOM     24  C   UNL     1       1.669   9.031  18.017  0.00  0.00    +0.000 A 
ATOM     25  C   UNL     1       0.904   9.713  18.964  0.00  0.00    +0.000 A 
ATOM     26  C   UNL     1       0.907   9.262  20.279  0.00  0.00    +0.000 A 
ATOM     27  C   UNL     1       1.542   8.062  20.619  0.00  0.00    +0.000 A 
BRANCH  25  28
ATOM     28  O   UNL     1       0.264  10.830  18.521  0.00  0.00    +0.000 OA
BRANCH  28  29
ATOM     29  C   UNL     1       0.745  12.107  18.932  0.00  0.00    +0.000 C 
ATOM     30  F   UNL     1       2.079  12.177  19.127  0.00  0.00    +0.000 F 
ATOM     31  F   UNL     1       0.406  13.023  17.997  0.00  0.00    +0.000 F 
ATOM     32  F   UNL     1       0.141  12.456  20.092  0.00  0.00    +0.000 F 
ENDBRANCH  28  29
ENDBRANCH  25  28
ENDBRANCH  21  22
ENDBRANCH   1  21
TORSDOF 10
ENDMDL
MODEL 5
REMARK VINA RESULT:      -7.2      5.675      8.496
REMARK  Name = 
REMARK  11 active torsions:
REMARK  status: ('A' for Active; 'I' for Inactive)
REMARK    1  A    between atoms: C_1  and  C_2
REMARK    2  A    between atoms: C_3  and  N_4
REMARK    3  A    between atoms: N_4  and  C_5
REMARK    4  A    between atoms: N_4  and  S_17
REMARK    5  A    between atoms: C_5  and  C_6
REMARK    6  A    between atoms: C_9  and  O_10
REMARK    7  A    between atoms: O_10  and  C_11
REMARK    8  A    between atoms: S_17  and  C_20
REMARK    9  A    between atoms: C_20  and  C_21
REMARK   10  A    between atoms: C_21  and  C_22
REMARK   11  A    between atoms: C_22  and  O_24
REMARK                            x       y       z     vdW  Elec       q    Type
REMARK                         _______ _______ _______ _____ _____    ______ ____
ROOT
ATOM      1  N   UNL     1      -0.041  11.483  19.148  0.00  0.00    +0.000 N 
ENDROOT
BRANCH   1   4
ATOM      2  C   UNL     1      -1.842  10.053  17.122  0.00  0.00    +0.000 C 
ATOM      3  C   UNL     1      -2.287  10.967  18.222  0.00  0.00    +0.000 A 
ATOM      4  C   UNL     1      -1.481  11.553  19.180  0.00  0.00    +0.000 A 
ATOM      5  S   UNL     1      -2.389  12.351  20.378  0.00  0.00    +0.000 S 
ATOM      6  C   UNL     1      -3.828  12.277  19.431  0.00  0.00    +0.000 A 
ATOM      7  C   UNL     1      -5.046  12.952  19.654  0.00  0.00    +0.000 A 
ATOM      8  C   UNL     1      -6.124  12.710  18.796  0.00  0.00    +0.000 A 
ATOM      9  C   UNL     1      -6.011  11.780  17.772  0.00  0.00    +0.000 A 
ATOM     10  C   UNL     1      -4.798  11.125  17.552  0.00  0.00    +0.000 A 
ATOM     11  C   UNL     1      -3.665  11.400  18.356  0.00  0.00    +0.000 A 
ENDBRANCH   1   4
BRANCH   1  12
ATOM     12  S   UNL     1       0.716  13.004  18.885  0.00  0.00    +0.000 S 
ATOM     13  O   UNL     1       1.939  12.774  18.141  0.00  0.00    +0.000 OA
ATOM     14  O   UNL     1      -0.288  13.909  18.362  0.00  0.00    +0.000 OA
BRANCH  12  15
ATOM     15  C   UNL     1       1.232  13.663  20.486  0.00  0.00    +0.000 C 
BRANCH  15  16
ATOM     16  C   UNL     1       2.767  13.719  20.513  0.00  0.00    +0.000 C 
BRANCH  16  17
ATOM     17  C   UNL     1       3.278  14.792  21.434  0.00  0.00    +0.000 C 
ATOM     18  O   UNL     1       4.236  15.508  21.218  0.00  0.00    +0.000 OA
BRANCH  17  19
ATOM     19  O   UNL     1       2.533  14.896  22.562  0.00  0.00    +0.000 OA
ATOM     20  H   UNL     1       1.720  15.425  22.465  0.00  0.00    +0.000 HD
ENDBRANCH  17  19
ENDBRANCH  16  17
ENDBRANCH  15  16
ENDBRANCH  12  15
ENDBRANCH   1  12
BRANCH   1  21
ATOM     21  C   UNL     1       0.708  10.599  20.077  0.00  0.00    +0.000 C 
BRANCH  21  22
ATOM     22  C   UNL     1       1.231   9.271  19.532  0.00  0.00    +0.000 A 
ATOM     23  C   UNL     1       1.606   9.136  18.188  0.00  0.00    +0.000 A 
ATOM     24  C   UNL     1       2.322   8.007  17.765  0.00  0.00    +0.000 A 
ATOM     25  C   UNL     1       2.662   7.000  18.670  0.00  0.00    +0.000 A 
ATOM     26  C   UNL     1       2.171   7.074  19.969  0.00  0.00    +0.000 A 
ATOM     27  C   UNL     1       1.477   8.209  20.405  0.00  0.00    +0.000 A 
BRANCH  25  28
ATOM     28  O   UNL     1       3.401   5.973  18.170  0.00  0.00    +0.000 OA
BRANCH  28  29
ATOM     29  C   UNL     1       2.751   4.740  17.873  0.00  0.00    +0.000 C 
ATOM     30  F   UNL     1       1.449   4.849  17.532  0.00  0.00    +0.000 F 
ATOM     31  F   UNL     1       3.405   4.136  16.854  0.00  0.00    +0.000 F 
ATOM     32  F   UNL     1       2.827   3.927  18.952  0.00  0.00    +0.000 F 
ENDBRANCH  28  29
ENDBRANCH  25  28
ENDBRANCH  21  22
ENDBRANCH   1  21
TORSDOF 10
ENDMDL
MODEL 6
REMARK VINA RESULT:      -7.2      5.561      8.314
REMARK  Name = 
REMARK  11 active torsions:
REMARK  status: ('A' for Active; 'I' for Inactive)
REMARK    1  A    between atoms: C_1  and  C_2
REMARK    2  A    between atoms: C_3  and  N_4
REMARK    3  A    between atoms: N_4  and  C_5
REMARK    4  A    between atoms: N_4  and  S_17
REMARK    5  A    between atoms: C_5  and  C_6
REMARK    6  A    between atoms: C_9  and  O_10
REMARK    7  A    between atoms: O_10  and  C_11
REMARK    8  A    between atoms: S_17  and  C_20
REMARK    9  A    between atoms: C_20  and  C_21
REMARK   10  A    between atoms: C_21  and  C_22
REMARK   11  A    between atoms: C_22  and  O_24
REMARK                            x       y       z     vdW  Elec       q    Type
REMARK                         _______ _______ _______ _____ _____    ______ ____
ROOT
ATOM      1  N   UNL     1      -0.181  11.406  19.574  0.00  0.00    +0.000 N 
ENDROOT
BRANCH   1   4
ATOM      2  C   UNL     1      -1.227  11.083  22.436  0.00  0.00    +0.000 C 
ATOM      3  C   UNL     1      -0.652  12.327  21.831  0.00  0.00    +0.000 A 
ATOM      4  C   UNL     1      -0.114  12.452  20.564  0.00  0.00    +0.000 A 
ATOM      5  S   UNL     1       0.624  13.967  20.330  0.00  0.00    +0.000 S 
ATOM      6  C   UNL     1      -0.109  14.617  21.748  0.00  0.00    +0.000 A 
ATOM      7  C   UNL     1      -0.163  15.968  22.152  0.00  0.00    +0.000 A 
ATOM      8  C   UNL     1      -0.758  16.287  23.377  0.00  0.00    +0.000 A 
ATOM      9  C   UNL     1      -1.242  15.284  24.206  0.00  0.00    +0.000 A 
ATOM     10  C   UNL     1      -1.194  13.952  23.791  0.00  0.00    +0.000 A 
ATOM     11  C   UNL     1      -0.665  13.600  22.526  0.00  0.00    +0.000 A 
ENDBRANCH   1   4
BRANCH   1  12
ATOM     12  S   UNL     1      -1.497  11.579  18.480  0.00  0.00    +0.000 S 
ATOM     13  O   UNL     1      -2.723  11.610  19.253  0.00  0.00    +0.000 OA
ATOM     14  O   UNL     1      -1.180  12.672  17.584  0.00  0.00    +0.000 OA
BRANCH  12  15
ATOM     15  C   UNL     1      -1.592  10.084  17.469  0.00  0.00    +0.000 C 
BRANCH  15  16
ATOM     16  C   UNL     1      -3.037   9.930  16.971  0.00  0.00    +0.000 C 
BRANCH  16  17
ATOM     17  C   UNL     1      -3.207  10.436  15.565  0.00  0.00    +0.000 C 
ATOM     18  O   UNL     1      -3.891   9.912  14.707  0.00  0.00    +0.000 OA
BRANCH  17  19
ATOM     19  O   UNL     1      -2.510  11.577  15.343  0.00  0.00    +0.000 OA
ATOM     20  H   UNL     1      -1.600  11.572  15.693  0.00  0.00    +0.000 HD
ENDBRANCH  17  19
ENDBRANCH  16  17
ENDBRANCH  15  16
ENDBRANCH  12  15
ENDBRANCH   1  12
BRANCH   1  21
ATOM     21  C   UNL     1       1.048  10.861  18.943  0.00  0.00    +0.000 C 
BRANCH  21  22
ATOM     22  C   UNL     1       1.365   9.383  19.159  0.00  0.00    +0.000 A 
ATOM     23  C   UNL     1       1.985   8.621  18.158  0.00  0.00    +0.000 A 
ATOM     24  C   UNL     1       2.505   7.353  18.456  0.00  0.00    +0.000 A 
ATOM     25  C   UNL     1       2.403   6.828  19.746  0.00  0.00    +0.000 A 
ATOM     26  C   UNL     1       1.669   7.528  20.697  0.00  0.00    +0.000 A 
ATOM     27  C   UNL     1       1.170   8.804  20.415  0.00  0.00    +0.000 A 
BRANCH  25  28
ATOM     28  O   UNL     1       2.983   5.613  19.942  0.00  0.00    +0.000 OA
BRANCH  28  29
ATOM     29  C   UNL     1       2.148   4.475  20.134  0.00  0.00    +0.000 C 
ATOM     30  F   UNL     1       0.983   4.502  19.451  0.00  0.00    +0.000 F 
ATOM     31  F   UNL     1       2.829   3.366  19.762  0.00  0.00    +0.000 F 
ATOM     32  F   UNL     1       1.852   4.358  21.448  0.00  0.00    +0.000 F 
ENDBRANCH  28  29
ENDBRANCH  25  28
ENDBRANCH  21  22
ENDBRANCH   1  21
TORSDOF 10
ENDMDL
MODEL 7
REMARK VINA RESULT:      -7.2      3.835      6.404
REMARK  Name = 
REMARK  11 active torsions:
REMARK  status: ('A' for Active; 'I' for Inactive)
REMARK    1  A    between atoms: C_1  and  C_2
REMARK    2  A    between atoms: C_3  and  N_4
REMARK    3  A    between atoms: N_4  and  C_5
REMARK    4  A    between atoms: N_4  and  S_17
REMARK    5  A    between atoms: C_5  and  C_6
REMARK    6  A    between atoms: C_9  and  O_10
REMARK    7  A    between atoms: O_10  and  C_11
REMARK    8  A    between atoms: S_17  and  C_20
REMARK    9  A    between atoms: C_20  and  C_21
REMARK   10  A    between atoms: C_21  and  C_22
REMARK   11  A    between atoms: C_22  and  O_24
REMARK                            x       y       z     vdW  Elec       q    Type
REMARK                         _______ _______ _______ _____ _____    ______ ____
ROOT
ATOM      1  N   UNL     1       3.623   4.550  18.999  0.00  0.00    +0.000 N 
ENDROOT
BRANCH   1   4
ATOM      2  C   UNL     1       2.712   3.532  16.256  0.00  0.00    +0.000 C 
ATOM      3  C   UNL     1       4.003   4.225  16.567  0.00  0.00    +0.000 A 
ATOM      4  C   UNL     1       4.381   4.748  17.788  0.00  0.00    +0.000 A 
ATOM      5  S   UNL     1       5.827   5.639  17.682  0.00  0.00    +0.000 S 
ATOM      6  C   UNL     1       6.179   5.008  16.117  0.00  0.00    +0.000 A 
ATOM      7  C   UNL     1       7.387   5.107  15.395  0.00  0.00    +0.000 A 
ATOM      8  C   UNL     1       7.453   4.573  14.104  0.00  0.00    +0.000 A 
ATOM      9  C   UNL     1       6.330   4.001  13.522  0.00  0.00    +0.000 A 
ATOM     10  C   UNL     1       5.142   3.898  14.249  0.00  0.00    +0.000 A 
ATOM     11  C   UNL     1       5.062   4.362  15.584  0.00  0.00    +0.000 A 
ENDBRANCH   1   4
BRANCH   1  12
ATOM     12  S   UNL     1       3.896   3.022  19.739  0.00  0.00    +0.000 S 
ATOM     13  O   UNL     1       3.320   2.001  18.886  0.00  0.00    +0.000 OA
ATOM     14  O   UNL     1       5.298   2.954  20.100  0.00  0.00    +0.000 OA
BRANCH  12  15
ATOM     15  C   UNL     1       2.955   2.963  21.280  0.00  0.00    +0.000 C 
BRANCH  15  16
ATOM     16  C   UNL     1       1.606   2.285  20.996  0.00  0.00    +0.000 C 
BRANCH  16  17
ATOM     17  C   UNL     1       0.732   3.119  20.100  0.00  0.00    +0.000 C 
ATOM     18  O   UNL     1       0.419   4.276  20.302  0.00  0.00    +0.000 OA
BRANCH  17  19
ATOM     19  O   UNL     1       0.323   2.436  19.002  0.00  0.00    +0.000 OA
ATOM     20  H   UNL     1      -0.619   2.550  18.780  0.00  0.00    +0.000 HD
ENDBRANCH  17  19
ENDBRANCH  16  17
ENDBRANCH  15  16
ENDBRANCH  12  15
ENDBRANCH   1  12
BRANCH   1  21
ATOM     21  C   UNL     1       3.422   5.653  19.972  0.00  0.00    +0.000 C 
BRANCH  21  22
ATOM     22  C   UNL     1       2.538   6.825  19.550  0.00  0.00    +0.000 A 
ATOM     23  C   UNL     1       1.783   7.540  20.491  0.00  0.00    +0.000 A 
ATOM     24  C   UNL     1       1.190   8.761  20.139  0.00  0.00    +0.000 A 
ATOM     25  C   UNL     1       1.331   9.274  18.848  0.00  0.00    +0.000 A 
ATOM     26  C   UNL     1       1.963   8.498  17.884  0.00  0.00    +0.000 A 
ATOM     27  C   UNL     1       2.580   7.290  18.233  0.00  0.00    +0.000 A 
BRANCH  25  28
ATOM     28  O   UNL     1       0.759  10.489  18.624  0.00  0.00    +0.000 OA
BRANCH  28  29
ATOM     29  C   UNL     1      -0.640  10.552  18.364  0.00  0.00    +0.000 C 
ATOM     30  F   UNL     1      -1.430  10.244  19.415  0.00  0.00    +0.000 F 
ATOM     31  F   UNL     1      -0.951  11.803  17.953  0.00  0.00    +0.000 F 
ATOM     32  F   UNL     1      -0.943   9.699  17.358  0.00  0.00    +0.000 F 
ENDBRANCH  28  29
ENDBRANCH  25  28
ENDBRANCH  21  22
ENDBRANCH   1  21
TORSDOF 10
ENDMDL
MODEL 8
REMARK VINA RESULT:      -7.2      6.037      9.000
REMARK  Name = 
REMARK  11 active torsions:
REMARK  status: ('A' for Active; 'I' for Inactive)
REMARK    1  A    between atoms: C_1  and  C_2
REMARK    2  A    between atoms: C_3  and  N_4
REMARK    3  A    between atoms: N_4  and  C_5
REMARK    4  A    between atoms: N_4  and  S_17
REMARK    5  A    between atoms: C_5  and  C_6
REMARK    6  A    between atoms: C_9  and  O_10
REMARK    7  A    between atoms: O_10  and  C_11
REMARK    8  A    between atoms: S_17  and  C_20
REMARK    9  A    between atoms: C_20  and  C_21
REMARK   10  A    between atoms: C_21  and  C_22
REMARK   11  A    between atoms: C_22  and  O_24
REMARK                            x       y       z     vdW  Elec       q    Type
REMARK                         _______ _______ _______ _____ _____    ______ ____
ROOT
ATOM      1  N   UNL     1       0.038  11.418  19.479  0.00  0.00    +0.000 N 
ENDROOT
BRANCH   1   4
ATOM      2  C   UNL     1      -1.765  10.207  17.319  0.00  0.00    +0.000 C 
ATOM      3  C   UNL     1      -2.200  11.072  18.461  0.00  0.00    +0.000 A 
ATOM      4  C   UNL     1      -1.397  11.557  19.476  0.00  0.00    +0.000 A 
ATOM      5  S   UNL     1      -2.302  12.325  20.696  0.00  0.00    +0.000 S 
ATOM      6  C   UNL     1      -3.713  12.380  19.706  0.00  0.00    +0.000 A 
ATOM      7  C   UNL     1      -4.904  13.100  19.937  0.00  0.00    +0.000 A 
ATOM      8  C   UNL     1      -5.965  12.965  19.036  0.00  0.00    +0.000 A 
ATOM      9  C   UNL     1      -5.865  12.095  17.959  0.00  0.00    +0.000 A 
ATOM     10  C   UNL     1      -4.678  11.396  17.732  0.00  0.00    +0.000 A 
ATOM     11  C   UNL     1      -3.559  11.564  18.584  0.00  0.00    +0.000 A 
ENDBRANCH   1   4
BRANCH   1  12
ATOM     12  S   UNL     1       0.875  12.910  19.311  0.00  0.00    +0.000 S 
ATOM     13  O   UNL     1       1.027  13.491  20.630  0.00  0.00    +0.000 OA
ATOM     14  O   UNL     1       2.044  12.668  18.490  0.00  0.00    +0.000 OA
BRANCH  12  15
ATOM     15  C   UNL     1      -0.183  14.051  18.392  0.00  0.00    +0.000 C 
BRANCH  15  16
ATOM     16  C   UNL     1      -0.385  15.314  19.243  0.00  0.00    +0.000 C 
BRANCH  16  17
ATOM     17  C   UNL     1      -0.028  16.566  18.490  0.00  0.00    +0.000 C 
ATOM     18  O   UNL     1      -0.822  17.318  17.959  0.00  0.00    +0.000 OA
BRANCH  17  19
ATOM     19  O   UNL     1       1.309  16.789  18.471  0.00  0.00    +0.000 OA
ATOM     20  H   UNL     1       1.622  17.439  19.126  0.00  0.00    +0.000 HD
ENDBRANCH  17  19
ENDBRANCH  16  17
ENDBRANCH  15  16
ENDBRANCH  12  15
ENDBRANCH   1  12
BRANCH   1  21
ATOM     21  C   UNL     1       0.717  10.456  20.385  0.00  0.00    +0.000 C 
BRANCH  21  22
ATOM     22  C   UNL     1       1.226   9.148  19.783  0.00  0.00    +0.000 A 
ATOM     23  C   UNL     1       1.614   9.071  18.438  0.00  0.00    +0.000 A 
ATOM     24  C   UNL     1       2.319   7.952  17.969  0.00  0.00    +0.000 A 
ATOM     25  C   UNL     1       2.633   6.898  18.829  0.00  0.00    +0.000 A 
ATOM     26  C   UNL     1       2.129   6.918  20.125  0.00  0.00    +0.000 A 
ATOM     27  C   UNL     1       1.447   8.041  20.607  0.00  0.00    +0.000 A 
BRANCH  25  28
ATOM     28  O   UNL     1       3.362   5.885  18.288  0.00  0.00    +0.000 OA
BRANCH  28  29
ATOM     29  C   UNL     1       2.697   4.679  17.920  0.00  0.00    +0.000 C 
ATOM     30  F   UNL     1       1.422   4.836  17.504  0.00  0.00    +0.000 F 
ATOM     31  F   UNL     1       3.395   4.081  16.928  0.00  0.00    +0.000 F 
ATOM     32  F   UNL     1       2.682   3.840  18.981  0.00  0.00    +0.000 F 
ENDBRANCH  28  29
ENDBRANCH  25  28
ENDBRANCH  21  22
ENDBRANCH   1  21
TORSDOF 10
ENDMDL
MODEL 9
REMARK VINA RESULT:      -7.1      3.944      6.267
REMARK  Name = 
REMARK  11 active torsions:
REMARK  status: ('A' for Active; 'I' for Inactive)
REMARK    1  A    between atoms: C_1  and  C_2
REMARK    2  A    between atoms: C_3  and  N_4
REMARK    3  A    between atoms: N_4  and  C_5
REMARK    4  A    between atoms: N_4  and  S_17
REMARK    5  A    between atoms: C_5  and  C_6
REMARK    6  A    between atoms: C_9  and  O_10
REMARK    7  A    between atoms: O_10  and  C_11
REMARK    8  A    between atoms: S_17  and  C_20
REMARK    9  A    between atoms: C_20  and  C_21
REMARK   10  A    between atoms: C_21  and  C_22
REMARK   11  A    between atoms: C_22  and  O_24
REMARK                            x       y       z     vdW  Elec       q    Type
REMARK                         _______ _______ _______ _____ _____    ______ ____
ROOT
ATOM      1  N   UNL     1       2.364   4.858  19.953  0.00  0.00    +0.000 N 
ENDROOT
BRANCH   1   4
ATOM      2  C   UNL     1       1.937   4.218  16.988  0.00  0.00    +0.000 C 
ATOM      3  C   UNL     1       3.230   4.598  17.641  0.00  0.00    +0.000 A 
ATOM      4  C   UNL     1       3.408   4.957  18.963  0.00  0.00    +0.000 A 
ATOM      5  S   UNL     1       4.985   5.521  19.266  0.00  0.00    +0.000 S 
ATOM      6  C   UNL     1       5.561   4.918  17.757  0.00  0.00    +0.000 A 
ATOM      7  C   UNL     1       6.899   4.796  17.329  0.00  0.00    +0.000 A 
ATOM      8  C   UNL     1       7.159   4.335  16.034  0.00  0.00    +0.000 A 
ATOM      9  C   UNL     1       6.113   4.052  15.166  0.00  0.00    +0.000 A 
ATOM     10  C   UNL     1       4.792   4.166  15.603  0.00  0.00    +0.000 A 
ATOM     11  C   UNL     1       4.495   4.559  16.931  0.00  0.00    +0.000 A 
ENDBRANCH   1   4
BRANCH   1  12
ATOM     12  S   UNL     1       2.187   3.279  20.611  0.00  0.00    +0.000 S 
ATOM     13  O   UNL     1       2.698   3.298  21.968  0.00  0.00    +0.000 OA
ATOM     14  O   UNL     1       0.828   2.848  20.358  0.00  0.00    +0.000 OA
BRANCH  12  15
ATOM     15  C   UNL     1       3.271   2.161  19.695  0.00  0.00    +0.000 C 
BRANCH  15  16
ATOM     16  C   UNL     1       4.707   2.353  20.207  0.00  0.00    +0.000 C 
BRANCH  16  17
ATOM     17  C   UNL     1       5.252   1.103  20.842  0.00  0.00    +0.000 C 
ATOM     18  O   UNL     1       5.522   0.973  22.020  0.00  0.00    +0.000 OA
BRANCH  17  19
ATOM     19  O   UNL     1       5.407   0.098  19.945  0.00  0.00    +0.000 OA
ATOM     20  H   UNL     1       4.942   0.233  19.099  0.00  0.00    +0.000 HD
ENDBRANCH  17  19
ENDBRANCH  16  17
ENDBRANCH  15  16
ENDBRANCH  12  15
ENDBRANCH   1  12
BRANCH   1  21
ATOM     21  C   UNL     1       2.134   5.942  20.942  0.00  0.00    +0.000 C 
BRANCH  21  22
ATOM     22  C   UNL     1       1.819   7.338  20.409  0.00  0.00    +0.000 A 
ATOM     23  C   UNL     1       2.166   7.711  19.102  0.00  0.00    +0.000 A 
ATOM     24  C   UNL     1       1.646   8.887  18.541  0.00  0.00    +0.000 A 
ATOM     25  C   UNL     1       0.787   9.705  19.277  0.00  0.00    +0.000 A 
ATOM     26  C   UNL     1       0.555   9.403  20.614  0.00  0.00    +0.000 A 
ATOM     27  C   UNL     1       1.050   8.219  21.173  0.00  0.00    +0.000 A 
BRANCH  25  28
ATOM     28  O   UNL     1       0.297  10.794  18.624  0.00  0.00    +0.000 OA
BRANCH  28  29
ATOM     29  C   UNL     1      -1.032  10.749  18.112  0.00  0.00    +0.000 C 
ATOM     30  F   UNL     1      -1.417  11.849  17.430  0.00  0.00    +0.000 F 
ATOM     31  F   UNL     1      -1.146   9.681  17.289  0.00  0.00    +0.000 F 
ATOM     32  F   UNL     1      -1.897  10.577  19.137  0.00  0.00    +0.000 F 
ENDBRANCH  28  29
ENDBRANCH  25  28
ENDBRANCH  21  22
ENDBRANCH   1  21
TORSDOF 10
ENDMDL
