MODEL 1
REMARK VINA RESULT:      -7.9      0.000      0.000
REMARK  Name = 
REMARK  8 active torsions:
REMARK  status: ('A' for Active; 'I' for Inactive)
REMARK    1  A    between atoms: O_1  and  C_2
REMARK    2  A    between atoms: C_2  and  C_3
REMARK    3  A    between atoms: C_3  and  C_4
REMARK    4  A    between atoms: C_4  and  C_5
REMARK    5  A    between atoms: C_5  and  C_6
REMARK    6  A    between atoms: C_6  and  C_7
REMARK    7  A    between atoms: C_10  and  C_11
REMARK    8  A    between atoms: C_13  and  C_14
REMARK                            x       y       z     vdW  Elec       q    Type
REMARK                         _______ _______ _______ _____ _____    ______ ____
ROOT
ATOM      1  C   UNL     1       3.434   6.128  18.292  0.00  0.00    +0.000 A 
ATOM      2  N   UNL     1       2.865   7.303  18.433  0.00  0.00    +0.000 NA
ATOM      3  C   UNL     1       2.225   7.182  19.648  0.00  0.00    +0.000 A 
ATOM      4  N   UNL     1       2.397   5.989  20.240  0.00  0.00    +0.000 NA
ATOM      5  O   UNL     1       3.196   5.290  19.342  0.00  0.00    +0.000 OA
ENDROOT
BRANCH   3   6
ATOM      6  C   UNL     1       1.425   8.263  20.212  0.00  0.00    +0.000 A 
ATOM      7  C   UNL     1       1.151   9.419  19.460  0.00  0.00    +0.000 A 
ATOM      8  C   UNL     1       0.390  10.472  19.989  0.00  0.00    +0.000 A 
ATOM      9  C   UNL     1      -0.103  10.354  21.295  0.00  0.00    +0.000 A 
ATOM     10  N   UNL     1      -0.868  11.226  22.029  0.00  0.00    +0.000 NA
ATOM     11  C   UNL     1      -1.054  10.632  23.185  0.00  0.00    +0.000 A 
ATOM     12  N   UNL     1      -0.433   9.416  23.235  0.00  0.00    +0.000 N 
ATOM     13  C   UNL     1       0.178   9.207  22.027  0.00  0.00    +0.000 A 
ATOM     14  C   UNL     1       0.935   8.143  21.526  0.00  0.00    +0.000 A 
ATOM     15  H   UNL     1      -0.429   8.781  24.021  0.00  0.00    +0.000 HD
ENDBRANCH   3   6
BRANCH   1  19
ATOM     16  C   UNL     1       5.835   4.631  15.084  0.00  0.00    +0.000 A 
ATOM     17  C   UNL     1       5.700   6.009  15.297  0.00  0.00    +0.000 A 
ATOM     18  C   UNL     1       4.921   6.491  16.350  0.00  0.00    +0.000 A 
ATOM     19  C   UNL     1       4.247   5.607  17.203  0.00  0.00    +0.000 A 
ATOM     20  C   UNL     1       4.375   4.230  16.978  0.00  0.00    +0.000 A 
ATOM     21  C   UNL     1       5.159   3.745  15.930  0.00  0.00    +0.000 A 
BRANCH  16  22
ATOM     22  C   UNL     1       6.685   4.101  13.957  0.00  0.00    +0.000 C 
BRANCH  22  23
ATOM     23  C   UNL     1       5.840   3.568  12.799  0.00  0.00    +0.000 C 
BRANCH  23  24
ATOM     24  C   UNL     1       6.693   3.347  11.551  0.00  0.00    +0.000 C 
BRANCH  24  25
ATOM     25  C   UNL     1       7.128   1.889  11.443  0.00  0.00    +0.000 C 
BRANCH  25  26
ATOM     26  C   UNL     1       5.972   0.989  11.036  0.00  0.00    +0.000 C 
BRANCH  26  27
ATOM     27  O   UNL     1       6.339  -0.358  11.285  0.00  0.00    +0.000 OA
ATOM     28  H   UNL     1       6.698  -0.713  10.453  0.00  0.00    +0.000 HD
ENDBRANCH  26  27
ENDBRANCH  25  26
ENDBRANCH  24  25
ENDBRANCH  23  24
ENDBRANCH  22  23
ENDBRANCH  16  22
ENDBRANCH   1  19
TORSDOF 8
ENDMDL
MODEL 2
REMARK VINA RESULT:      -7.9      1.013      1.604
REMARK  Name = 
REMARK  8 active torsions:
REMARK  status: ('A' for Active; 'I' for Inactive)
REMARK    1  A    between atoms: O_1  and  C_2
REMARK    2  A    between atoms: C_2  and  C_3
REMARK    3  A    between atoms: C_3  and  C_4
REMARK    4  A    between atoms: C_4  and  C_5
REMARK    5  A    between atoms: C_5  and  C_6
REMARK    6  A    between atoms: C_6  and  C_7
REMARK    7  A    between atoms: C_10  and  C_11
REMARK    8  A    between atoms: C_13  and  C_14
REMARK                            x       y       z     vdW  Elec       q    Type
REMARK                         _______ _______ _______ _____ _____    ______ ____
ROOT
ATOM      1  C   UNL     1       2.902   6.277  18.793  0.00  0.00    +0.000 A 
ATOM      2  N   UNL     1       2.533   7.527  18.954  0.00  0.00    +0.000 NA
ATOM      3  C   UNL     1       1.775   7.470  20.104  0.00  0.00    +0.000 A 
ATOM      4  N   UNL     1       1.685   6.241  20.639  0.00  0.00    +0.000 NA
ATOM      5  O   UNL     1       2.429   5.451  19.770  0.00  0.00    +0.000 OA
ENDROOT
BRANCH   3   6
ATOM      6  C   UNL     1       1.126   8.650  20.662  0.00  0.00    +0.000 A 
ATOM      7  C   UNL     1       0.771   8.696  22.022  0.00  0.00    +0.000 A 
ATOM      8  C   UNL     1       0.140   9.820  22.575  0.00  0.00    +0.000 A 
ATOM      9  C   UNL     1      -0.134  10.914  21.744  0.00  0.00    +0.000 A 
ATOM     10  N   UNL     1      -0.727  12.116  22.038  0.00  0.00    +0.000 NA
ATOM     11  C   UNL     1      -0.737  12.781  20.906  0.00  0.00    +0.000 A 
ATOM     12  N   UNL     1      -0.185  12.056  19.888  0.00  0.00    +0.000 N 
ATOM     13  C   UNL     1       0.221  10.853  20.402  0.00  0.00    +0.000 A 
ATOM     14  C   UNL     1       0.850   9.746  19.823  0.00  0.00    +0.000 A 
ATOM     15  H   UNL     1      -0.090  12.355  18.928  0.00  0.00    +0.000 HD
ENDBRANCH   3   6
BRANCH   1  19
ATOM     16  C   UNL     1       5.284   4.516  15.707  0.00  0.00    +0.000 A 
ATOM     17  C   UNL     1       5.279   5.902  15.907  0.00  0.00    +0.000 A 
ATOM     18  C   UNL     1       4.504   6.470  16.920  0.00  0.00    +0.000 A 
ATOM     19  C   UNL     1       3.707   5.666  17.746  0.00  0.00    +0.000 A 
ATOM     20  C   UNL     1       3.706   4.281  17.534  0.00  0.00    +0.000 A 
ATOM     21  C   UNL     1       4.485   3.710  16.525  0.00  0.00    +0.000 A 
BRANCH  16  22
ATOM     22  C   UNL     1       6.127   3.893  14.623  0.00  0.00    +0.000 C 
BRANCH  22  23
ATOM     23  C   UNL     1       5.534   4.116  13.232  0.00  0.00    +0.000 C 
BRANCH  23  24
ATOM     24  C   UNL     1       6.354   3.396  12.163  0.00  0.00    +0.000 C 
BRANCH  24  25
ATOM     25  C   UNL     1       5.607   2.173  11.640  0.00  0.00    +0.000 C 
BRANCH  25  26
ATOM     26  C   UNL     1       6.561   1.144  11.054  0.00  0.00    +0.000 C 
BRANCH  26  27
ATOM     27  O   UNL     1       6.114  -0.150  11.427  0.00  0.00    +0.000 OA
ATOM     28  H   UNL     1       5.885  -0.111  12.372  0.00  0.00    +0.000 HD
ENDBRANCH  26  27
ENDBRANCH  25  26
ENDBRANCH  24  25
ENDBRANCH  23  24
ENDBRANCH  22  23
ENDBRANCH  16  22
ENDBRANCH   1  19
TORSDOF 8
ENDMDL
MODEL 3
REMARK VINA RESULT:      -7.9      1.143      1.963
REMARK  Name = 
REMARK  8 active torsions:
REMARK  status: ('A' for Active; 'I' for Inactive)
REMARK    1  A    between atoms: O_1  and  C_2
REMARK    2  A    between atoms: C_2  and  C_3
REMARK    3  A    between atoms: C_3  and  C_4
REMARK    4  A    between atoms: C_4  and  C_5
REMARK    5  A    between atoms: C_5  and  C_6
REMARK    6  A    between atoms: C_6  and  C_7
REMARK    7  A    between atoms: C_10  and  C_11
REMARK    8  A    between atoms: C_13  and  C_14
REMARK                            x       y       z     vdW  Elec       q    Type
REMARK                         _______ _______ _______ _____ _____    ______ ____
ROOT
ATOM      1  C   UNL     1       2.848   6.526  18.962  0.00  0.00    +0.000 A 
ATOM      2  N   UNL     1       2.401   7.750  19.129  0.00  0.00    +0.000 NA
ATOM      3  C   UNL     1       1.655   7.641  20.284  0.00  0.00    +0.000 A 
ATOM      4  N   UNL     1       1.647   6.408  20.815  0.00  0.00    +0.000 NA
ATOM      5  O   UNL     1       2.435   5.669  19.939  0.00  0.00    +0.000 OA
ENDROOT
BRANCH   3   6
ATOM      6  C   UNL     1       0.936   8.776  20.850  0.00  0.00    +0.000 A 
ATOM      7  C   UNL     1       0.696   8.853  22.234  0.00  0.00    +0.000 A 
ATOM      8  C   UNL     1      -0.001   9.933  22.796  0.00  0.00    +0.000 A 
ATOM      9  C   UNL     1      -0.459  10.950  21.949  0.00  0.00    +0.000 A 
ATOM     10  N   UNL     1      -1.148  12.099  22.247  0.00  0.00    +0.000 NA
ATOM     11  C   UNL     1      -1.326  12.703  21.094  0.00  0.00    +0.000 A 
ATOM     12  N   UNL     1      -0.790  11.988  20.060  0.00  0.00    +0.000 N 
ATOM     13  C   UNL     1      -0.216  10.859  20.583  0.00  0.00    +0.000 A 
ATOM     14  C   UNL     1       0.474   9.794  19.996  0.00  0.00    +0.000 A 
ATOM     15  H   UNL     1      -0.810  12.246  19.084  0.00  0.00    +0.000 HD
ENDBRANCH   3   6
BRANCH   1  19
ATOM     16  C   UNL     1       5.291   4.860  15.872  0.00  0.00    +0.000 A 
ATOM     17  C   UNL     1       4.532   4.034  16.710  0.00  0.00    +0.000 A 
ATOM     18  C   UNL     1       3.732   4.584  17.713  0.00  0.00    +0.000 A 
ATOM     19  C   UNL     1       3.684   5.971  17.908  0.00  0.00    +0.000 A 
ATOM     20  C   UNL     1       4.455   6.792  17.075  0.00  0.00    +0.000 A 
ATOM     21  C   UNL     1       5.252   6.245  16.068  0.00  0.00    +0.000 A 
BRANCH  16  22
ATOM     22  C   UNL     1       6.150   4.275  14.779  0.00  0.00    +0.000 C 
BRANCH  22  23
ATOM     23  C   UNL     1       5.386   4.126  13.463  0.00  0.00    +0.000 C 
BRANCH  23  24
ATOM     24  C   UNL     1       6.213   3.361  12.430  0.00  0.00    +0.000 C 
BRANCH  24  25
ATOM     25  C   UNL     1       5.325   2.444  11.597  0.00  0.00    +0.000 C 
BRANCH  25  26
ATOM     26  C   UNL     1       6.088   1.226  11.101  0.00  0.00    +0.000 C 
BRANCH  26  27
ATOM     27  O   UNL     1       7.478   1.471  11.251  0.00  0.00    +0.000 OA
ATOM     28  H   UNL     1       7.568   2.268  11.802  0.00  0.00    +0.000 HD
ENDBRANCH  26  27
ENDBRANCH  25  26
ENDBRANCH  24  25
ENDBRANCH  23  24
ENDBRANCH  22  23
ENDBRANCH  16  22
ENDBRANCH   1  19
TORSDOF 8
ENDMDL
MODEL 4
REMARK VINA RESULT:      -7.8      1.509      2.341
REMARK  Name = 
REMARK  8 active torsions:
REMARK  status: ('A' for Active; 'I' for Inactive)
REMARK    1  A    between atoms: O_1  and  C_2
REMARK    2  A    between atoms: C_2  and  C_3
REMARK    3  A    between atoms: C_3  and  C_4
REMARK    4  A    between atoms: C_4  and  C_5
REMARK    5  A    between atoms: C_5  and  C_6
REMARK    6  A    between atoms: C_6  and  C_7
REMARK    7  A    between atoms: C_10  and  C_11
REMARK    8  A    between atoms: C_13  and  C_14
REMARK                            x       y       z     vdW  Elec       q    Type
REMARK                         _______ _______ _______ _____ _____    ______ ____
ROOT
ATOM      1  C   UNL     1       2.589   7.754  18.136  0.00  0.00    +0.000 A 
ATOM      2  N   UNL     1       2.061   7.850  19.334  0.00  0.00    +0.000 NA
ATOM      3  C   UNL     1       1.405   9.060  19.277  0.00  0.00    +0.000 A 
ATOM      4  N   UNL     1       1.512   9.685  18.093  0.00  0.00    +0.000 NA
ATOM      5  O   UNL     1       2.297   8.821  17.337  0.00  0.00    +0.000 OA
ENDROOT
BRANCH   3   6
ATOM      6  C   UNL     1       0.678   9.602  20.420  0.00  0.00    +0.000 A 
ATOM      7  C   UNL     1       0.788   9.003  21.688  0.00  0.00    +0.000 A 
ATOM      8  C   UNL     1       0.092   9.505  22.796  0.00  0.00    +0.000 A 
ATOM      9  C   UNL     1      -0.725  10.630  22.623  0.00  0.00    +0.000 A 
ATOM     10  N   UNL     1      -1.494  11.309  23.536  0.00  0.00    +0.000 NA
ATOM     11  C   UNL     1      -2.054  12.284  22.857  0.00  0.00    +0.000 A 
ATOM     12  N   UNL     1      -1.689  12.259  21.541  0.00  0.00    +0.000 N 
ATOM     13  C   UNL     1      -0.826  11.210  21.364  0.00  0.00    +0.000 A 
ATOM     14  C   UNL     1      -0.144  10.730  20.241  0.00  0.00    +0.000 A 
ATOM     15  H   UNL     1      -1.998  12.901  20.825  0.00  0.00    +0.000 HD
ENDBRANCH   3   6
BRANCH   1  19
ATOM     16  C   UNL     1       5.070   4.712  16.436  0.00  0.00    +0.000 A 
ATOM     17  C   UNL     1       5.405   6.066  16.308  0.00  0.00    +0.000 A 
ATOM     18  C   UNL     1       4.594   7.054  16.871  0.00  0.00    +0.000 A 
ATOM     19  C   UNL     1       3.424   6.710  17.561  0.00  0.00    +0.000 A 
ATOM     20  C   UNL     1       3.086   5.355  17.675  0.00  0.00    +0.000 A 
ATOM     21  C   UNL     1       3.898   4.366  17.119  0.00  0.00    +0.000 A 
BRANCH  16  22
ATOM     22  C   UNL     1       5.945   3.638  15.842  0.00  0.00    +0.000 C 
BRANCH  22  23
ATOM     23  C   UNL     1       6.459   4.016  14.452  0.00  0.00    +0.000 C 
BRANCH  23  24
ATOM     24  C   UNL     1       5.312   4.112  13.448  0.00  0.00    +0.000 C 
BRANCH  24  25
ATOM     25  C   UNL     1       5.511   3.125  12.302  0.00  0.00    +0.000 C 
BRANCH  25  26
ATOM     26  C   UNL     1       6.926   3.186  11.751  0.00  0.00    +0.000 C 
BRANCH  26  27
ATOM     27  O   UNL     1       7.325   1.875  11.384  0.00  0.00    +0.000 OA
ATOM     28  H   UNL     1       6.736   1.590  10.663  0.00  0.00    +0.000 HD
ENDBRANCH  26  27
ENDBRANCH  25  26
ENDBRANCH  24  25
ENDBRANCH  23  24
ENDBRANCH  22  23
ENDBRANCH  16  22
ENDBRANCH   1  19
TORSDOF 8
ENDMDL
MODEL 5
REMARK VINA RESULT:      -7.8      1.668      2.871
REMARK  Name = 
REMARK  8 active torsions:
REMARK  status: ('A' for Active; 'I' for Inactive)
REMARK    1  A    between atoms: O_1  and  C_2
REMARK    2  A    between atoms: C_2  and  C_3
REMARK    3  A    between atoms: C_3  and  C_4
REMARK    4  A    between atoms: C_4  and  C_5
REMARK    5  A    between atoms: C_5  and  C_6
REMARK    6  A    between atoms: C_6  and  C_7
REMARK    7  A    between atoms: C_10  and  C_11
REMARK    8  A    between atoms: C_13  and  C_14
REMARK                            x       y       z     vdW  Elec       q    Type
REMARK                         _______ _______ _______ _____ _____    ______ ____
ROOT
ATOM      1  C   UNL     1       2.307   8.053  18.341  0.00  0.00    +0.000 A 
ATOM      2  N   UNL     1       1.747   8.176  19.523  0.00  0.00    +0.000 NA
ATOM      3  C   UNL     1       1.074   9.374  19.412  0.00  0.00    +0.000 A 
ATOM      4  N   UNL     1       1.202   9.964  18.213  0.00  0.00    +0.000 NA
ATOM      5  O   UNL     1       2.020   9.091  17.504  0.00  0.00    +0.000 OA
ENDROOT
BRANCH   3   6
ATOM      6  C   UNL     1       0.310   9.937  20.519  0.00  0.00    +0.000 A 
ATOM      7  C   UNL     1       0.260   9.282  21.762  0.00  0.00    +0.000 A 
ATOM      8  C   UNL     1      -0.476   9.805  22.835  0.00  0.00    +0.000 A 
ATOM      9  C   UNL     1      -1.169  11.009  22.651  0.00  0.00    +0.000 A 
ATOM     10  N   UNL     1      -1.943  11.722  23.532  0.00  0.00    +0.000 NA
ATOM     11  C   UNL     1      -2.354  12.771  22.858  0.00  0.00    +0.000 A 
ATOM     12  N   UNL     1      -1.887  12.763  21.573  0.00  0.00    +0.000 N 
ATOM     13  C   UNL     1      -1.112  11.644  21.416  0.00  0.00    +0.000 A 
ATOM     14  C   UNL     1      -0.388  11.145  20.329  0.00  0.00    +0.000 A 
ATOM     15  H   UNL     1      -2.076  13.459  20.867  0.00  0.00    +0.000 HD
ENDBRANCH   3   6
BRANCH   1  19
ATOM     16  C   UNL     1       4.825   4.949  16.819  0.00  0.00    +0.000 A 
ATOM     17  C   UNL     1       3.602   4.645  17.429  0.00  0.00    +0.000 A 
ATOM     18  C   UNL     1       2.782   5.664  17.918  0.00  0.00    +0.000 A 
ATOM     19  C   UNL     1       3.173   7.006  17.820  0.00  0.00    +0.000 A 
ATOM     20  C   UNL     1       4.404   7.303  17.221  0.00  0.00    +0.000 A 
ATOM     21  C   UNL     1       5.223   6.287  16.725  0.00  0.00    +0.000 A 
BRANCH  16  22
ATOM     22  C   UNL     1       5.712   3.856  16.277  0.00  0.00    +0.000 C 
BRANCH  22  23
ATOM     23  C   UNL     1       6.979   4.412  15.624  0.00  0.00    +0.000 C 
BRANCH  23  24
ATOM     24  C   UNL     1       6.730   4.777  14.162  0.00  0.00    +0.000 C 
BRANCH  24  25
ATOM     25  C   UNL     1       5.845   3.735  13.486  0.00  0.00    +0.000 C 
BRANCH  25  26
ATOM     26  C   UNL     1       6.415   3.304  12.144  0.00  0.00    +0.000 C 
BRANCH  26  27
ATOM     27  O   UNL     1       5.867   2.040  11.805  0.00  0.00    +0.000 OA
ATOM     28  H   UNL     1       6.600   1.400  11.818  0.00  0.00    +0.000 HD
ENDBRANCH  26  27
ENDBRANCH  25  26
ENDBRANCH  24  25
ENDBRANCH  23  24
ENDBRANCH  22  23
ENDBRANCH  16  22
ENDBRANCH   1  19
TORSDOF 8
ENDMDL
MODEL 6
REMARK VINA RESULT:      -7.8      1.392      1.524
REMARK  Name = 
REMARK  8 active torsions:
REMARK  status: ('A' for Active; 'I' for Inactive)
REMARK    1  A    between atoms: O_1  and  C_2
REMARK    2  A    between atoms: C_2  and  C_3
REMARK    3  A    between atoms: C_3  and  C_4
REMARK    4  A    between atoms: C_4  and  C_5
REMARK    5  A    between atoms: C_5  and  C_6
REMARK    6  A    between atoms: C_6  and  C_7
REMARK    7  A    between atoms: C_10  and  C_11
REMARK    8  A    between atoms: C_13  and  C_14
REMARK                            x       y       z     vdW  Elec       q    Type
REMARK                         _______ _______ _______ _____ _____    ______ ____
ROOT
ATOM      1  C   UNL     1       3.449   6.237  18.214  0.00  0.00    +0.000 A 
ATOM      2  N   UNL     1       2.817   7.380  18.350  0.00  0.00    +0.000 NA
ATOM      3  C   UNL     1       2.256   7.265  19.604  0.00  0.00    +0.000 A 
ATOM      4  N   UNL     1       2.535   6.106  20.223  0.00  0.00    +0.000 NA
ATOM      5  O   UNL     1       3.324   5.425  19.303  0.00  0.00    +0.000 OA
ENDROOT
BRANCH   3   6
ATOM      6  C   UNL     1       1.425   8.316  20.179  0.00  0.00    +0.000 A 
ATOM      7  C   UNL     1       1.072   9.446  19.421  0.00  0.00    +0.000 A 
ATOM      8  C   UNL     1       0.279  10.469  19.960  0.00  0.00    +0.000 A 
ATOM      9  C   UNL     1      -0.167  10.349  21.282  0.00  0.00    +0.000 A 
ATOM     10  N   UNL     1      -0.948  11.195  22.028  0.00  0.00    +0.000 NA
ATOM     11  C   UNL     1      -1.070  10.610  23.198  0.00  0.00    +0.000 A 
ATOM     12  N   UNL     1      -0.391   9.425  23.244  0.00  0.00    +0.000 N 
ATOM     13  C   UNL     1       0.191   9.226  22.020  0.00  0.00    +0.000 A 
ATOM     14  C   UNL     1       0.982   8.192  21.509  0.00  0.00    +0.000 A 
ATOM     15  H   UNL     1      -0.332   8.803  24.037  0.00  0.00    +0.000 HD
ENDBRANCH   3   6
BRANCH   1  19
ATOM     16  C   UNL     1       5.758   4.771  14.925  0.00  0.00    +0.000 A 
ATOM     17  C   UNL     1       5.733   6.137  15.231  0.00  0.00    +0.000 A 
ATOM     18  C   UNL     1       4.982   6.609  16.310  0.00  0.00    +0.000 A 
ATOM     19  C   UNL     1       4.230   5.726  17.097  0.00  0.00    +0.000 A 
ATOM     20  C   UNL     1       4.248   4.362  16.778  0.00  0.00    +0.000 A 
ATOM     21  C   UNL     1       5.002   3.888  15.704  0.00  0.00    +0.000 A 
BRANCH  16  22
ATOM     22  C   UNL     1       6.575   4.251  13.769  0.00  0.00    +0.000 C 
BRANCH  22  23
ATOM     23  C   UNL     1       5.833   3.174  12.977  0.00  0.00    +0.000 C 
BRANCH  23  24
ATOM     24  C   UNL     1       5.364   3.710  11.625  0.00  0.00    +0.000 C 
BRANCH  24  25
ATOM     25  C   UNL     1       3.966   3.200  11.295  0.00  0.00    +0.000 C 
BRANCH  25  26
ATOM     26  C   UNL     1       3.298   4.050  10.226  0.00  0.00    +0.000 C 
BRANCH  26  27
ATOM     27  O   UNL     1       2.950   3.213   9.135  0.00  0.00    +0.000 OA
ATOM     28  H   UNL     1       2.036   2.914   9.286  0.00  0.00    +0.000 HD
ENDBRANCH  26  27
ENDBRANCH  25  26
ENDBRANCH  24  25
ENDBRANCH  23  24
ENDBRANCH  22  23
ENDBRANCH  16  22
ENDBRANCH   1  19
TORSDOF 8
ENDMDL
MODEL 7
REMARK VINA RESULT:      -7.7      1.747      2.389
REMARK  Name = 
REMARK  8 active torsions:
REMARK  status: ('A' for Active; 'I' for Inactive)
REMARK    1  A    between atoms: O_1  and  C_2
REMARK    2  A    between atoms: C_2  and  C_3
REMARK    3  A    between atoms: C_3  and  C_4
REMARK    4  A    between atoms: C_4  and  C_5
REMARK    5  A    between atoms: C_5  and  C_6
REMARK    6  A    between atoms: C_6  and  C_7
REMARK    7  A    between atoms: C_10  and  C_11
REMARK    8  A    between atoms: C_13  and  C_14
REMARK                            x       y       z     vdW  Elec       q    Type
REMARK                         _______ _______ _______ _____ _____    ______ ____
ROOT
ATOM      1  C   UNL     1       2.726   7.725  17.926  0.00  0.00    +0.000 A 
ATOM      2  N   UNL     1       2.219   7.766  19.137  0.00  0.00    +0.000 NA
ATOM      3  C   UNL     1       1.553   8.972  19.142  0.00  0.00    +0.000 A 
ATOM      4  N   UNL     1       1.634   9.647  17.984  0.00  0.00    +0.000 NA
ATOM      5  O   UNL     1       2.412   8.822  17.179  0.00  0.00    +0.000 OA
ENDROOT
BRANCH   3   6
ATOM      6  C   UNL     1       0.842   9.459  20.319  0.00  0.00    +0.000 A 
ATOM      7  C   UNL     1       0.841   8.716  21.513  0.00  0.00    +0.000 A 
ATOM      8  C   UNL     1       0.158   9.165  22.653  0.00  0.00    +0.000 A 
ATOM      9  C   UNL     1      -0.532  10.382  22.587  0.00  0.00    +0.000 A 
ATOM     10  N   UNL     1      -1.261  11.034  23.549  0.00  0.00    +0.000 NA
ATOM     11  C   UNL     1      -1.691  12.132  22.971  0.00  0.00    +0.000 A 
ATOM     12  N   UNL     1      -1.281  12.214  21.670  0.00  0.00    +0.000 N 
ATOM     13  C   UNL     1      -0.524  11.105  21.399  0.00  0.00    +0.000 A 
ATOM     14  C   UNL     1       0.148  10.681  20.248  0.00  0.00    +0.000 A 
ATOM     15  H   UNL     1      -1.493  12.960  21.025  0.00  0.00    +0.000 HD
ENDBRANCH   3   6
BRANCH   1  19
ATOM     16  C   UNL     1       5.195   4.779  16.050  0.00  0.00    +0.000 A 
ATOM     17  C   UNL     1       5.338   6.138  15.740  0.00  0.00    +0.000 A 
ATOM     18  C   UNL     1       4.533   7.095  16.361  0.00  0.00    +0.000 A 
ATOM     19  C   UNL     1       3.559   6.713  17.294  0.00  0.00    +0.000 A 
ATOM     20  C   UNL     1       3.412   5.352  17.590  0.00  0.00    +0.000 A 
ATOM     21  C   UNL     1       4.219   4.394  16.975  0.00  0.00    +0.000 A 
BRANCH  16  22
ATOM     22  C   UNL     1       6.067   3.740  15.393  0.00  0.00    +0.000 C 
BRANCH  22  23
ATOM     23  C   UNL     1       6.765   4.278  14.143  0.00  0.00    +0.000 C 
BRANCH  23  24
ATOM     24  C   UNL     1       6.386   3.464  12.907  0.00  0.00    +0.000 C 
BRANCH  24  25
ATOM     25  C   UNL     1       4.889   3.561  12.633  0.00  0.00    +0.000 C 
BRANCH  25  26
ATOM     26  C   UNL     1       4.522   2.925  11.302  0.00  0.00    +0.000 C 
BRANCH  26  27
ATOM     27  O   UNL     1       3.668   3.811  10.597  0.00  0.00    +0.000 OA
ATOM     28  H   UNL     1       2.756   3.597  10.859  0.00  0.00    +0.000 HD
ENDBRANCH  26  27
ENDBRANCH  25  26
ENDBRANCH  24  25
ENDBRANCH  23  24
ENDBRANCH  22  23
ENDBRANCH  16  22
ENDBRANCH   1  19
TORSDOF 8
ENDMDL
MODEL 8
REMARK VINA RESULT:      -7.5      1.210      1.705
REMARK  Name = 
REMARK  8 active torsions:
REMARK  status: ('A' for Active; 'I' for Inactive)
REMARK    1  A    between atoms: O_1  and  C_2
REMARK    2  A    between atoms: C_2  and  C_3
REMARK    3  A    between atoms: C_3  and  C_4
REMARK    4  A    between atoms: C_4  and  C_5
REMARK    5  A    between atoms: C_5  and  C_6
REMARK    6  A    between atoms: C_6  and  C_7
REMARK    7  A    between atoms: C_10  and  C_11
REMARK    8  A    between atoms: C_13  and  C_14
REMARK                            x       y       z     vdW  Elec       q    Type
REMARK                         _______ _______ _______ _____ _____    ______ ____
ROOT
ATOM      1  C   UNL     1       2.583   7.002  19.051  0.00  0.00    +0.000 A 
ATOM      2  N   UNL     1       2.106   8.215  18.891  0.00  0.00    +0.000 NA
ATOM      3  C   UNL     1       1.380   8.406  20.047  0.00  0.00    +0.000 A 
ATOM      4  N   UNL     1       1.412   7.363  20.892  0.00  0.00    +0.000 NA
ATOM      5  O   UNL     1       2.207   6.432  20.232  0.00  0.00    +0.000 OA
ENDROOT
BRANCH   3   6
ATOM      6  C   UNL     1       0.638   9.636  20.302  0.00  0.00    +0.000 A 
ATOM      7  C   UNL     1       0.354  10.531  19.255  0.00  0.00    +0.000 A 
ATOM      8  C   UNL     1      -0.351  11.721  19.482  0.00  0.00    +0.000 A 
ATOM      9  C   UNL     1      -0.779  12.011  20.784  0.00  0.00    +0.000 A 
ATOM     10  N   UNL     1      -1.481  13.090  21.260  0.00  0.00    +0.000 NA
ATOM     11  C   UNL     1      -1.623  12.868  22.547  0.00  0.00    +0.000 A 
ATOM     12  N   UNL     1      -1.031  11.696  22.926  0.00  0.00    +0.000 N 
ATOM     13  C   UNL     1      -0.489  11.118  21.809  0.00  0.00    +0.000 A 
ATOM     14  C   UNL     1       0.214   9.925  21.612  0.00  0.00    +0.000 A 
ATOM     15  H   UNL     1      -1.003  11.320  23.863  0.00  0.00    +0.000 HD
ENDBRANCH   3   6
BRANCH   1  19
ATOM     16  C   UNL     1       5.056   4.681  16.445  0.00  0.00    +0.000 A 
ATOM     17  C   UNL     1       5.107   6.081  16.424  0.00  0.00    +0.000 A 
ATOM     18  C   UNL     1       4.301   6.833  17.281  0.00  0.00    +0.000 A 
ATOM     19  C   UNL     1       3.418   6.202  18.168  0.00  0.00    +0.000 A 
ATOM     20  C   UNL     1       3.362   4.802  18.176  0.00  0.00    +0.000 A 
ATOM     21  C   UNL     1       4.171   4.048  17.324  0.00  0.00    +0.000 A 
BRANCH  16  22
ATOM     22  C   UNL     1       5.931   3.861  15.530  0.00  0.00    +0.000 C 
BRANCH  22  23
ATOM     23  C   UNL     1       6.136   4.533  14.172  0.00  0.00    +0.000 C 
BRANCH  23  24
ATOM     24  C   UNL     1       5.373   3.795  13.073  0.00  0.00    +0.000 C 
BRANCH  24  25
ATOM     25  C   UNL     1       6.338   3.165  12.074  0.00  0.00    +0.000 C 
BRANCH  25  26
ATOM     26  C   UNL     1       5.733   1.937  11.412  0.00  0.00    +0.000 C 
BRANCH  26  27
ATOM     27  O   UNL     1       6.766   0.990  11.187  0.00  0.00    +0.000 OA
ATOM     28  H   UNL     1       6.354   0.216  10.765  0.00  0.00    +0.000 HD
ENDBRANCH  26  27
ENDBRANCH  25  26
ENDBRANCH  24  25
ENDBRANCH  23  24
ENDBRANCH  22  23
ENDBRANCH  16  22
ENDBRANCH   1  19
TORSDOF 8
ENDMDL
MODEL 9
REMARK VINA RESULT:      -7.5      4.178      5.657
REMARK  Name = 
REMARK  8 active torsions:
REMARK  status: ('A' for Active; 'I' for Inactive)
REMARK    1  A    between atoms: O_1  and  C_2
REMARK    2  A    between atoms: C_2  and  C_3
REMARK    3  A    between atoms: C_3  and  C_4
REMARK    4  A    between atoms: C_4  and  C_5
REMARK    5  A    between atoms: C_5  and  C_6
REMARK    6  A    between atoms: C_6  and  C_7
REMARK    7  A    between atoms: C_10  and  C_11
REMARK    8  A    between atoms: C_13  and  C_14
REMARK                            x       y       z     vdW  Elec       q    Type
REMARK                         _______ _______ _______ _____ _____    ______ ____
ROOT
ATOM      1  C   UNL     1       1.005   8.879  21.006  0.00  0.00    +0.000 A 
ATOM      2  N   UNL     1       0.016   9.693  20.715  0.00  0.00    +0.000 NA
ATOM      3  C   UNL     1      -0.165  10.380  21.896  0.00  0.00    +0.000 A 
ATOM      4  N   UNL     1       0.680  10.016  22.874  0.00  0.00    +0.000 NA
ATOM      5  O   UNL     1       1.454   9.021  22.286  0.00  0.00    +0.000 OA
ENDROOT
BRANCH   3   6
ATOM      6  C   UNL     1      -1.198  11.397  22.049  0.00  0.00    +0.000 A 
ATOM      7  C   UNL     1      -1.450  12.323  21.022  0.00  0.00    +0.000 A 
ATOM      8  C   UNL     1      -2.435  13.312  21.155  0.00  0.00    +0.000 A 
ATOM      9  C   UNL     1      -3.179  13.365  22.341  0.00  0.00    +0.000 A 
ATOM     10  N   UNL     1      -4.188  14.219  22.710  0.00  0.00    +0.000 NA
ATOM     11  C   UNL     1      -4.542  13.834  23.915  0.00  0.00    +0.000 A 
ATOM     12  N   UNL     1      -3.796  12.773  24.347  0.00  0.00    +0.000 N 
ATOM     13  C   UNL     1      -2.917  12.444  23.349  0.00  0.00    +0.000 A 
ATOM     14  C   UNL     1      -1.941  11.448  23.244  0.00  0.00    +0.000 A 
ATOM     15  H   UNL     1      -3.880  12.312  25.241  0.00  0.00    +0.000 HD
ENDBRANCH   3   6
BRANCH   1  19
ATOM     16  C   UNL     1       2.937   5.943  18.568  0.00  0.00    +0.000 A 
ATOM     17  C   UNL     1       2.726   7.243  18.093  0.00  0.00    +0.000 A 
ATOM     18  C   UNL     1       2.100   8.199  18.896  0.00  0.00    +0.000 A 
ATOM     19  C   UNL     1       1.660   7.871  20.186  0.00  0.00    +0.000 A 
ATOM     20  C   UNL     1       1.861   6.565  20.651  0.00  0.00    +0.000 A 
ATOM     21  C   UNL     1       2.492   5.609  19.852  0.00  0.00    +0.000 A 
BRANCH  16  22
ATOM     22  C   UNL     1       3.622   4.907  17.713  0.00  0.00    +0.000 C 
BRANCH  22  23
ATOM     23  C   UNL     1       2.681   3.767  17.321  0.00  0.00    +0.000 C 
BRANCH  23  24
ATOM     24  C   UNL     1       3.156   2.437  17.902  0.00  0.00    +0.000 C 
BRANCH  24  25
ATOM     25  C   UNL     1       2.242   1.983  19.035  0.00  0.00    +0.000 C 
BRANCH  25  26
ATOM     26  C   UNL     1       0.817   2.474  18.836  0.00  0.00    +0.000 C 
BRANCH  26  27
ATOM     27  O   UNL     1       0.333   2.972  20.073  0.00  0.00    +0.000 OA
ATOM     28  H   UNL     1       1.099   3.328  20.556  0.00  0.00    +0.000 HD
ENDBRANCH  26  27
ENDBRANCH  25  26
ENDBRANCH  24  25
ENDBRANCH  23  24
ENDBRANCH  22  23
ENDBRANCH  16  22
ENDBRANCH   1  19
TORSDOF 8
ENDMDL
