MODEL 1
REMARK VINA RESULT:      -7.4      0.000      0.000
REMARK  Name = 
REMARK  6 active torsions:
REMARK  status: ('A' for Active; 'I' for Inactive)
REMARK    1  A    between atoms: C_1  and  N_2
REMARK    2  A    between atoms: N_5  and  C_6
REMARK    3  A    between atoms: C_6  and  C_7
REMARK    4  A    between atoms: C_7  and  C_8
REMARK    5  A    between atoms: C_7  and  C_14
REMARK    6  A    between atoms: C_14  and  O_15
REMARK                            x       y       z     vdW  Elec       q    Type
REMARK                         _______ _______ _______ _____ _____    ______ ____
ROOT
ATOM      1  C   UNL     1       3.118   5.108  18.630  0.00  0.00    +0.000 C 
ENDROOT
BRANCH   1   2
ATOM      2  C   UNL     1       2.593   6.547  18.746  0.00  0.00    +0.000 A 
ATOM      3  C   UNL     1       2.473   7.426  17.667  0.00  0.00    +0.000 A 
ATOM      4  S   UNL     1       1.845   8.957  18.102  0.00  0.00    +0.000 S 
ATOM      5  C   UNL     1       1.663   8.467  19.705  0.00  0.00    +0.000 A 
ATOM      6 CL   UNL     1       0.968   9.544  20.849  0.00  0.00    +0.000 Cl
ATOM      7  C   UNL     1       2.104   7.189  19.939  0.00  0.00    +0.000 A 
ENDBRANCH   1   2
BRANCH   1   8
ATOM      8  C   UNL     1       1.977   4.004  18.737  0.00  0.00    +0.000 C 
ATOM      9  C   UNL     1       2.536   2.555  18.788  0.00  0.00    +0.000 C 
ATOM     10  C   UNL     1       3.309   2.247  20.068  0.00  0.00    +0.000 C 
ATOM     11  C   UNL     1       2.489   2.525  21.324  0.00  0.00    +0.000 C 
ATOM     12  C   UNL     1       1.763   3.867  21.296  0.00  0.00    +0.000 C 
ATOM     13  C   UNL     1       1.057   4.142  19.969  0.00  0.00    +0.000 C 
BRANCH   8  14
ATOM     14  O   UNL     1       1.117   4.092  17.586  0.00  0.00    +0.000 OA
ATOM     15  H   UNL     1       0.452   3.388  17.630  0.00  0.00    +0.000 HD
ENDBRANCH   8  14
ENDBRANCH   1   8
BRANCH   1  16
ATOM     16  C   UNL     1       3.965   4.888  17.328  0.00  0.00    +0.000 C 
BRANCH  16  21
ATOM     17  C   UNL     1       7.799   7.665  17.649  0.00  0.00    +0.000 C 
ATOM     18  N   UNL     1       7.392   6.263  17.632  0.00  0.00    +0.000 NA
ATOM     19  C   UNL     1       6.769   5.909  16.342  0.00  0.00    +0.000 C 
ATOM     20  C   UNL     1       6.189   4.472  16.322  0.00  0.00    +0.000 C 
ATOM     21  N   UNL     1       5.251   4.163  17.422  0.00  0.00    +0.000 NA
ATOM     22  C   UNL     1       5.939   4.508  18.695  0.00  0.00    +0.000 C 
ATOM     23  C   UNL     1       6.494   5.956  18.758  0.00  0.00    +0.000 C 
ENDBRANCH  16  21
ENDBRANCH   1  16
TORSDOF 5
ENDMDL
MODEL 2
REMARK VINA RESULT:      -7.3      1.016      1.591
REMARK  Name = 
REMARK  6 active torsions:
REMARK  status: ('A' for Active; 'I' for Inactive)
REMARK    1  A    between atoms: C_1  and  N_2
REMARK    2  A    between atoms: N_5  and  C_6
REMARK    3  A    between atoms: C_6  and  C_7
REMARK    4  A    between atoms: C_7  and  C_8
REMARK    5  A    between atoms: C_7  and  C_14
REMARK    6  A    between atoms: C_14  and  O_15
REMARK                            x       y       z     vdW  Elec       q    Type
REMARK                         _______ _______ _______ _____ _____    ______ ____
ROOT
ATOM      1  C   UNL     1       3.213   5.449  19.052  0.00  0.00    +0.000 C 
ENDROOT
BRANCH   1   2
ATOM      2  C   UNL     1       2.559   6.840  19.059  0.00  0.00    +0.000 A 
ATOM      3  C   UNL     1       2.430   7.650  17.929  0.00  0.00    +0.000 A 
ATOM      4  S   UNL     1       1.648   9.139  18.243  0.00  0.00    +0.000 S 
ATOM      5  C   UNL     1       1.412   8.715  19.858  0.00  0.00    +0.000 A 
ATOM      6 CL   UNL     1       0.557   9.781  20.901  0.00  0.00    +0.000 Cl
ATOM      7  C   UNL     1       1.945   7.494  20.186  0.00  0.00    +0.000 A 
ENDBRANCH   1   2
BRANCH   1   8
ATOM      8  C   UNL     1       2.163   4.254  18.990  0.00  0.00    +0.000 C 
ATOM      9  C   UNL     1       2.837   2.857  18.905  0.00  0.00    +0.000 C 
ATOM     10  C   UNL     1       3.591   2.469  20.176  0.00  0.00    +0.000 C 
ATOM     11  C   UNL     1       2.710   2.539  21.419  0.00  0.00    +0.000 C 
ATOM     12  C   UNL     1       1.878   3.815  21.508  0.00  0.00    +0.000 C 
ATOM     13  C   UNL     1       1.195   4.181  20.191  0.00  0.00    +0.000 C 
BRANCH   8  14
ATOM     14  O   UNL     1       1.336   4.404  17.822  0.00  0.00    +0.000 OA
ATOM     15  H   UNL     1       0.536   4.898  18.058  0.00  0.00    +0.000 HD
ENDBRANCH   8  14
ENDBRANCH   1   8
BRANCH   1  16
ATOM     16  C   UNL     1       4.274   5.297  17.907  0.00  0.00    +0.000 C 
BRANCH  16  21
ATOM     17  C   UNL     1       7.172   4.881  14.172  0.00  0.00    +0.000 C 
ATOM     18  N   UNL     1       7.114   5.413  15.531  0.00  0.00    +0.000 NA
ATOM     19  C   UNL     1       6.921   4.331  16.515  0.00  0.00    +0.000 C 
ATOM     20  C   UNL     1       6.710   4.852  17.958  0.00  0.00    +0.000 C 
ATOM     21  N   UNL     1       5.631   5.852  18.108  0.00  0.00    +0.000 NA
ATOM     22  C   UNL     1       5.892   6.931  17.119  0.00  0.00    +0.000 C 
ATOM     23  C   UNL     1       6.066   6.439  15.657  0.00  0.00    +0.000 C 
ENDBRANCH  16  21
ENDBRANCH   1  16
TORSDOF 5
ENDMDL
MODEL 3
REMARK VINA RESULT:      -7.2      0.889      1.128
REMARK  Name = 
REMARK  6 active torsions:
REMARK  status: ('A' for Active; 'I' for Inactive)
REMARK    1  A    between atoms: C_1  and  N_2
REMARK    2  A    between atoms: N_5  and  C_6
REMARK    3  A    between atoms: C_6  and  C_7
REMARK    4  A    between atoms: C_7  and  C_8
REMARK    5  A    between atoms: C_7  and  C_14
REMARK    6  A    between atoms: C_14  and  O_15
REMARK                            x       y       z     vdW  Elec       q    Type
REMARK                         _______ _______ _______ _____ _____    ______ ____
ROOT
ATOM      1  C   UNL     1       3.019   5.023  18.723  0.00  0.00    +0.000 C 
ENDROOT
BRANCH   1   2
ATOM      2  C   UNL     1       2.489   6.442  18.983  0.00  0.00    +0.000 A 
ATOM      3  C   UNL     1       2.081   6.908  20.235  0.00  0.00    +0.000 A 
ATOM      4  S   UNL     1       1.553   8.535  20.217  0.00  0.00    +0.000 S 
ATOM      5  C   UNL     1       1.910   8.671  18.576  0.00  0.00    +0.000 A 
ATOM      6 CL   UNL     1       1.683  10.176  17.777  0.00  0.00    +0.000 Cl
ATOM      7  C   UNL     1       2.381   7.507  18.021  0.00  0.00    +0.000 A 
ENDBRANCH   1   2
BRANCH   1   8
ATOM      8  C   UNL     1       1.878   3.913  18.699  0.00  0.00    +0.000 C 
ATOM      9  C   UNL     1       2.440   2.464  18.677  0.00  0.00    +0.000 C 
ATOM     10  C   UNL     1       3.152   2.070  19.969  0.00  0.00    +0.000 C 
ATOM     11  C   UNL     1       2.271   2.260  21.199  0.00  0.00    +0.000 C 
ATOM     12  C   UNL     1       1.542   3.601  21.229  0.00  0.00    +0.000 C 
ATOM     13  C   UNL     1       0.899   3.965  19.892  0.00  0.00    +0.000 C 
BRANCH   8  14
ATOM     14  O   UNL     1       1.074   4.080  17.517  0.00  0.00    +0.000 OA
ATOM     15  H   UNL     1       0.136   4.066  17.764  0.00  0.00    +0.000 HD
ENDBRANCH   8  14
ENDBRANCH   1   8
BRANCH   1  16
ATOM     16  C   UNL     1       3.882   4.941  17.417  0.00  0.00    +0.000 C 
BRANCH  16  21
ATOM     17  C   UNL     1       7.810   7.587  17.725  0.00  0.00    +0.000 C 
ATOM     18  N   UNL     1       7.358   6.199  17.665  0.00  0.00    +0.000 NA
ATOM     19  C   UNL     1       6.685   5.918  16.382  0.00  0.00    +0.000 C 
ATOM     20  C   UNL     1       6.060   4.502  16.322  0.00  0.00    +0.000 C 
ATOM     21  N   UNL     1       5.148   4.175  17.439  0.00  0.00    +0.000 NA
ATOM     22  C   UNL     1       5.886   4.446  18.701  0.00  0.00    +0.000 C 
ATOM     23  C   UNL     1       6.487   5.873  18.805  0.00  0.00    +0.000 C 
ENDBRANCH  16  21
ENDBRANCH   1  16
TORSDOF 5
ENDMDL
MODEL 4
REMARK VINA RESULT:      -7.1      1.334      1.945
REMARK  Name = 
REMARK  6 active torsions:
REMARK  status: ('A' for Active; 'I' for Inactive)
REMARK    1  A    between atoms: C_1  and  N_2
REMARK    2  A    between atoms: N_5  and  C_6
REMARK    3  A    between atoms: C_6  and  C_7
REMARK    4  A    between atoms: C_7  and  C_8
REMARK    5  A    between atoms: C_7  and  C_14
REMARK    6  A    between atoms: C_14  and  O_15
REMARK                            x       y       z     vdW  Elec       q    Type
REMARK                         _______ _______ _______ _____ _____    ______ ____
ROOT
ATOM      1  C   UNL     1       3.169   5.365  19.149  0.00  0.00    +0.000 C 
ENDROOT
BRANCH   1   2
ATOM      2  C   UNL     1       2.477   6.728  19.301  0.00  0.00    +0.000 A 
ATOM      3  C   UNL     1       1.936   7.202  20.498  0.00  0.00    +0.000 A 
ATOM      4  S   UNL     1       1.242   8.760  20.363  0.00  0.00    +0.000 S 
ATOM      5  C   UNL     1       1.699   8.862  18.743  0.00  0.00    +0.000 A 
ATOM      6 CL   UNL     1       1.372  10.297  17.856  0.00  0.00    +0.000 Cl
ATOM      7  C   UNL     1       2.326   7.733  18.280  0.00  0.00    +0.000 A 
ENDBRANCH   1   2
BRANCH   1   8
ATOM      8  C   UNL     1       2.152   4.145  19.033  0.00  0.00    +0.000 C 
ATOM      9  C   UNL     1       2.865   2.768  18.929  0.00  0.00    +0.000 C 
ATOM     10  C   UNL     1       3.599   2.367  20.207  0.00  0.00    +0.000 C 
ATOM     11  C   UNL     1       2.689   2.383  21.430  0.00  0.00    +0.000 C 
ATOM     12  C   UNL     1       1.822   3.635  21.531  0.00  0.00    +0.000 C 
ATOM     13  C   UNL     1       1.160   4.016  20.208  0.00  0.00    +0.000 C 
BRANCH   8  14
ATOM     14  O   UNL     1       1.349   4.304  17.849  0.00  0.00    +0.000 OA
ATOM     15  H   UNL     1       0.466   4.616  18.102  0.00  0.00    +0.000 HD
ENDBRANCH   8  14
ENDBRANCH   1   8
BRANCH   1  16
ATOM     16  C   UNL     1       4.181   5.342  17.951  0.00  0.00    +0.000 C 
BRANCH  16  21
ATOM     17  C   UNL     1       7.102   4.846  14.244  0.00  0.00    +0.000 C 
ATOM     18  N   UNL     1       7.028   5.428  15.581  0.00  0.00    +0.000 NA
ATOM     19  C   UNL     1       6.853   4.380  16.604  0.00  0.00    +0.000 C 
ATOM     20  C   UNL     1       6.625   4.951  18.026  0.00  0.00    +0.000 C 
ATOM     21  N   UNL     1       5.525   5.933  18.135  0.00  0.00    +0.000 NA
ATOM     22  C   UNL     1       5.768   6.979  17.106  0.00  0.00    +0.000 C 
ATOM     23  C   UNL     1       5.958   6.436  15.664  0.00  0.00    +0.000 C 
ENDBRANCH  16  21
ENDBRANCH   1  16
TORSDOF 5
ENDMDL
MODEL 5
REMARK VINA RESULT:      -6.6      2.221      5.053
REMARK  Name = 
REMARK  6 active torsions:
REMARK  status: ('A' for Active; 'I' for Inactive)
REMARK    1  A    between atoms: C_1  and  N_2
REMARK    2  A    between atoms: N_5  and  C_6
REMARK    3  A    between atoms: C_6  and  C_7
REMARK    4  A    between atoms: C_7  and  C_8
REMARK    5  A    between atoms: C_7  and  C_14
REMARK    6  A    between atoms: C_14  and  O_15
REMARK                            x       y       z     vdW  Elec       q    Type
REMARK                         _______ _______ _______ _____ _____    ______ ____
ROOT
ATOM      1  C   UNL     1       4.729   5.145  18.018  0.00  0.00    +0.000 C 
ENDROOT
BRANCH   1   2
ATOM      2  C   UNL     1       3.710   6.223  18.420  0.00  0.00    +0.000 A 
ATOM      3  C   UNL     1       3.037   6.247  19.644  0.00  0.00    +0.000 A 
ATOM      4  S   UNL     1       1.975   7.577  19.812  0.00  0.00    +0.000 S 
ATOM      5  C   UNL     1       2.428   8.176  18.303  0.00  0.00    +0.000 A 
ATOM      6 CL   UNL     1       1.768   9.661  17.744  0.00  0.00    +0.000 Cl
ATOM      7  C   UNL     1       3.332   7.378  17.647  0.00  0.00    +0.000 A 
ENDBRANCH   1   2
BRANCH   1   8
ATOM      8  C   UNL     1       6.037   5.733  17.328  0.00  0.00    +0.000 C 
ATOM      9  C   UNL     1       7.041   4.631  16.890  0.00  0.00    +0.000 C 
ATOM     10  C   UNL     1       6.522   3.757  15.750  0.00  0.00    +0.000 C 
ATOM     11  C   UNL     1       6.098   4.576  14.536  0.00  0.00    +0.000 C 
ATOM     12  C   UNL     1       5.236   5.787  14.885  0.00  0.00    +0.000 C 
ATOM     13  C   UNL     1       5.777   6.588  16.068  0.00  0.00    +0.000 C 
BRANCH   8  14
ATOM     14  O   UNL     1       6.722   6.593  18.257  0.00  0.00    +0.000 OA
ATOM     15  H   UNL     1       6.415   6.400  19.156  0.00  0.00    +0.000 HD
ENDBRANCH   8  14
ENDBRANCH   1   8
BRANCH   1  16
ATOM     16  C   UNL     1       5.120   4.219  19.222  0.00  0.00    +0.000 C 
BRANCH  16  21
ATOM     17  C   UNL     1       0.624   3.020  20.153  0.00  0.00    +0.000 C 
ATOM     18  N   UNL     1       1.911   2.449  19.762  0.00  0.00    +0.000 NA
ATOM     19  C   UNL     1       2.919   2.646  20.821  0.00  0.00    +0.000 C 
ATOM     20  C   UNL     1       4.338   2.187  20.401  0.00  0.00    +0.000 C 
ATOM     21  N   UNL     1       4.833   2.771  19.136  0.00  0.00    +0.000 NA
ATOM     22  C   UNL     1       3.795   2.517  18.101  0.00  0.00    +0.000 C 
ATOM     23  C   UNL     1       2.372   3.005  18.479  0.00  0.00    +0.000 C 
ENDBRANCH  16  21
ENDBRANCH   1  16
TORSDOF 5
ENDMDL
MODEL 6
REMARK VINA RESULT:      -6.4      1.482      2.417
REMARK  Name = 
REMARK  6 active torsions:
REMARK  status: ('A' for Active; 'I' for Inactive)
REMARK    1  A    between atoms: C_1  and  N_2
REMARK    2  A    between atoms: N_5  and  C_6
REMARK    3  A    between atoms: C_6  and  C_7
REMARK    4  A    between atoms: C_7  and  C_8
REMARK    5  A    between atoms: C_7  and  C_14
REMARK    6  A    between atoms: C_14  and  O_15
REMARK                            x       y       z     vdW  Elec       q    Type
REMARK                         _______ _______ _______ _____ _____    ______ ____
ROOT
ATOM      1  C   UNL     1       3.651   5.648  19.594  0.00  0.00    +0.000 C 
ENDROOT
BRANCH   1   2
ATOM      2  C   UNL     1       2.821   6.906  19.292  0.00  0.00    +0.000 A 
ATOM      3  C   UNL     1       2.743   7.508  18.034  0.00  0.00    +0.000 A 
ATOM      4  S   UNL     1       1.731   8.886  18.000  0.00  0.00    +0.000 S 
ATOM      5  C   UNL     1       1.331   8.677  19.624  0.00  0.00    +0.000 A 
ATOM      6 CL   UNL     1       0.204   9.741  20.367  0.00  0.00    +0.000 Cl
ATOM      7  C   UNL     1       1.973   7.616  20.213  0.00  0.00    +0.000 A 
ENDBRANCH   1   2
BRANCH   1   8
ATOM      8  C   UNL     1       2.768   4.382  19.985  0.00  0.00    +0.000 C 
ATOM      9  C   UNL     1       1.442   4.295  19.179  0.00  0.00    +0.000 C 
ATOM     10  C   UNL     1       1.652   4.011  17.693  0.00  0.00    +0.000 C 
ATOM     11  C   UNL     1       2.482   2.754  17.453  0.00  0.00    +0.000 C 
ATOM     12  C   UNL     1       3.731   2.670  18.326  0.00  0.00    +0.000 C 
ATOM     13  C   UNL     1       3.468   3.020  19.789  0.00  0.00    +0.000 C 
BRANCH   8  14
ATOM     14  O   UNL     1       2.419   4.454  21.379  0.00  0.00    +0.000 OA
ATOM     15  H   UNL     1       1.956   5.289  21.550  0.00  0.00    +0.000 HD
ENDBRANCH   8  14
ENDBRANCH   1   8
BRANCH   1  16
ATOM     16  C   UNL     1       4.629   5.285  18.423  0.00  0.00    +0.000 C 
BRANCH  16  21
ATOM     17  C   UNL     1       6.954   4.815  14.313  0.00  0.00    +0.000 C 
ATOM     18  N   UNL     1       7.077   5.402  15.644  0.00  0.00    +0.000 NA
ATOM     19  C   UNL     1       7.077   4.356  16.685  0.00  0.00    +0.000 C 
ATOM     20  C   UNL     1       7.062   4.930  18.123  0.00  0.00    +0.000 C 
ATOM     21  N   UNL     1       5.976   5.896  18.398  0.00  0.00    +0.000 NA
ATOM     22  C   UNL     1       6.043   6.941  17.341  0.00  0.00    +0.000 C 
ATOM     23  C   UNL     1       6.018   6.395  15.889  0.00  0.00    +0.000 C 
ENDBRANCH  16  21
ENDBRANCH   1  16
TORSDOF 5
ENDMDL
MODEL 7
REMARK VINA RESULT:      -6.4      2.054      4.947
REMARK  Name = 
REMARK  6 active torsions:
REMARK  status: ('A' for Active; 'I' for Inactive)
REMARK    1  A    between atoms: C_1  and  N_2
REMARK    2  A    between atoms: N_5  and  C_6
REMARK    3  A    between atoms: C_6  and  C_7
REMARK    4  A    between atoms: C_7  and  C_8
REMARK    5  A    between atoms: C_7  and  C_14
REMARK    6  A    between atoms: C_14  and  O_15
REMARK                            x       y       z     vdW  Elec       q    Type
REMARK                         _______ _______ _______ _____ _____    ______ ____
ROOT
ATOM      1  C   UNL     1       4.726   5.203  17.964  0.00  0.00    +0.000 C 
ENDROOT
BRANCH   1   2
ATOM      2  C   UNL     1       3.735   6.307  18.365  0.00  0.00    +0.000 A 
ATOM      3  C   UNL     1       3.336   7.345  17.520  0.00  0.00    +0.000 A 
ATOM      4  S   UNL     1       2.211   8.415  18.238  0.00  0.00    +0.000 S 
ATOM      5  C   UNL     1       2.185   7.495  19.651  0.00  0.00    +0.000 A 
ATOM      6 CL   UNL     1       1.143   7.948  20.941  0.00  0.00    +0.000 Cl
ATOM      7  C   UNL     1       3.036   6.419  19.618  0.00  0.00    +0.000 A 
ENDBRANCH   1   2
BRANCH   1   8
ATOM      8  C   UNL     1       6.046   5.756  17.267  0.00  0.00    +0.000 C 
ATOM      9  C   UNL     1       7.040   4.631  16.868  0.00  0.00    +0.000 C 
ATOM     10  C   UNL     1       6.520   3.729  15.750  0.00  0.00    +0.000 C 
ATOM     11  C   UNL     1       6.113   4.517  14.510  0.00  0.00    +0.000 C 
ATOM     12  C   UNL     1       5.262   5.747  14.818  0.00  0.00    +0.000 C 
ATOM     13  C   UNL     1       5.803   6.576  15.981  0.00  0.00    +0.000 C 
BRANCH   8  14
ATOM     14  O   UNL     1       6.734   6.635  18.175  0.00  0.00    +0.000 OA
ATOM     15  H   UNL     1       7.687   6.459  18.130  0.00  0.00    +0.000 HD
ENDBRANCH   8  14
ENDBRANCH   1   8
BRANCH   1  16
ATOM     16  C   UNL     1       5.100   4.274  19.171  0.00  0.00    +0.000 C 
BRANCH  16  21
ATOM     17  C   UNL     1       0.631   3.055  20.201  0.00  0.00    +0.000 C 
ATOM     18  N   UNL     1       1.908   2.492  19.773  0.00  0.00    +0.000 NA
ATOM     19  C   UNL     1       2.942   2.680  20.808  0.00  0.00    +0.000 C 
ATOM     20  C   UNL     1       4.351   2.229  20.349  0.00  0.00    +0.000 C 
ATOM     21  N   UNL     1       4.814   2.826  19.078  0.00  0.00    +0.000 NA
ATOM     22  C   UNL     1       3.751   2.580  18.066  0.00  0.00    +0.000 C 
ATOM     23  C   UNL     1       2.337   3.061  18.485  0.00  0.00    +0.000 C 
ENDBRANCH  16  21
ENDBRANCH   1  16
TORSDOF 5
ENDMDL
MODEL 8
REMARK VINA RESULT:      -6.4      1.105      1.191
REMARK  Name = 
REMARK  6 active torsions:
REMARK  status: ('A' for Active; 'I' for Inactive)
REMARK    1  A    between atoms: C_1  and  N_2
REMARK    2  A    between atoms: N_5  and  C_6
REMARK    3  A    between atoms: C_6  and  C_7
REMARK    4  A    between atoms: C_7  and  C_8
REMARK    5  A    between atoms: C_7  and  C_14
REMARK    6  A    between atoms: C_14  and  O_15
REMARK                            x       y       z     vdW  Elec       q    Type
REMARK                         _______ _______ _______ _____ _____    ______ ____
ROOT
ATOM      1  C   UNL     1       3.305   5.542  19.677  0.00  0.00    +0.000 C 
ENDROOT
BRANCH   1   2
ATOM      2  C   UNL     1       2.587   6.863  19.362  0.00  0.00    +0.000 A 
ATOM      3  C   UNL     1       2.530   7.440  18.091  0.00  0.00    +0.000 A 
ATOM      4  S   UNL     1       1.649   8.905  18.045  0.00  0.00    +0.000 S 
ATOM      5  C   UNL     1       1.275   8.773  19.684  0.00  0.00    +0.000 A 
ATOM      6 CL   UNL     1       0.271   9.954  20.425  0.00  0.00    +0.000 Cl
ATOM      7  C   UNL     1       1.833   7.672  20.284  0.00  0.00    +0.000 A 
ENDBRANCH   1   2
BRANCH   1   8
ATOM      8  C   UNL     1       2.671   4.282  18.939  0.00  0.00    +0.000 C 
ATOM      9  C   UNL     1       3.422   2.957  19.245  0.00  0.00    +0.000 C 
ATOM     10  C   UNL     1       3.281   2.500  20.696  0.00  0.00    +0.000 C 
ATOM     11  C   UNL     1       1.824   2.375  21.127  0.00  0.00    +0.000 C 
ATOM     12  C   UNL     1       0.961   3.567  20.722  0.00  0.00    +0.000 C 
ATOM     13  C   UNL     1       1.189   4.011  19.278  0.00  0.00    +0.000 C 
BRANCH   8  14
ATOM     14  O   UNL     1       2.722   4.486  17.515  0.00  0.00    +0.000 OA
ATOM     15  H   UNL     1       2.334   3.718  17.068  0.00  0.00    +0.000 HD
ENDBRANCH   8  14
ENDBRANCH   1   8
BRANCH   1  16
ATOM     16  C   UNL     1       4.845   5.619  19.390  0.00  0.00    +0.000 C 
BRANCH  16  21
ATOM     17  C   UNL     1       8.227   8.446  17.633  0.00  0.00    +0.000 C 
ATOM     18  N   UNL     1       7.465   7.238  17.331  0.00  0.00    +0.000 NA
ATOM     19  C   UNL     1       6.026   7.539  17.200  0.00  0.00    +0.000 C 
ATOM     20  C   UNL     1       5.154   6.272  17.022  0.00  0.00    +0.000 C 
ATOM     21  N   UNL     1       5.347   5.231  18.054  0.00  0.00    +0.000 NA
ATOM     22  C   UNL     1       6.805   4.945  18.120  0.00  0.00    +0.000 C 
ATOM     23  C   UNL     1       7.700   6.193  18.341  0.00  0.00    +0.000 C 
ENDBRANCH  16  21
ENDBRANCH   1  16
TORSDOF 5
ENDMDL
MODEL 9
REMARK VINA RESULT:      -6.4      3.207      5.020
REMARK  Name = 
REMARK  6 active torsions:
REMARK  status: ('A' for Active; 'I' for Inactive)
REMARK    1  A    between atoms: C_1  and  N_2
REMARK    2  A    between atoms: N_5  and  C_6
REMARK    3  A    between atoms: C_6  and  C_7
REMARK    4  A    between atoms: C_7  and  C_8
REMARK    5  A    between atoms: C_7  and  C_14
REMARK    6  A    between atoms: C_14  and  O_15
REMARK                            x       y       z     vdW  Elec       q    Type
REMARK                         _______ _______ _______ _____ _____    ______ ____
ROOT
ATOM      1  C   UNL     1       2.629   5.211  18.524  0.00  0.00    +0.000 C 
ENDROOT
BRANCH   1   2
ATOM      2  C   UNL     1       4.103   5.466  18.170  0.00  0.00    +0.000 A 
ATOM      3  C   UNL     1       4.555   5.796  16.891  0.00  0.00    +0.000 A 
ATOM      4  S   UNL     1       6.247   6.034  16.805  0.00  0.00    +0.000 S 
ATOM      5  C   UNL     1       6.404   5.766  18.463  0.00  0.00    +0.000 A 
ATOM      6 CL   UNL     1       7.948   5.906  19.204  0.00  0.00    +0.000 Cl
ATOM      7  C   UNL     1       5.218   5.458  19.081  0.00  0.00    +0.000 A 
ENDBRANCH   1   2
BRANCH   1   8
ATOM      8  C   UNL     1       2.434   4.327  19.834  0.00  0.00    +0.000 C 
ATOM      9  C   UNL     1       0.996   3.753  19.970  0.00  0.00    +0.000 C 
ATOM     10  C   UNL     1       0.656   2.712  18.905  0.00  0.00    +0.000 C 
ATOM     11  C   UNL     1       1.664   1.568  18.867  0.00  0.00    +0.000 C 
ATOM     12  C   UNL     1       3.117   2.032  18.896  0.00  0.00    +0.000 C 
ATOM     13  C   UNL     1       3.382   3.113  19.942  0.00  0.00    +0.000 C 
BRANCH   8  14
ATOM     14  O   UNL     1       2.686   5.135  20.998  0.00  0.00    +0.000 OA
ATOM     15  H   UNL     1       3.037   4.573  21.706  0.00  0.00    +0.000 HD
ENDBRANCH   8  14
ENDBRANCH   1   8
BRANCH   1  16
ATOM     16  C   UNL     1       1.808   6.542  18.642  0.00  0.00    +0.000 C 
BRANCH  16  21
ATOM     17  C   UNL     1      -0.965  10.382  18.936  0.00  0.00    +0.000 C 
ATOM     18  N   UNL     1       0.405   9.931  19.163  0.00  0.00    +0.000 NA
ATOM     19  C   UNL     1       1.035   9.497  17.902  0.00  0.00    +0.000 C 
ATOM     20  C   UNL     1       2.439   8.876  18.106  0.00  0.00    +0.000 C 
ATOM     21  N   UNL     1       2.496   7.773  19.089  0.00  0.00    +0.000 NA
ATOM     22  C   UNL     1       1.879   8.275  20.346  0.00  0.00    +0.000 C 
ATOM     23  C   UNL     1       0.454   8.864  20.176  0.00  0.00    +0.000 C 
ENDBRANCH  16  21
ENDBRANCH   1  16
TORSDOF 5
ENDMDL
