MODEL 1
REMARK VINA RESULT:      -6.7      0.000      0.000
REMARK  Name = 
REMARK  5 active torsions:
REMARK  status: ('A' for Active; 'I' for Inactive)
REMARK    1  A    between atoms: C_1  and  O_2
REMARK    2  A    between atoms: O_2  and  C_3
REMARK    3  A    between atoms: C_3  and  C_5
REMARK    4  A    between atoms: C_10  and  N_11
REMARK    5  A    between atoms: C_12  and  C_14
REMARK                            x       y       z     vdW  Elec       q    Type
REMARK                         _______ _______ _______ _____ _____    ______ ____
ROOT
ATOM      1  C   UNL     1       2.676   4.941  19.908  0.00  0.00    +0.000 A 
ATOM      2  C   UNL     1       1.943   4.716  21.097  0.00  0.00    +0.000 A 
ATOM      3  C   UNL     1       1.963   3.483  21.745  0.00  0.00    +0.000 A 
ATOM      4  C   UNL     1       2.732   2.457  21.225  0.00  0.00    +0.000 A 
ATOM      5  C   UNL     1       3.463   2.661  20.054  0.00  0.00    +0.000 A 
ATOM      6  C   UNL     1       3.434   3.881  19.355  0.00  0.00    +0.000 A 
ENDROOT
BRANCH   6   7
ATOM      7  N   UNL     1       4.166   4.030  18.146  0.00  0.00    +0.000 N 
ATOM      8  C   UNL     1       5.510   4.366  18.028  0.00  0.00    +0.000 C 
ATOM      9  O   UNL     1       6.282   4.503  18.973  0.00  0.00    +0.000 OA
ATOM     10  H   UNL     1       3.693   3.774  17.280  0.00  0.00    +0.000 HD
BRANCH   8  11
ATOM     11  C   UNL     1       5.981   4.523  16.665  0.00  0.00    +0.000 A 
ATOM     12  C   UNL     1       5.291   4.392  15.473  0.00  0.00    +0.000 A 
ATOM     13  C   UNL     1       6.218   4.631  14.436  0.00  0.00    +0.000 A 
ATOM     14  C   UNL     1       7.418   4.896  15.055  0.00  0.00    +0.000 A 
ATOM     15  O   UNL     1       7.289   4.837  16.407  0.00  0.00    +0.000 OA
ENDBRANCH   8  11
ENDBRANCH   6   7
BRANCH   1  16
ATOM     16  C   UNL     1       2.518   6.315  19.341  0.00  0.00    +0.000 C 
ATOM     17  O   UNL     1       2.290   7.295  20.038  0.00  0.00    +0.000 OA
BRANCH  16  19
ATOM     18  C   UNL     1       3.324   7.524  17.525  0.00  0.00    +0.000 C 
ATOM     19  O   UNL     1       2.652   6.348  17.990  0.00  0.00    +0.000 OA
ENDBRANCH  16  19
ENDBRANCH   1  16
TORSDOF 4
ENDMDL
MODEL 2
REMARK VINA RESULT:      -6.7      0.588      1.001
REMARK  Name = 
REMARK  5 active torsions:
REMARK  status: ('A' for Active; 'I' for Inactive)
REMARK    1  A    between atoms: C_1  and  O_2
REMARK    2  A    between atoms: O_2  and  C_3
REMARK    3  A    between atoms: C_3  and  C_5
REMARK    4  A    between atoms: C_10  and  N_11
REMARK    5  A    between atoms: C_12  and  C_14
REMARK                            x       y       z     vdW  Elec       q    Type
REMARK                         _______ _______ _______ _____ _____    ______ ____
ROOT
ATOM      1  C   UNL     1       2.753   5.006  19.764  0.00  0.00    +0.000 A 
ATOM      2  C   UNL     1       2.041   4.818  20.972  0.00  0.00    +0.000 A 
ATOM      3  C   UNL     1       2.064   3.602  21.652  0.00  0.00    +0.000 A 
ATOM      4  C   UNL     1       2.817   2.557  21.146  0.00  0.00    +0.000 A 
ATOM      5  C   UNL     1       3.528   2.726  19.957  0.00  0.00    +0.000 A 
ATOM      6  C   UNL     1       3.493   3.927  19.226  0.00  0.00    +0.000 A 
ENDROOT
BRANCH   6   7
ATOM      7  N   UNL     1       4.204   4.039  18.000  0.00  0.00    +0.000 N 
ATOM      8  C   UNL     1       5.561   4.302  17.851  0.00  0.00    +0.000 C 
ATOM      9  O   UNL     1       6.362   4.394  18.778  0.00  0.00    +0.000 OA
ATOM     10  H   UNL     1       3.699   3.810  17.146  0.00  0.00    +0.000 HD
BRANCH   8  11
ATOM     11  C   UNL     1       6.009   4.436  16.479  0.00  0.00    +0.000 A 
ATOM     12  C   UNL     1       5.329   4.179  15.301  0.00  0.00    +0.000 A 
ATOM     13  C   UNL     1       6.224   4.455  14.244  0.00  0.00    +0.000 A 
ATOM     14  C   UNL     1       7.395   4.866  14.838  0.00  0.00    +0.000 A 
ATOM     15  O   UNL     1       7.279   4.862  16.193  0.00  0.00    +0.000 OA
ENDBRANCH   8  11
ENDBRANCH   6   7
BRANCH   1  16
ATOM     16  C   UNL     1       2.593   6.366  19.163  0.00  0.00    +0.000 C 
ATOM     17  O   UNL     1       2.898   6.615  18.005  0.00  0.00    +0.000 OA
BRANCH  16  19
ATOM     18  C   UNL     1       1.717   8.507  19.407  0.00  0.00    +0.000 C 
ATOM     19  O   UNL     1       2.082   7.272  20.035  0.00  0.00    +0.000 OA
ENDBRANCH  16  19
ENDBRANCH   1  16
TORSDOF 4
ENDMDL
MODEL 3
REMARK VINA RESULT:      -6.5      1.963      3.084
REMARK  Name = 
REMARK  5 active torsions:
REMARK  status: ('A' for Active; 'I' for Inactive)
REMARK    1  A    between atoms: C_1  and  O_2
REMARK    2  A    between atoms: O_2  and  C_3
REMARK    3  A    between atoms: C_3  and  C_5
REMARK    4  A    between atoms: C_10  and  N_11
REMARK    5  A    between atoms: C_12  and  C_14
REMARK                            x       y       z     vdW  Elec       q    Type
REMARK                         _______ _______ _______ _____ _____    ______ ____
ROOT
ATOM      1  C   UNL     1       3.273   4.912  19.276  0.00  0.00    +0.000 A 
ATOM      2  C   UNL     1       2.533   5.402  20.377  0.00  0.00    +0.000 A 
ATOM      3  C   UNL     1       1.995   6.687  20.383  0.00  0.00    +0.000 A 
ATOM      4  C   UNL     1       2.173   7.501  19.277  0.00  0.00    +0.000 A 
ATOM      5  C   UNL     1       2.900   7.034  18.181  0.00  0.00    +0.000 A 
ATOM      6  C   UNL     1       3.488   5.757  18.160  0.00  0.00    +0.000 A 
ENDROOT
BRANCH   6   7
ATOM      7  N   UNL     1       4.250   5.339  17.035  0.00  0.00    +0.000 N 
ATOM      8  C   UNL     1       5.579   5.651  16.774  0.00  0.00    +0.000 C 
ATOM      9  O   UNL     1       6.314   6.276  17.534  0.00  0.00    +0.000 OA
ATOM     10  H   UNL     1       3.818   4.667  16.404  0.00  0.00    +0.000 HD
BRANCH   8  11
ATOM     11  C   UNL     1       6.086   5.151  15.511  0.00  0.00    +0.000 A 
ATOM     12  C   UNL     1       5.526   4.234  14.638  0.00  0.00    +0.000 A 
ATOM     13  C   UNL     1       6.433   4.084  13.566  0.00  0.00    +0.000 A 
ATOM     14  C   UNL     1       7.490   4.918  13.846  0.00  0.00    +0.000 A 
ATOM     15  O   UNL     1       7.293   5.574  15.021  0.00  0.00    +0.000 OA
ENDBRANCH   8  11
ENDBRANCH   6   7
BRANCH   1  16
ATOM     16  C   UNL     1       3.792   3.522  19.455  0.00  0.00    +0.000 C 
ATOM     17  O   UNL     1       4.987   3.257  19.447  0.00  0.00    +0.000 OA
BRANCH  16  19
ATOM     18  C   UNL     1       2.223   2.179  18.384  0.00  0.00    +0.000 C 
ATOM     19  O   UNL     1       2.803   2.606  19.622  0.00  0.00    +0.000 OA
ENDBRANCH  16  19
ENDBRANCH   1  16
TORSDOF 4
ENDMDL
MODEL 4
REMARK VINA RESULT:      -6.5      0.890      1.043
REMARK  Name = 
REMARK  5 active torsions:
REMARK  status: ('A' for Active; 'I' for Inactive)
REMARK    1  A    between atoms: C_1  and  O_2
REMARK    2  A    between atoms: O_2  and  C_3
REMARK    3  A    between atoms: C_3  and  C_5
REMARK    4  A    between atoms: C_10  and  N_11
REMARK    5  A    between atoms: C_12  and  C_14
REMARK                            x       y       z     vdW  Elec       q    Type
REMARK                         _______ _______ _______ _____ _____    ______ ____
ROOT
ATOM      1  C   UNL     1       2.295   4.879  19.557  0.00  0.00    +0.000 A 
ATOM      2  C   UNL     1       1.363   4.616  20.588  0.00  0.00    +0.000 A 
ATOM      3  C   UNL     1       1.061   3.316  20.987  0.00  0.00    +0.000 A 
ATOM      4  C   UNL     1       1.702   2.254  20.373  0.00  0.00    +0.000 A 
ATOM      5  C   UNL     1       2.626   2.494  19.355  0.00  0.00    +0.000 A 
ATOM      6  C   UNL     1       2.923   3.792  18.903  0.00  0.00    +0.000 A 
ENDROOT
BRANCH   6   7
ATOM      7  N   UNL     1       3.844   3.985  17.838  0.00  0.00    +0.000 N 
ATOM      8  C   UNL     1       5.220   4.148  17.952  0.00  0.00    +0.000 C 
ATOM      9  O   UNL     1       5.849   4.065  19.003  0.00  0.00    +0.000 OA
ATOM     10  H   UNL     1       3.482   3.901  16.889  0.00  0.00    +0.000 HD
BRANCH   8  11
ATOM     11  C   UNL     1       5.909   4.402  16.702  0.00  0.00    +0.000 A 
ATOM     12  C   UNL     1       6.863   5.358  16.400  0.00  0.00    +0.000 A 
ATOM     13  C   UNL     1       7.194   5.189  15.038  0.00  0.00    +0.000 A 
ATOM     14  C   UNL     1       6.426   4.140  14.590  0.00  0.00    +0.000 A 
ATOM     15  O   UNL     1       5.643   3.651  15.588  0.00  0.00    +0.000 OA
ENDBRANCH   8  11
ENDBRANCH   6   7
BRANCH   1  16
ATOM     16  C   UNL     1       2.474   6.331  19.248  0.00  0.00    +0.000 C 
ATOM     17  O   UNL     1       2.387   7.203  20.102  0.00  0.00    +0.000 OA
BRANCH  16  19
ATOM     18  C   UNL     1       2.784   7.958  17.616  0.00  0.00    +0.000 C 
ATOM     19  O   UNL     1       2.740   6.563  17.937  0.00  0.00    +0.000 OA
ENDBRANCH  16  19
ENDBRANCH   1  16
TORSDOF 4
ENDMDL
MODEL 5
REMARK VINA RESULT:      -6.5      2.609      4.039
REMARK  Name = 
REMARK  5 active torsions:
REMARK  status: ('A' for Active; 'I' for Inactive)
REMARK    1  A    between atoms: C_1  and  O_2
REMARK    2  A    between atoms: O_2  and  C_3
REMARK    3  A    between atoms: C_3  and  C_5
REMARK    4  A    between atoms: C_10  and  N_11
REMARK    5  A    between atoms: C_12  and  C_14
REMARK                            x       y       z     vdW  Elec       q    Type
REMARK                         _______ _______ _______ _____ _____    ______ ____
ROOT
ATOM      1  C   UNL     1       5.871   4.844  18.108  0.00  0.00    +0.000 A 
ATOM      2  C   UNL     1       5.415   5.245  19.385  0.00  0.00    +0.000 A 
ATOM      3  C   UNL     1       4.075   5.138  19.750  0.00  0.00    +0.000 A 
ATOM      4  C   UNL     1       3.168   4.610  18.849  0.00  0.00    +0.000 A 
ATOM      5  C   UNL     1       3.599   4.207  17.584  0.00  0.00    +0.000 A 
ATOM      6  C   UNL     1       4.937   4.338  17.171  0.00  0.00    +0.000 A 
ENDROOT
BRANCH   6   7
ATOM      7  N   UNL     1       5.322   3.948  15.860  0.00  0.00    +0.000 N 
ATOM      8  C   UNL     1       5.580   4.794  14.787  0.00  0.00    +0.000 C 
ATOM      9  O   UNL     1       5.588   6.020  14.849  0.00  0.00    +0.000 OA
ATOM     10  H   UNL     1       5.526   2.962  15.708  0.00  0.00    +0.000 HD
BRANCH   8  11
ATOM     11  C   UNL     1       5.882   4.120  13.539  0.00  0.00    +0.000 A 
ATOM     12  C   UNL     1       7.088   4.003  12.870  0.00  0.00    +0.000 A 
ATOM     13  C   UNL     1       6.833   3.264  11.695  0.00  0.00    +0.000 A 
ATOM     14  C   UNL     1       5.489   2.971  11.716  0.00  0.00    +0.000 A 
ATOM     15  O   UNL     1       4.900   3.482  12.830  0.00  0.00    +0.000 OA
ENDBRANCH   8  11
ENDBRANCH   6   7
BRANCH   1  16
ATOM     16  C   UNL     1       7.334   5.053  17.884  0.00  0.00    +0.000 C 
ATOM     17  O   UNL     1       8.033   4.243  17.290  0.00  0.00    +0.000 OA
BRANCH  16  19
ATOM     18  C   UNL     1       7.607   7.335  17.525  0.00  0.00    +0.000 C 
ATOM     19  O   UNL     1       7.787   6.221  18.408  0.00  0.00    +0.000 OA
ENDBRANCH  16  19
ENDBRANCH   1  16
TORSDOF 4
ENDMDL
MODEL 6
REMARK VINA RESULT:      -6.4      1.796      2.960
REMARK  Name = 
REMARK  5 active torsions:
REMARK  status: ('A' for Active; 'I' for Inactive)
REMARK    1  A    between atoms: C_1  and  O_2
REMARK    2  A    between atoms: O_2  and  C_3
REMARK    3  A    between atoms: C_3  and  C_5
REMARK    4  A    between atoms: C_10  and  N_11
REMARK    5  A    between atoms: C_12  and  C_14
REMARK                            x       y       z     vdW  Elec       q    Type
REMARK                         _______ _______ _______ _____ _____    ______ ____
ROOT
ATOM      1  C   UNL     1       2.462   4.479  19.119  0.00  0.00    +0.000 A 
ATOM      2  C   UNL     1       1.692   4.862  20.242  0.00  0.00    +0.000 A 
ATOM      3  C   UNL     1       1.553   6.198  20.611  0.00  0.00    +0.000 A 
ATOM      4  C   UNL     1       2.168   7.178  19.851  0.00  0.00    +0.000 A 
ATOM      5  C   UNL     1       2.930   6.819  18.739  0.00  0.00    +0.000 A 
ATOM      6  C   UNL     1       3.121   5.478  18.363  0.00  0.00    +0.000 A 
ENDROOT
BRANCH   6   7
ATOM      7  N   UNL     1       3.937   5.159  17.243  0.00  0.00    +0.000 N 
ATOM      8  C   UNL     1       5.315   5.315  17.151  0.00  0.00    +0.000 C 
ATOM      9  O   UNL     1       6.041   5.680  18.072  0.00  0.00    +0.000 OA
ATOM     10  H   UNL     1       3.490   4.680  16.463  0.00  0.00    +0.000 HD
BRANCH   8  11
ATOM     11  C   UNL     1       5.882   4.977  15.860  0.00  0.00    +0.000 A 
ATOM     12  C   UNL     1       5.379   4.160  14.863  0.00  0.00    +0.000 A 
ATOM     13  C   UNL     1       6.330   4.155  13.820  0.00  0.00    +0.000 A 
ATOM     14  C   UNL     1       7.355   4.970  14.239  0.00  0.00    +0.000 A 
ATOM     15  O   UNL     1       7.096   5.478  15.474  0.00  0.00    +0.000 OA
ENDBRANCH   8  11
ENDBRANCH   6   7
BRANCH   1  16
ATOM     16  C   UNL     1       2.517   3.003  18.887  0.00  0.00    +0.000 C 
ATOM     17  O   UNL     1       1.512   2.306  18.829  0.00  0.00    +0.000 OA
BRANCH  16  19
ATOM     18  C   UNL     1       4.409   2.248  20.010  0.00  0.00    +0.000 C 
ATOM     19  O   UNL     1       3.785   2.536  18.753  0.00  0.00    +0.000 OA
ENDBRANCH  16  19
ENDBRANCH   1  16
TORSDOF 4
ENDMDL
MODEL 7
REMARK VINA RESULT:      -6.4      2.314      5.350
REMARK  Name = 
REMARK  5 active torsions:
REMARK  status: ('A' for Active; 'I' for Inactive)
REMARK    1  A    between atoms: C_1  and  O_2
REMARK    2  A    between atoms: O_2  and  C_3
REMARK    3  A    between atoms: C_3  and  C_5
REMARK    4  A    between atoms: C_10  and  N_11
REMARK    5  A    between atoms: C_12  and  C_14
REMARK                            x       y       z     vdW  Elec       q    Type
REMARK                         _______ _______ _______ _____ _____    ______ ____
ROOT
ATOM      1  C   UNL     1       6.145   5.978  17.124  0.00  0.00    +0.000 A 
ATOM      2  C   UNL     1       7.308   6.783  17.097  0.00  0.00    +0.000 A 
ATOM      3  C   UNL     1       8.137   6.907  18.210  0.00  0.00    +0.000 A 
ATOM      4  C   UNL     1       7.828   6.212  19.366  0.00  0.00    +0.000 A 
ATOM      5  C   UNL     1       6.686   5.411  19.410  0.00  0.00    +0.000 A 
ATOM      6  C   UNL     1       5.808   5.296  18.318  0.00  0.00    +0.000 A 
ENDROOT
BRANCH   6   7
ATOM      7  N   UNL     1       4.637   4.497  18.423  0.00  0.00    +0.000 N 
ATOM      8  C   UNL     1       3.471   4.822  19.108  0.00  0.00    +0.000 C 
ATOM      9  O   UNL     1       3.261   5.899  19.659  0.00  0.00    +0.000 OA
ATOM     10  H   UNL     1       4.603   3.645  17.866  0.00  0.00    +0.000 HD
BRANCH   8  11
ATOM     11  C   UNL     1       2.458   3.785  19.112  0.00  0.00    +0.000 A 
ATOM     12  C   UNL     1       1.152   3.831  19.567  0.00  0.00    +0.000 A 
ATOM     13  C   UNL     1       0.600   2.549  19.355  0.00  0.00    +0.000 A 
ATOM     14  C   UNL     1       1.600   1.797  18.783  0.00  0.00    +0.000 A 
ATOM     15  O   UNL     1       2.732   2.534  18.627  0.00  0.00    +0.000 OA
ENDBRANCH   8  11
ENDBRANCH   6   7
BRANCH   1  16
ATOM     16  C   UNL     1       5.366   5.983  15.849  0.00  0.00    +0.000 C 
ATOM     17  O   UNL     1       5.045   7.015  15.275  0.00  0.00    +0.000 OA
BRANCH  16  19
ATOM     18  C   UNL     1       6.183   4.055  14.837  0.00  0.00    +0.000 C 
ATOM     19  O   UNL     1       5.061   4.734  15.411  0.00  0.00    +0.000 OA
ENDBRANCH  16  19
ENDBRANCH   1  16
TORSDOF 4
ENDMDL
MODEL 8
REMARK VINA RESULT:      -6.4      2.036      5.845
REMARK  Name = 
REMARK  5 active torsions:
REMARK  status: ('A' for Active; 'I' for Inactive)
REMARK    1  A    between atoms: C_1  and  O_2
REMARK    2  A    between atoms: O_2  and  C_3
REMARK    3  A    between atoms: C_3  and  C_5
REMARK    4  A    between atoms: C_10  and  N_11
REMARK    5  A    between atoms: C_12  and  C_14
REMARK                            x       y       z     vdW  Elec       q    Type
REMARK                         _______ _______ _______ _____ _____    ______ ____
ROOT
ATOM      1  C   UNL     1       6.577   4.812  16.588  0.00  0.00    +0.000 A 
ATOM      2  C   UNL     1       7.383   4.814  15.426  0.00  0.00    +0.000 A 
ATOM      3  C   UNL     1       6.855   4.525  14.170  0.00  0.00    +0.000 A 
ATOM      4  C   UNL     1       5.504   4.248  14.050  0.00  0.00    +0.000 A 
ATOM      5  C   UNL     1       4.693   4.243  15.186  0.00  0.00    +0.000 A 
ATOM      6  C   UNL     1       5.203   4.491  16.473  0.00  0.00    +0.000 A 
ENDROOT
BRANCH   6   7
ATOM      7  N   UNL     1       4.344   4.438  17.604  0.00  0.00    +0.000 N 
ATOM      8  C   UNL     1       3.721   3.307  18.119  0.00  0.00    +0.000 C 
ATOM      9  O   UNL     1       3.896   2.163  17.707  0.00  0.00    +0.000 OA
ATOM     10  H   UNL     1       4.246   5.290  18.154  0.00  0.00    +0.000 HD
BRANCH   8  11
ATOM     11  C   UNL     1       2.837   3.556  19.241  0.00  0.00    +0.000 A 
ATOM     12  C   UNL     1       1.615   4.205  19.273  0.00  0.00    +0.000 A 
ATOM     13  C   UNL     1       1.179   4.190  20.616  0.00  0.00    +0.000 A 
ATOM     14  C   UNL     1       2.159   3.532  21.323  0.00  0.00    +0.000 A 
ATOM     15  O   UNL     1       3.169   3.140  20.502  0.00  0.00    +0.000 OA
ENDBRANCH   8  11
ENDBRANCH   6   7
BRANCH   1  16
ATOM     16  C   UNL     1       7.317   5.121  17.849  0.00  0.00    +0.000 C 
ATOM     17  O   UNL     1       8.154   4.365  18.325  0.00  0.00    +0.000 OA
BRANCH  16  19
ATOM     18  C   UNL     1       7.676   7.419  17.836  0.00  0.00    +0.000 C 
ATOM     19  O   UNL     1       6.959   6.312  18.395  0.00  0.00    +0.000 OA
ENDBRANCH  16  19
ENDBRANCH   1  16
TORSDOF 4
ENDMDL
MODEL 9
REMARK VINA RESULT:      -6.4      2.017      5.850
REMARK  Name = 
REMARK  5 active torsions:
REMARK  status: ('A' for Active; 'I' for Inactive)
REMARK    1  A    between atoms: C_1  and  O_2
REMARK    2  A    between atoms: O_2  and  C_3
REMARK    3  A    between atoms: C_3  and  C_5
REMARK    4  A    between atoms: C_10  and  N_11
REMARK    5  A    between atoms: C_12  and  C_14
REMARK                            x       y       z     vdW  Elec       q    Type
REMARK                         _______ _______ _______ _____ _____    ______ ____
ROOT
ATOM      1  C   UNL     1       6.002   5.320  17.689  0.00  0.00    +0.000 A 
ATOM      2  C   UNL     1       6.863   4.433  17.002  0.00  0.00    +0.000 A 
ATOM      3  C   UNL     1       6.915   4.396  15.611  0.00  0.00    +0.000 A 
ATOM      4  C   UNL     1       6.120   5.261  14.880  0.00  0.00    +0.000 A 
ATOM      5  C   UNL     1       5.265   6.144  15.540  0.00  0.00    +0.000 A 
ATOM      6  C   UNL     1       5.160   6.179  16.942  0.00  0.00    +0.000 A 
ENDROOT
BRANCH   6   7
ATOM      7  N   UNL     1       4.248   7.071  17.569  0.00  0.00    +0.000 N 
ATOM      8  C   UNL     1       2.936   6.793  17.934  0.00  0.00    +0.000 C 
ATOM      9  O   UNL     1       2.401   5.691  17.836  0.00  0.00    +0.000 OA
ATOM     10  H   UNL     1       4.612   7.973  17.870  0.00  0.00    +0.000 HD
BRANCH   8  11
ATOM     11  C   UNL     1       2.207   7.916  18.491  0.00  0.00    +0.000 A 
ATOM     12  C   UNL     1       1.777   9.079  17.877  0.00  0.00    +0.000 A 
ATOM     13  C   UNL     1       1.132   9.849  18.869  0.00  0.00    +0.000 A 
ATOM     14  C   UNL     1       1.204   9.112  20.027  0.00  0.00    +0.000 A 
ATOM     15  O   UNL     1       1.852   7.935  19.813  0.00  0.00    +0.000 OA
ENDBRANCH   8  11
ENDBRANCH   6   7
BRANCH   1  16
ATOM     16  C   UNL     1       6.062   5.205  19.178  0.00  0.00    +0.000 C 
ATOM     17  O   UNL     1       7.083   5.423  19.816  0.00  0.00    +0.000 OA
BRANCH  16  19
ATOM     18  C   UNL     1       4.567   3.454  19.513  0.00  0.00    +0.000 C 
ATOM     19  O   UNL     1       4.877   4.836  19.728  0.00  0.00    +0.000 OA
ENDBRANCH  16  19
ENDBRANCH   1  16
TORSDOF 4
ENDMDL
