MODEL 1
REMARK VINA RESULT:      -8.7      0.000      0.000
REMARK  Name = 
REMARK  5 active torsions:
REMARK  status: ('A' for Active; 'I' for Inactive)
REMARK    1  A    between atoms: C_1  and  C_2
REMARK    2  A    between atoms: N_4  and  C_5
REMARK    3  A    between atoms: C_5  and  C_6
REMARK    4  A    between atoms: C_15  and  C_16
REMARK    5  A    between atoms: C_19  and  C_20
REMARK                            x       y       z     vdW  Elec       q    Type
REMARK                         _______ _______ _______ _____ _____    ______ ____
ROOT
ATOM      1  C   UNL     1       5.341   4.982  19.110  0.00  0.00    +0.000 A 
ATOM      2  N   UNL     1       4.424   5.840  19.450  0.00  0.00    +0.000 NA
ATOM      3  N   UNL     1       3.282   5.282  19.958  0.00  0.00    +0.000 N 
ATOM      4  C   UNL     1       2.119   5.903  20.389  0.00  0.00    +0.000 A 
ATOM      5  N   UNL     1       1.229   5.007  20.800  0.00  0.00    +0.000 NA
ATOM      6  C   UNL     1       1.817   3.787  20.621  0.00  0.00    +0.000 A 
ATOM      7  C   UNL     1       3.080   3.939  20.105  0.00  0.00    +0.000 A 
ATOM      8  C   UNL     1       4.082   3.015  19.739  0.00  0.00    +0.000 A 
ATOM      9  O   UNL     1       3.992   1.794  19.838  0.00  0.00    +0.000 OA
ATOM     10  N   UNL     1       5.197   3.618  19.240  0.00  0.00    +0.000 N 
ATOM     11  H   UNL     1       5.944   2.993  18.959  0.00  0.00    +0.000 HD
ENDROOT
BRANCH   1  17
ATOM     12  C   UNL     1       7.955   7.557  17.832  0.00  0.00    +0.000 C 
ATOM     13  C   UNL     1       6.572   6.905  17.979  0.00  0.00    +0.000 C 
ATOM     14  C   UNL     1       5.921   6.769  16.609  0.00  0.00    +0.000 C 
ATOM     15  N   UNL     1       6.271   5.424  16.098  0.00  0.00    +0.000 NA
ATOM     16  C   UNL     1       6.994   4.704  17.181  0.00  0.00    +0.000 C 
ATOM     17  C   UNL     1       6.656   5.455  18.469  0.00  0.00    +0.000 C 
BRANCH  15  18
ATOM     18  C   UNL     1       7.111   5.488  14.883  0.00  0.00    +0.000 C 
BRANCH  18  19
ATOM     19  C   UNL     1       6.646   4.606  13.745  0.00  0.00    +0.000 A 
ATOM     20  C   UNL     1       5.470   3.848  13.844  0.00  0.00    +0.000 A 
ATOM     21  C   UNL     1       5.109   2.976  12.812  0.00  0.00    +0.000 A 
ATOM     22  C   UNL     1       5.910   2.875  11.678  0.00  0.00    +0.000 A 
ATOM     23  F   UNL     1       5.569   2.022  10.703  0.00  0.00    +0.000 F 
ATOM     24  C   UNL     1       7.058   3.639  11.543  0.00  0.00    +0.000 A 
ATOM     25  C   UNL     1       7.417   4.496  12.577  0.00  0.00    +0.000 A 
ATOM     26  F   UNL     1       8.533   5.227  12.443  0.00  0.00    +0.000 F 
ENDBRANCH  18  19
ENDBRANCH  15  18
ENDBRANCH   1  17
BRANCH   4  27
ATOM     27  C   UNL     1       1.853   7.378  20.386  0.00  0.00    +0.000 C 
ATOM     28  C   UNL     1       0.609   7.768  21.184  0.00  0.00    +0.000 C 
ATOM     29  C   UNL     1       0.422   9.279  21.143  0.00  0.00    +0.000 C 
ATOM     30  O   UNL     1       0.364   9.746  19.796  0.00  0.00    +0.000 OA
ATOM     31  C   UNL     1       1.572   9.486  19.080  0.00  0.00    +0.000 C 
ATOM     32  C   UNL     1       1.829   7.985  18.984  0.00  0.00    +0.000 C 
ENDBRANCH   4  27
TORSDOF 4
ENDMDL
MODEL 2
REMARK VINA RESULT:      -8.3      4.787      8.571
REMARK  Name = 
REMARK  5 active torsions:
REMARK  status: ('A' for Active; 'I' for Inactive)
REMARK    1  A    between atoms: C_1  and  C_2
REMARK    2  A    between atoms: N_4  and  C_5
REMARK    3  A    between atoms: C_5  and  C_6
REMARK    4  A    between atoms: C_15  and  C_16
REMARK    5  A    between atoms: C_19  and  C_20
REMARK                            x       y       z     vdW  Elec       q    Type
REMARK                         _______ _______ _______ _____ _____    ______ ____
ROOT
ATOM      1  C   UNL     1       2.166   6.639  20.021  0.00  0.00    +0.000 A 
ATOM      2  N   UNL     1       3.020   6.396  19.068  0.00  0.00    +0.000 NA
ATOM      3  N   UNL     1       3.080   5.086  18.677  0.00  0.00    +0.000 N 
ATOM      4  C   UNL     1       3.886   4.493  17.718  0.00  0.00    +0.000 A 
ATOM      5  N   UNL     1       3.654   3.187  17.647  0.00  0.00    +0.000 NA
ATOM      6  C   UNL     1       2.692   2.926  18.581  0.00  0.00    +0.000 A 
ATOM      7  C   UNL     1       2.328   4.084  19.223  0.00  0.00    +0.000 A 
ATOM      8  C   UNL     1       1.401   4.356  20.252  0.00  0.00    +0.000 A 
ATOM      9  O   UNL     1       0.682   3.524  20.798  0.00  0.00    +0.000 OA
ATOM     10  N   UNL     1       1.378   5.672  20.605  0.00  0.00    +0.000 N 
ATOM     11  H   UNL     1       0.729   5.916  21.345  0.00  0.00    +0.000 HD
ENDROOT
BRANCH   1  17
ATOM     12  C   UNL     1       0.873   9.375  22.458  0.00  0.00    +0.000 C 
ATOM     13  C   UNL     1       0.771   8.204  21.468  0.00  0.00    +0.000 C 
ATOM     14  C   UNL     1      -0.317   8.494  20.442  0.00  0.00    +0.000 C 
ATOM     15  N   UNL     1       0.342   9.143  19.286  0.00  0.00    +0.000 NA
ATOM     16  C   UNL     1       1.809   9.122  19.534  0.00  0.00    +0.000 C 
ATOM     17  C   UNL     1       2.029   8.054  20.606  0.00  0.00    +0.000 C 
BRANCH  15  18
ATOM     18  C   UNL     1      -0.120  10.533  19.086  0.00  0.00    +0.000 C 
BRANCH  18  19
ATOM     19  C   UNL     1      -1.470  10.661  18.415  0.00  0.00    +0.000 A 
ATOM     20  C   UNL     1      -1.763   9.972  17.230  0.00  0.00    +0.000 A 
ATOM     21  C   UNL     1      -2.988  10.175  16.585  0.00  0.00    +0.000 A 
ATOM     22  C   UNL     1      -3.922  11.049  17.133  0.00  0.00    +0.000 A 
ATOM     23  F   UNL     1      -5.084  11.255  16.498  0.00  0.00    +0.000 F 
ATOM     24  C   UNL     1      -3.667  11.716  18.321  0.00  0.00    +0.000 A 
ATOM     25  C   UNL     1      -2.444  11.518  18.951  0.00  0.00    +0.000 A 
ATOM     26  F   UNL     1      -2.203  12.172  20.096  0.00  0.00    +0.000 F 
ENDBRANCH  18  19
ENDBRANCH  15  18
ENDBRANCH   1  17
BRANCH   4  27
ATOM     27  C   UNL     1       4.910   5.189  16.874  0.00  0.00    +0.000 C 
ATOM     28  C   UNL     1       5.325   4.383  15.642  0.00  0.00    +0.000 C 
ATOM     29  C   UNL     1       6.351   5.167  14.834  0.00  0.00    +0.000 C 
ATOM     30  O   UNL     1       7.470   5.523  15.645  0.00  0.00    +0.000 OA
ATOM     31  C   UNL     1       7.103   6.373  16.732  0.00  0.00    +0.000 C 
ATOM     32  C   UNL     1       6.128   5.662  17.666  0.00  0.00    +0.000 C 
ENDBRANCH   4  27
TORSDOF 4
ENDMDL
MODEL 3
REMARK VINA RESULT:      -8.2      0.886      1.224
REMARK  Name = 
REMARK  5 active torsions:
REMARK  status: ('A' for Active; 'I' for Inactive)
REMARK    1  A    between atoms: C_1  and  C_2
REMARK    2  A    between atoms: N_4  and  C_5
REMARK    3  A    between atoms: C_5  and  C_6
REMARK    4  A    between atoms: C_15  and  C_16
REMARK    5  A    between atoms: C_19  and  C_20
REMARK                            x       y       z     vdW  Elec       q    Type
REMARK                         _______ _______ _______ _____ _____    ______ ____
ROOT
ATOM      1  C   UNL     1       5.427   5.027  18.981  0.00  0.00    +0.000 A 
ATOM      2  N   UNL     1       4.516   5.897  19.310  0.00  0.00    +0.000 NA
ATOM      3  N   UNL     1       3.388   5.357  19.868  0.00  0.00    +0.000 N 
ATOM      4  C   UNL     1       2.236   5.992  20.303  0.00  0.00    +0.000 A 
ATOM      5  N   UNL     1       1.358   5.111  20.770  0.00  0.00    +0.000 NA
ATOM      6  C   UNL     1       1.944   3.886  20.625  0.00  0.00    +0.000 A 
ATOM      7  C   UNL     1       3.194   4.020  20.071  0.00  0.00    +0.000 A 
ATOM      8  C   UNL     1       4.189   3.084  19.716  0.00  0.00    +0.000 A 
ATOM      9  O   UNL     1       4.104   1.868  19.865  0.00  0.00    +0.000 OA
ATOM     10  N   UNL     1       5.290   3.669  19.167  0.00  0.00    +0.000 N 
ATOM     11  H   UNL     1       6.032   3.035  18.892  0.00  0.00    +0.000 HD
ENDROOT
BRANCH   1  17
ATOM     12  C   UNL     1       7.967   7.551  17.471  0.00  0.00    +0.000 C 
ATOM     13  C   UNL     1       6.601   6.881  17.685  0.00  0.00    +0.000 C 
ATOM     14  C   UNL     1       5.942   6.619  16.338  0.00  0.00    +0.000 C 
ATOM     15  N   UNL     1       6.319   5.246  15.933  0.00  0.00    +0.000 NA
ATOM     16  C   UNL     1       7.069   4.633  17.063  0.00  0.00    +0.000 C 
ATOM     17  C   UNL     1       6.725   5.478  18.290  0.00  0.00    +0.000 C 
BRANCH  15  18
ATOM     18  C   UNL     1       7.146   5.231  14.708  0.00  0.00    +0.000 C 
BRANCH  18  19
ATOM     19  C   UNL     1       6.654   4.298  13.623  0.00  0.00    +0.000 A 
ATOM     20  C   UNL     1       7.504   3.860  12.597  0.00  0.00    +0.000 A 
ATOM     21  C   UNL     1       7.002   3.067  11.560  0.00  0.00    +0.000 A 
ATOM     22  C   UNL     1       5.659   2.699  11.558  0.00  0.00    +0.000 A 
ATOM     23  F   UNL     1       5.180   1.958  10.550  0.00  0.00    +0.000 F 
ATOM     24  C   UNL     1       4.808   3.092  12.578  0.00  0.00    +0.000 A 
ATOM     25  C   UNL     1       5.311   3.889  13.600  0.00  0.00    +0.000 A 
ATOM     26  F   UNL     1       4.480   4.271  14.581  0.00  0.00    +0.000 F 
ENDBRANCH  18  19
ENDBRANCH  15  18
ENDBRANCH   1  17
BRANCH   4  27
ATOM     27  C   UNL     1       1.966   7.465  20.249  0.00  0.00    +0.000 C 
ATOM     28  C   UNL     1       0.780   7.893  21.115  0.00  0.00    +0.000 C 
ATOM     29  C   UNL     1       0.586   9.401  21.016  0.00  0.00    +0.000 C 
ATOM     30  O   UNL     1       0.432   9.803  19.656  0.00  0.00    +0.000 OA
ATOM     31  C   UNL     1       1.587   9.510  18.869  0.00  0.00    +0.000 C 
ATOM     32  C   UNL     1       1.840   8.006  18.826  0.00  0.00    +0.000 C 
ENDBRANCH   4  27
TORSDOF 4
ENDMDL
MODEL 4
REMARK VINA RESULT:      -8.1      4.514      8.471
REMARK  Name = 
REMARK  5 active torsions:
REMARK  status: ('A' for Active; 'I' for Inactive)
REMARK    1  A    between atoms: C_1  and  C_2
REMARK    2  A    between atoms: N_4  and  C_5
REMARK    3  A    between atoms: C_5  and  C_6
REMARK    4  A    between atoms: C_15  and  C_16
REMARK    5  A    between atoms: C_19  and  C_20
REMARK                            x       y       z     vdW  Elec       q    Type
REMARK                         _______ _______ _______ _____ _____    ______ ____
ROOT
ATOM      1  C   UNL     1       2.106   6.769  20.046  0.00  0.00    +0.000 A 
ATOM      2  N   UNL     1       2.969   6.527  19.102  0.00  0.00    +0.000 NA
ATOM      3  N   UNL     1       3.044   5.215  18.720  0.00  0.00    +0.000 N 
ATOM      4  C   UNL     1       3.863   4.623  17.771  0.00  0.00    +0.000 A 
ATOM      5  N   UNL     1       3.642   3.315  17.705  0.00  0.00    +0.000 NA
ATOM      6  C   UNL     1       2.675   3.052  18.633  0.00  0.00    +0.000 A 
ATOM      7  C   UNL     1       2.295   4.211  19.265  0.00  0.00    +0.000 A 
ATOM      8  C   UNL     1       1.358   4.481  20.285  0.00  0.00    +0.000 A 
ATOM      9  O   UNL     1       0.641   3.646  20.830  0.00  0.00    +0.000 OA
ATOM     10  N   UNL     1       1.321   5.799  20.630  0.00  0.00    +0.000 N 
ATOM     11  H   UNL     1       0.664   6.042  21.363  0.00  0.00    +0.000 HD
ENDROOT
BRANCH   1  17
ATOM     12  C   UNL     1       0.704   9.524  22.399  0.00  0.00    +0.000 C 
ATOM     13  C   UNL     1       0.646   8.354  21.406  0.00  0.00    +0.000 C 
ATOM     14  C   UNL     1      -0.373   8.657  20.316  0.00  0.00    +0.000 C 
ATOM     15  N   UNL     1       0.363   9.296  19.202  0.00  0.00    +0.000 NA
ATOM     16  C   UNL     1       1.812   9.256  19.538  0.00  0.00    +0.000 C 
ATOM     17  C   UNL     1       1.953   8.186  20.622  0.00  0.00    +0.000 C 
BRANCH  15  18
ATOM     18  C   UNL     1      -0.067  10.691  18.974  0.00  0.00    +0.000 C 
BRANCH  18  19
ATOM     19  C   UNL     1      -1.492  10.844  18.489  0.00  0.00    +0.000 A 
ATOM     20  C   UNL     1      -2.399  11.688  19.147  0.00  0.00    +0.000 A 
ATOM     21  C   UNL     1      -3.732  11.746  18.731  0.00  0.00    +0.000 A 
ATOM     22  C   UNL     1      -4.155  10.976  17.650  0.00  0.00    +0.000 A 
ATOM     23  F   UNL     1      -5.439  11.020  17.270  0.00  0.00    +0.000 F 
ATOM     24  C   UNL     1      -3.269  10.160  16.964  0.00  0.00    +0.000 A 
ATOM     25  C   UNL     1      -1.947  10.100  17.390  0.00  0.00    +0.000 A 
ATOM     26  F   UNL     1      -1.098   9.303  16.725  0.00  0.00    +0.000 F 
ENDBRANCH  18  19
ENDBRANCH  15  18
ENDBRANCH   1  17
BRANCH   4  27
ATOM     27  C   UNL     1       4.887   5.322  16.930  0.00  0.00    +0.000 C 
ATOM     28  C   UNL     1       5.294   4.528  15.689  0.00  0.00    +0.000 C 
ATOM     29  C   UNL     1       6.322   5.314  14.886  0.00  0.00    +0.000 C 
ATOM     30  O   UNL     1       7.445   5.656  15.697  0.00  0.00    +0.000 OA
ATOM     31  C   UNL     1       7.086   6.497  16.794  0.00  0.00    +0.000 C 
ATOM     32  C   UNL     1       6.110   5.781  17.724  0.00  0.00    +0.000 C 
ENDBRANCH   4  27
TORSDOF 4
ENDMDL
MODEL 5
REMARK VINA RESULT:      -7.6      6.031      9.189
REMARK  Name = 
REMARK  5 active torsions:
REMARK  status: ('A' for Active; 'I' for Inactive)
REMARK    1  A    between atoms: C_1  and  C_2
REMARK    2  A    between atoms: N_4  and  C_5
REMARK    3  A    between atoms: C_5  and  C_6
REMARK    4  A    between atoms: C_15  and  C_16
REMARK    5  A    between atoms: C_19  and  C_20
REMARK                            x       y       z     vdW  Elec       q    Type
REMARK                         _______ _______ _______ _____ _____    ______ ____
ROOT
ATOM      1  C   UNL     1      -1.725  11.537  18.962  0.00  0.00    +0.000 A 
ATOM      2  N   UNL     1      -2.874  11.812  19.510  0.00  0.00    +0.000 NA
ATOM      3  N   UNL     1      -3.944  11.735  18.660  0.00  0.00    +0.000 N 
ATOM      4  C   UNL     1      -5.284  11.983  18.913  0.00  0.00    +0.000 A 
ATOM      5  N   UNL     1      -6.012  11.813  17.815  0.00  0.00    +0.000 NA
ATOM      6  C   UNL     1      -5.130  11.460  16.833  0.00  0.00    +0.000 A 
ATOM      7  C   UNL     1      -3.854  11.407  17.337  0.00  0.00    +0.000 A 
ATOM      8  C   UNL     1      -2.605  11.106  16.751  0.00  0.00    +0.000 A 
ATOM      9  O   UNL     1      -2.429  10.799  15.575  0.00  0.00    +0.000 OA
ATOM     10  N   UNL     1      -1.573  11.197  17.636  0.00  0.00    +0.000 N 
ATOM     11  H   UNL     1      -0.655  10.992  17.259  0.00  0.00    +0.000 HD
ENDROOT
BRANCH   1  17
ATOM     12  C   UNL     1       1.962  12.535  19.674  0.00  0.00    +0.000 C 
ATOM     13  C   UNL     1       0.793  11.920  18.890  0.00  0.00    +0.000 C 
ATOM     14  C   UNL     1       1.183  10.536  18.391  0.00  0.00    +0.000 C 
ATOM     15  N   UNL     1       0.734   9.566  19.415  0.00  0.00    +0.000 NA
ATOM     16  C   UNL     1      -0.035  10.320  20.443  0.00  0.00    +0.000 C 
ATOM     17  C   UNL     1      -0.425  11.640  19.777  0.00  0.00    +0.000 C 
BRANCH  15  18
ATOM     18  C   UNL     1       1.865   8.855  20.048  0.00  0.00    +0.000 C 
BRANCH  18  19
ATOM     19  C   UNL     1       1.955   7.383  19.711  0.00  0.00    +0.000 A 
ATOM     20  C   UNL     1       1.575   6.400  20.636  0.00  0.00    +0.000 A 
ATOM     21  C   UNL     1       1.749   5.046  20.331  0.00  0.00    +0.000 A 
ATOM     22  C   UNL     1       2.284   4.676  19.101  0.00  0.00    +0.000 A 
ATOM     23  F   UNL     1       2.468   3.378  18.824  0.00  0.00    +0.000 F 
ATOM     24  C   UNL     1       2.637   5.629  18.159  0.00  0.00    +0.000 A 
ATOM     25  C   UNL     1       2.471   6.973  18.472  0.00  0.00    +0.000 A 
ATOM     26  F   UNL     1       2.820   7.890  17.557  0.00  0.00    +0.000 F 
ENDBRANCH  18  19
ENDBRANCH  15  18
ENDBRANCH   1  17
BRANCH   4  27
ATOM     27  C   UNL     1      -5.870  12.412  20.224  0.00  0.00    +0.000 C 
ATOM     28  C   UNL     1      -7.174  11.691  20.566  0.00  0.00    +0.000 C 
ATOM     29  C   UNL     1      -7.690  12.171  21.916  0.00  0.00    +0.000 C 
ATOM     30  O   UNL     1      -7.842  13.591  21.925  0.00  0.00    +0.000 OA
ATOM     31  C   UNL     1      -6.603  14.270  21.721  0.00  0.00    +0.000 C 
ATOM     32  C   UNL     1      -6.019  13.927  20.353  0.00  0.00    +0.000 C 
ENDBRANCH   4  27
TORSDOF 4
ENDMDL
MODEL 6
REMARK VINA RESULT:      -7.6      6.983     10.713
REMARK  Name = 
REMARK  5 active torsions:
REMARK  status: ('A' for Active; 'I' for Inactive)
REMARK    1  A    between atoms: C_1  and  C_2
REMARK    2  A    between atoms: N_4  and  C_5
REMARK    3  A    between atoms: C_5  and  C_6
REMARK    4  A    between atoms: C_15  and  C_16
REMARK    5  A    between atoms: C_19  and  C_20
REMARK                            x       y       z     vdW  Elec       q    Type
REMARK                         _______ _______ _______ _____ _____    ______ ____
ROOT
ATOM      1  C   UNL     1      -4.648  11.516  18.705  0.00  0.00    +0.000 A 
ATOM      2  N   UNL     1      -4.669  12.279  19.760  0.00  0.00    +0.000 NA
ATOM      3  N   UNL     1      -5.736  12.071  20.592  0.00  0.00    +0.000 N 
ATOM      4  C   UNL     1      -6.067  12.718  21.771  0.00  0.00    +0.000 A 
ATOM      5  N   UNL     1      -7.196  12.233  22.276  0.00  0.00    +0.000 NA
ATOM      6  C   UNL     1      -7.610  11.266  21.405  0.00  0.00    +0.000 A 
ATOM      7  C   UNL     1      -6.723  11.153  20.364  0.00  0.00    +0.000 A 
ATOM      8  C   UNL     1      -6.690  10.327  19.220  0.00  0.00    +0.000 A 
ATOM      9  O   UNL     1      -7.527   9.475  18.936  0.00  0.00    +0.000 OA
ATOM     10  N   UNL     1      -5.610  10.572  18.425  0.00  0.00    +0.000 N 
ATOM     11  H   UNL     1      -5.545  10.004  17.588  0.00  0.00    +0.000 HD
ENDROOT
BRANCH   1  17
ATOM     12  C   UNL     1      -2.460  10.498  15.659  0.00  0.00    +0.000 C 
ATOM     13  C   UNL     1      -3.137  10.333  17.028  0.00  0.00    +0.000 C 
ATOM     14  C   UNL     1      -2.136   9.778  18.032  0.00  0.00    +0.000 C 
ATOM     15  N   UNL     1      -1.517  10.939  18.710  0.00  0.00    +0.000 NA
ATOM     16  C   UNL     1      -2.220  12.164  18.238  0.00  0.00    +0.000 C 
ATOM     17  C   UNL     1      -3.543  11.675  17.648  0.00  0.00    +0.000 C 
BRANCH  15  18
ATOM     18  C   UNL     1      -0.069  11.046  18.429  0.00  0.00    +0.000 C 
BRANCH  18  19
ATOM     19  C   UNL     1       0.748   9.844  18.850  0.00  0.00    +0.000 A 
ATOM     20  C   UNL     1       1.492   9.106  17.918  0.00  0.00    +0.000 A 
ATOM     21  C   UNL     1       2.169   7.950  18.319  0.00  0.00    +0.000 A 
ATOM     22  C   UNL     1       2.118   7.543  19.649  0.00  0.00    +0.000 A 
ATOM     23  F   UNL     1       2.751   6.423  20.022  0.00  0.00    +0.000 F 
ATOM     24  C   UNL     1       1.416   8.275  20.595  0.00  0.00    +0.000 A 
ATOM     25  C   UNL     1       0.737   9.417  20.187  0.00  0.00    +0.000 A 
ATOM     26  F   UNL     1       0.055  10.116  21.106  0.00  0.00    +0.000 F 
ENDBRANCH  18  19
ENDBRANCH  15  18
ENDBRANCH   1  17
BRANCH   4  27
ATOM     27  C   UNL     1      -5.299  13.834  22.412  0.00  0.00    +0.000 C 
ATOM     28  C   UNL     1      -5.194  15.079  21.530  0.00  0.00    +0.000 C 
ATOM     29  C   UNL     1      -4.415  16.165  22.260  0.00  0.00    +0.000 C 
ATOM     30  O   UNL     1      -3.134  15.684  22.665  0.00  0.00    +0.000 OA
ATOM     31  C   UNL     1      -3.229  14.594  23.582  0.00  0.00    +0.000 C 
ATOM     32  C   UNL     1      -3.928  13.403  22.932  0.00  0.00    +0.000 C 
ENDBRANCH   4  27
TORSDOF 4
ENDMDL
MODEL 7
REMARK VINA RESULT:      -7.4      6.147      9.122
REMARK  Name = 
REMARK  5 active torsions:
REMARK  status: ('A' for Active; 'I' for Inactive)
REMARK    1  A    between atoms: C_1  and  C_2
REMARK    2  A    between atoms: N_4  and  C_5
REMARK    3  A    between atoms: C_5  and  C_6
REMARK    4  A    between atoms: C_15  and  C_16
REMARK    5  A    between atoms: C_19  and  C_20
REMARK                            x       y       z     vdW  Elec       q    Type
REMARK                         _______ _______ _______ _____ _____    ______ ____
ROOT
ATOM      1  C   UNL     1      -1.726  11.419  18.980  0.00  0.00    +0.000 A 
ATOM      2  N   UNL     1      -2.861  11.894  19.406  0.00  0.00    +0.000 NA
ATOM      3  N   UNL     1      -3.879  11.843  18.492  0.00  0.00    +0.000 N 
ATOM      4  C   UNL     1      -5.189  12.279  18.614  0.00  0.00    +0.000 A 
ATOM      5  N   UNL     1      -5.865  12.065  17.491  0.00  0.00    +0.000 NA
ATOM      6  C   UNL     1      -4.979  11.493  16.624  0.00  0.00    +0.000 A 
ATOM      7  C   UNL     1      -3.752  11.349  17.225  0.00  0.00    +0.000 A 
ATOM      8  C   UNL     1      -2.520  10.831  16.772  0.00  0.00    +0.000 A 
ATOM      9  O   UNL     1      -2.314  10.364  15.655  0.00  0.00    +0.000 OA
ATOM     10  N   UNL     1      -1.540  10.904  17.716  0.00  0.00    +0.000 N 
ATOM     11  H   UNL     1      -0.633  10.547  17.435  0.00  0.00    +0.000 HD
ENDROOT
BRANCH   1  17
ATOM     12  C   UNL     1       1.924  12.328  19.953  0.00  0.00    +0.000 C 
ATOM     13  C   UNL     1       0.796  11.769  19.072  0.00  0.00    +0.000 C 
ATOM     14  C   UNL     1       1.198  10.404  18.530  0.00  0.00    +0.000 C 
ATOM     15  N   UNL     1       0.679   9.393  19.478  0.00  0.00    +0.000 NA
ATOM     16  C   UNL     1      -0.140  10.107  20.495  0.00  0.00    +0.000 C 
ATOM     17  C   UNL     1      -0.475  11.463  19.872  0.00  0.00    +0.000 C 
BRANCH  15  18
ATOM     18  C   UNL     1       1.762   8.636  20.140  0.00  0.00    +0.000 C 
BRANCH  18  19
ATOM     19  C   UNL     1       2.292   7.462  19.345  0.00  0.00    +0.000 A 
ATOM     20  C   UNL     1       3.043   7.654  18.176  0.00  0.00    +0.000 A 
ATOM     21  C   UNL     1       3.448   6.553  17.414  0.00  0.00    +0.000 A 
ATOM     22  C   UNL     1       3.119   5.266  17.828  0.00  0.00    +0.000 A 
ATOM     23  F   UNL     1       3.492   4.217  17.082  0.00  0.00    +0.000 F 
ATOM     24  C   UNL     1       2.406   5.051  18.997  0.00  0.00    +0.000 A 
ATOM     25  C   UNL     1       1.998   6.150  19.744  0.00  0.00    +0.000 A 
ATOM     26  F   UNL     1       1.303   5.934  20.871  0.00  0.00    +0.000 F 
ENDBRANCH  18  19
ENDBRANCH  15  18
ENDBRANCH   1  17
BRANCH   4  27
ATOM     27  C   UNL     1      -5.793  12.931  19.820  0.00  0.00    +0.000 C 
ATOM     28  C   UNL     1      -6.378  11.931  20.818  0.00  0.00    +0.000 C 
ATOM     29  C   UNL     1      -6.954  12.673  22.017  0.00  0.00    +0.000 C 
ATOM     30  O   UNL     1      -7.916  13.640  21.598  0.00  0.00    +0.000 OA
ATOM     31  C   UNL     1      -7.347  14.645  20.759  0.00  0.00    +0.000 C 
ATOM     32  C   UNL     1      -6.801  14.027  19.475  0.00  0.00    +0.000 C 
ENDBRANCH   4  27
TORSDOF 4
ENDMDL
MODEL 8
REMARK VINA RESULT:      -7.4      6.870     10.582
REMARK  Name = 
REMARK  5 active torsions:
REMARK  status: ('A' for Active; 'I' for Inactive)
REMARK    1  A    between atoms: C_1  and  C_2
REMARK    2  A    between atoms: N_4  and  C_5
REMARK    3  A    between atoms: C_5  and  C_6
REMARK    4  A    between atoms: C_15  and  C_16
REMARK    5  A    between atoms: C_19  and  C_20
REMARK                            x       y       z     vdW  Elec       q    Type
REMARK                         _______ _______ _______ _____ _____    ______ ____
ROOT
ATOM      1  C   UNL     1      -4.138  12.004  19.273  0.00  0.00    +0.000 A 
ATOM      2  N   UNL     1      -3.886  12.707  20.340  0.00  0.00    +0.000 NA
ATOM      3  N   UNL     1      -4.941  12.831  21.203  0.00  0.00    +0.000 N 
ATOM      4  C   UNL     1      -5.016  13.521  22.403  0.00  0.00    +0.000 A 
ATOM      5  N   UNL     1      -6.227  13.410  22.937  0.00  0.00    +0.000 NA
ATOM      6  C   UNL     1      -6.952  12.648  22.066  0.00  0.00    +0.000 A 
ATOM      7  C   UNL     1      -6.175  12.282  20.995  0.00  0.00    +0.000 A 
ATOM      8  C   UNL     1      -6.439  11.518  19.838  0.00  0.00    +0.000 A 
ATOM      9  O   UNL     1      -7.513  10.985  19.569  0.00  0.00    +0.000 OA
ATOM     10  N   UNL     1      -5.360  11.424  19.012  0.00  0.00    +0.000 N 
ATOM     11  H   UNL     1      -5.502  10.886  18.164  0.00  0.00    +0.000 HD
ENDROOT
BRANCH   1  17
ATOM     12  C   UNL     1      -2.213  10.175  16.437  0.00  0.00    +0.000 C 
ATOM     13  C   UNL     1      -2.845  10.353  17.826  0.00  0.00    +0.000 C 
ATOM     14  C   UNL     1      -1.869   9.884  18.897  0.00  0.00    +0.000 C 
ATOM     15  N   UNL     1      -1.095  11.070  19.325  0.00  0.00    +0.000 NA
ATOM     16  C   UNL     1      -1.675  12.258  18.641  0.00  0.00    +0.000 C 
ATOM     17  C   UNL     1      -3.069  11.827  18.183  0.00  0.00    +0.000 C 
BRANCH  15  18
ATOM     18  C   UNL     1       0.342  10.949  18.999  0.00  0.00    +0.000 C 
BRANCH  18  19
ATOM     19  C   UNL     1       0.951   9.601  19.314  0.00  0.00    +0.000 A 
ATOM     20  C   UNL     1       0.824   9.023  20.586  0.00  0.00    +0.000 A 
ATOM     21  C   UNL     1       1.469   7.816  20.876  0.00  0.00    +0.000 A 
ATOM     22  C   UNL     1       2.223   7.180  19.893  0.00  0.00    +0.000 A 
ATOM     23  F   UNL     1       2.855   6.036  20.184  0.00  0.00    +0.000 F 
ATOM     24  C   UNL     1       2.336   7.716  18.620  0.00  0.00    +0.000 A 
ATOM     25  C   UNL     1       1.701   8.921  18.342  0.00  0.00    +0.000 A 
ATOM     26  F   UNL     1       1.820   9.435  17.109  0.00  0.00    +0.000 F 
ENDBRANCH  18  19
ENDBRANCH  15  18
ENDBRANCH   1  17
BRANCH   4  27
ATOM     27  C   UNL     1      -3.913  14.316  23.034  0.00  0.00    +0.000 C 
ATOM     28  C   UNL     1      -2.742  13.454  23.506  0.00  0.00    +0.000 C 
ATOM     29  C   UNL     1      -1.663  14.339  24.116  0.00  0.00    +0.000 C 
ATOM     30  O   UNL     1      -2.200  15.139  25.169  0.00  0.00    +0.000 OA
ATOM     31  C   UNL     1      -3.216  16.031  24.709  0.00  0.00    +0.000 C 
ATOM     32  C   UNL     1      -4.399  15.251  24.141  0.00  0.00    +0.000 C 
ENDBRANCH   4  27
TORSDOF 4
ENDMDL
MODEL 9
REMARK VINA RESULT:      -7.4      4.655      8.306
REMARK  Name = 
REMARK  5 active torsions:
REMARK  status: ('A' for Active; 'I' for Inactive)
REMARK    1  A    between atoms: C_1  and  C_2
REMARK    2  A    between atoms: N_4  and  C_5
REMARK    3  A    between atoms: C_5  and  C_6
REMARK    4  A    between atoms: C_15  and  C_16
REMARK    5  A    between atoms: C_19  and  C_20
REMARK                            x       y       z     vdW  Elec       q    Type
REMARK                         _______ _______ _______ _____ _____    ______ ____
ROOT
ATOM      1  C   UNL     1       2.374   6.183  19.743  0.00  0.00    +0.000 A 
ATOM      2  N   UNL     1       3.294   5.733  18.939  0.00  0.00    +0.000 NA
ATOM      3  N   UNL     1       3.190   4.400  18.645  0.00  0.00    +0.000 N 
ATOM      4  C   UNL     1       4.007   3.612  17.851  0.00  0.00    +0.000 A 
ATOM      5  N   UNL     1       3.577   2.355  17.829  0.00  0.00    +0.000 NA
ATOM      6  C   UNL     1       2.472   2.325  18.631  0.00  0.00    +0.000 A 
ATOM      7  C   UNL     1       2.220   3.575  19.140  0.00  0.00    +0.000 A 
ATOM      8  C   UNL     1       1.223   4.072  20.007  0.00  0.00    +0.000 A 
ATOM      9  O   UNL     1       0.313   3.408  20.496  0.00  0.00    +0.000 OA
ATOM     10  N   UNL     1       1.369   5.401  20.269  0.00  0.00    +0.000 N 
ATOM     11  H   UNL     1       0.677   5.803  20.892  0.00  0.00    +0.000 HD
ENDROOT
BRANCH   1  17
ATOM     12  C   UNL     1       1.458   9.214  21.996  0.00  0.00    +0.000 C 
ATOM     13  C   UNL     1       1.201   7.982  21.115  0.00  0.00    +0.000 C 
ATOM     14  C   UNL     1       0.090   8.288  20.119  0.00  0.00    +0.000 C 
ATOM     15  N   UNL     1       0.741   8.778  18.883  0.00  0.00    +0.000 NA
ATOM     16  C   UNL     1       2.213   8.642  19.065  0.00  0.00    +0.000 C 
ATOM     17  C   UNL     1       2.394   7.647  20.212  0.00  0.00    +0.000 C 
BRANCH  15  18
ATOM     18  C   UNL     1       0.395  10.184  18.587  0.00  0.00    +0.000 C 
BRANCH  18  19
ATOM     19  C   UNL     1      -1.057  10.417  18.232  0.00  0.00    +0.000 A 
ATOM     20  C   UNL     1      -1.653   9.772  17.139  0.00  0.00    +0.000 A 
ATOM     21  C   UNL     1      -2.972  10.070  16.782  0.00  0.00    +0.000 A 
ATOM     22  C   UNL     1      -3.698  10.996  17.525  0.00  0.00    +0.000 A 
ATOM     23  F   UNL     1      -4.954  11.293  17.164  0.00  0.00    +0.000 F 
ATOM     24  C   UNL     1      -3.141  11.622  18.629  0.00  0.00    +0.000 A 
ATOM     25  C   UNL     1      -1.826  11.329  18.972  0.00  0.00    +0.000 A 
ATOM     26  F   UNL     1      -1.292  11.943  20.038  0.00  0.00    +0.000 F 
ENDBRANCH  18  19
ENDBRANCH  15  18
ENDBRANCH   1  17
BRANCH   4  27
ATOM     27  C   UNL     1       5.233   4.068  17.118  0.00  0.00    +0.000 C 
ATOM     28  C   UNL     1       6.339   4.570  18.047  0.00  0.00    +0.000 C 
ATOM     29  C   UNL     1       7.549   4.997  17.226  0.00  0.00    +0.000 C 
ATOM     30  O   UNL     1       7.180   5.973  16.252  0.00  0.00    +0.000 OA
ATOM     31  C   UNL     1       6.232   5.470  15.311  0.00  0.00    +0.000 C 
ATOM     32  C   UNL     1       4.934   5.078  16.011  0.00  0.00    +0.000 C 
ENDBRANCH   4  27
TORSDOF 4
ENDMDL
