MODEL 1
REMARK VINA RESULT:      -6.9      0.000      0.000
REMARK  Name = 
REMARK  8 active torsions:
REMARK  status: ('A' for Active; 'I' for Inactive)
REMARK    1  A    between atoms: C_2  and  C_3
REMARK    2  A    between atoms: C_3  and  O_4
REMARK    3  A    between atoms: O_4  and  C_5
REMARK    4  A    between atoms: C_5  and  C_6
REMARK    5  A    between atoms: C_6  and  N_7
REMARK    6  A    between atoms: C_6  and  C_8
REMARK    7  A    between atoms: N_10  and  C_11
REMARK    8  A    between atoms: C_11  and  C_12
REMARK                            x       y       z     vdW  Elec       q    Type
REMARK                         _______ _______ _______ _____ _____    ______ ____
ROOT
ATOM      1  C   UNL     1       5.415   5.408  16.162  0.00  0.00    +0.000 C 
ATOM      2  O   UNL     1       5.268   6.494  15.603  0.00  0.00    +0.000 OA
ATOM      3  N   UNL     1       4.628   4.990  17.207  0.00  0.00    +0.000 N 
ATOM      4  H   UNL     1       4.839   4.073  17.592  0.00  0.00    +0.000 HD
ENDROOT
BRANCH   1   5
ATOM      5  C   UNL     1       6.469   4.380  15.714  0.00  0.00    +0.000 C 
BRANCH   5   6
ATOM      6  N   UNL     1       7.770   4.613  16.406  0.00  0.00    +0.000 NA
ATOM      7  H   UNL     1       8.311   3.749  16.361  0.00  0.00    +0.000 HD
ATOM      8  H   UNL     1       7.539   4.707  17.402  0.00  0.00    +0.000 HD
ENDBRANCH   5   6
BRANCH   5   9
ATOM      9  C   UNL     1       6.604   4.445  14.184  0.00  0.00    +0.000 C 
BRANCH   9  10
ATOM     10  O   UNL     1       5.393   4.008  13.553  0.00  0.00    +0.000 OA
BRANCH  10  11
ATOM     11  C   UNL     1       5.691   3.307  12.340  0.00  0.00    +0.000 C 
BRANCH  11  13
ATOM     12  C   UNL     1       3.545   3.212  10.758  0.00  0.00    +0.000 C 
ATOM     13  C   UNL     1       4.500   3.261  11.489  0.00  0.00    +0.000 C 
ENDBRANCH  11  13
ENDBRANCH  10  11
ENDBRANCH   9  10
ENDBRANCH   5   9
ENDBRANCH   1   5
BRANCH   3  14
ATOM     14  C   UNL     1       3.554   5.782  17.752  0.00  0.00    +0.000 C 
BRANCH  14  15
ATOM     15  C   UNL     1       2.611   4.926  18.555  0.00  0.00    +0.000 A 
ATOM     16  C   UNL     1       2.080   3.746  18.017  0.00  0.00    +0.000 A 
ATOM     17  C   UNL     1       1.168   2.984  18.750  0.00  0.00    +0.000 A 
ATOM     18  C   UNL     1       0.778   3.394  20.024  0.00  0.00    +0.000 A 
ATOM     19  C   UNL     1       1.306   4.562  20.571  0.00  0.00    +0.000 A 
ATOM     20  C   UNL     1       2.216   5.327  19.840  0.00  0.00    +0.000 A 
ENDBRANCH  14  15
ENDBRANCH   3  14
TORSDOF 8
ENDMDL
MODEL 2
REMARK VINA RESULT:      -6.8      1.383      2.130
REMARK  Name = 
REMARK  8 active torsions:
REMARK  status: ('A' for Active; 'I' for Inactive)
REMARK    1  A    between atoms: C_2  and  C_3
REMARK    2  A    between atoms: C_3  and  O_4
REMARK    3  A    between atoms: O_4  and  C_5
REMARK    4  A    between atoms: C_5  and  C_6
REMARK    5  A    between atoms: C_6  and  N_7
REMARK    6  A    between atoms: C_6  and  C_8
REMARK    7  A    between atoms: N_10  and  C_11
REMARK    8  A    between atoms: C_11  and  C_12
REMARK                            x       y       z     vdW  Elec       q    Type
REMARK                         _______ _______ _______ _____ _____    ______ ____
ROOT
ATOM      1  C   UNL     1       5.381   5.209  18.122  0.00  0.00    +0.000 C 
ATOM      2  O   UNL     1       5.487   5.299  19.344  0.00  0.00    +0.000 OA
ATOM      3  N   UNL     1       4.257   5.594  17.435  0.00  0.00    +0.000 N 
ATOM      4  H   UNL     1       4.281   5.475  16.425  0.00  0.00    +0.000 HD
ENDROOT
BRANCH   1   5
ATOM      5  C   UNL     1       6.525   4.698  17.226  0.00  0.00    +0.000 C 
BRANCH   5   6
ATOM      6  N   UNL     1       7.719   4.334  18.042  0.00  0.00    +0.000 NA
ATOM      7  H   UNL     1       7.391   3.952  18.930  0.00  0.00    +0.000 HD
ATOM      8  H   UNL     1       8.157   5.225  18.303  0.00  0.00    +0.000 HD
ENDBRANCH   5   6
BRANCH   5   9
ATOM      9  C   UNL     1       6.844   5.771  16.173  0.00  0.00    +0.000 C 
BRANCH   9  10
ATOM     10  O   UNL     1       6.236   5.440  14.917  0.00  0.00    +0.000 OA
BRANCH  10  11
ATOM     11  C   UNL     1       6.723   4.178  14.448  0.00  0.00    +0.000 C 
BRANCH  11  13
ATOM     12  C   UNL     1       5.363   3.444  12.274  0.00  0.00    +0.000 C 
ATOM     13  C   UNL     1       5.964   3.761  13.267  0.00  0.00    +0.000 C 
ENDBRANCH  11  13
ENDBRANCH  10  11
ENDBRANCH   9  10
ENDBRANCH   5   9
ENDBRANCH   1   5
BRANCH   3  14
ATOM     14  C   UNL     1       3.087   6.141  18.078  0.00  0.00    +0.000 C 
BRANCH  14  15
ATOM     15  C   UNL     1       2.262   5.050  18.707  0.00  0.00    +0.000 A 
ATOM     16  C   UNL     1       1.933   5.095  20.068  0.00  0.00    +0.000 A 
ATOM     17  C   UNL     1       1.210   4.054  20.654  0.00  0.00    +0.000 A 
ATOM     18  C   UNL     1       0.810   2.961  19.887  0.00  0.00    +0.000 A 
ATOM     19  C   UNL     1       1.127   2.910  18.530  0.00  0.00    +0.000 A 
ATOM     20  C   UNL     1       1.852   3.948  17.943  0.00  0.00    +0.000 A 
ENDBRANCH  14  15
ENDBRANCH   3  14
TORSDOF 8
ENDMDL
MODEL 3
REMARK VINA RESULT:      -6.8      1.555      1.969
REMARK  Name = 
REMARK  8 active torsions:
REMARK  status: ('A' for Active; 'I' for Inactive)
REMARK    1  A    between atoms: C_2  and  C_3
REMARK    2  A    between atoms: C_3  and  O_4
REMARK    3  A    between atoms: O_4  and  C_5
REMARK    4  A    between atoms: C_5  and  C_6
REMARK    5  A    between atoms: C_6  and  N_7
REMARK    6  A    between atoms: C_6  and  C_8
REMARK    7  A    between atoms: N_10  and  C_11
REMARK    8  A    between atoms: C_11  and  C_12
REMARK                            x       y       z     vdW  Elec       q    Type
REMARK                         _______ _______ _______ _____ _____    ______ ____
ROOT
ATOM      1  C   UNL     1       5.739   5.077  18.323  0.00  0.00    +0.000 C 
ATOM      2  O   UNL     1       5.958   4.866  19.514  0.00  0.00    +0.000 OA
ATOM      3  N   UNL     1       4.617   5.726  17.868  0.00  0.00    +0.000 N 
ATOM      4  H   UNL     1       4.541   5.845  16.862  0.00  0.00    +0.000 HD
ENDROOT
BRANCH   1   5
ATOM      5  C   UNL     1       6.729   4.676  17.213  0.00  0.00    +0.000 C 
BRANCH   5   6
ATOM      6  N   UNL     1       8.044   4.276  17.792  0.00  0.00    +0.000 NA
ATOM      7  H   UNL     1       8.780   4.722  17.242  0.00  0.00    +0.000 HD
ATOM      8  H   UNL     1       8.148   3.277  17.577  0.00  0.00    +0.000 HD
ENDBRANCH   5   6
BRANCH   5   9
ATOM      9  C   UNL     1       6.860   5.844  16.223  0.00  0.00    +0.000 C 
BRANCH   9  10
ATOM     10  O   UNL     1       6.944   5.356  14.878  0.00  0.00    +0.000 OA
BRANCH  10  11
ATOM     11  C   UNL     1       6.266   4.100  14.762  0.00  0.00    +0.000 C 
BRANCH  11  13
ATOM     12  C   UNL     1       6.068   3.368  12.205  0.00  0.00    +0.000 C 
ATOM     13  C   UNL     1       6.161   3.719  13.352  0.00  0.00    +0.000 C 
ENDBRANCH  11  13
ENDBRANCH  10  11
ENDBRANCH   9  10
ENDBRANCH   5   9
ENDBRANCH   1   5
BRANCH   3  14
ATOM     14  C   UNL     1       3.584   6.223  18.744  0.00  0.00    +0.000 C 
BRANCH  14  15
ATOM     15  C   UNL     1       2.641   5.120  19.140  0.00  0.00    +0.000 A 
ATOM     16  C   UNL     1       2.040   4.307  18.169  0.00  0.00    +0.000 A 
ATOM     17  C   UNL     1       1.128   3.318  18.542  0.00  0.00    +0.000 A 
ATOM     18  C   UNL     1       0.807   3.133  19.886  0.00  0.00    +0.000 A 
ATOM     19  C   UNL     1       1.404   3.931  20.860  0.00  0.00    +0.000 A 
ATOM     20  C   UNL     1       2.315   4.922  20.489  0.00  0.00    +0.000 A 
ENDBRANCH  14  15
ENDBRANCH   3  14
TORSDOF 8
ENDMDL
MODEL 4
REMARK VINA RESULT:      -6.7      2.373      3.866
REMARK  Name = 
REMARK  8 active torsions:
REMARK  status: ('A' for Active; 'I' for Inactive)
REMARK    1  A    between atoms: C_2  and  C_3
REMARK    2  A    between atoms: C_3  and  O_4
REMARK    3  A    between atoms: O_4  and  C_5
REMARK    4  A    between atoms: C_5  and  C_6
REMARK    5  A    between atoms: C_6  and  N_7
REMARK    6  A    between atoms: C_6  and  C_8
REMARK    7  A    between atoms: N_10  and  C_11
REMARK    8  A    between atoms: C_11  and  C_12
REMARK                            x       y       z     vdW  Elec       q    Type
REMARK                         _______ _______ _______ _____ _____    ______ ____
ROOT
ATOM      1  C   UNL     1       5.344   5.481  16.225  0.00  0.00    +0.000 C 
ATOM      2  O   UNL     1       5.196   6.574  15.682  0.00  0.00    +0.000 OA
ATOM      3  N   UNL     1       4.482   4.992  17.175  0.00  0.00    +0.000 N 
ATOM      4  H   UNL     1       4.702   4.075  17.556  0.00  0.00    +0.000 HD
ENDROOT
BRANCH   1   5
ATOM      5  C   UNL     1       6.490   4.520  15.857  0.00  0.00    +0.000 C 
BRANCH   5   6
ATOM      6  N   UNL     1       5.995   3.116  15.752  0.00  0.00    +0.000 NA
ATOM      7  H   UNL     1       5.623   2.843  16.662  0.00  0.00    +0.000 HD
ATOM      8  H   UNL     1       6.834   2.535  15.645  0.00  0.00    +0.000 HD
ENDBRANCH   5   6
BRANCH   5   9
ATOM      9  C   UNL     1       7.610   4.665  16.900  0.00  0.00    +0.000 C 
BRANCH   9  10
ATOM     10  O   UNL     1       7.062   4.696  18.225  0.00  0.00    +0.000 OA
BRANCH  10  11
ATOM     11  C   UNL     1       7.731   5.685  19.016  0.00  0.00    +0.000 C 
BRANCH  11  13
ATOM     12  C   UNL     1       7.854   7.992  17.683  0.00  0.00    +0.000 C 
ATOM     13  C   UNL     1       7.815   6.943  18.271  0.00  0.00    +0.000 C 
ENDBRANCH  11  13
ENDBRANCH  10  11
ENDBRANCH   9  10
ENDBRANCH   5   9
ENDBRANCH   1   5
BRANCH   3  14
ATOM     14  C   UNL     1       3.319   5.713  17.632  0.00  0.00    +0.000 C 
BRANCH  14  15
ATOM     15  C   UNL     1       2.442   4.832  18.480  0.00  0.00    +0.000 A 
ATOM     16  C   UNL     1       1.826   3.697  17.936  0.00  0.00    +0.000 A 
ATOM     17  C   UNL     1       0.974   2.913  18.717  0.00  0.00    +0.000 A 
ATOM     18  C   UNL     1       0.729   3.257  20.045  0.00  0.00    +0.000 A 
ATOM     19  C   UNL     1       1.342   4.380  20.598  0.00  0.00    +0.000 A 
ATOM     20  C   UNL     1       2.193   5.166  19.819  0.00  0.00    +0.000 A 
ENDBRANCH  14  15
ENDBRANCH   3  14
TORSDOF 8
ENDMDL
MODEL 5
REMARK VINA RESULT:      -6.5      1.431      1.895
REMARK  Name = 
REMARK  8 active torsions:
REMARK  status: ('A' for Active; 'I' for Inactive)
REMARK    1  A    between atoms: C_2  and  C_3
REMARK    2  A    between atoms: C_3  and  O_4
REMARK    3  A    between atoms: O_4  and  C_5
REMARK    4  A    between atoms: C_5  and  C_6
REMARK    5  A    between atoms: C_6  and  N_7
REMARK    6  A    between atoms: C_6  and  C_8
REMARK    7  A    between atoms: N_10  and  C_11
REMARK    8  A    between atoms: C_11  and  C_12
REMARK                            x       y       z     vdW  Elec       q    Type
REMARK                         _______ _______ _______ _____ _____    ______ ____
ROOT
ATOM      1  C   UNL     1       6.184   5.098  17.594  0.00  0.00    +0.000 C 
ATOM      2  O   UNL     1       6.992   4.503  18.305  0.00  0.00    +0.000 OA
ATOM      3  N   UNL     1       4.964   5.535  18.045  0.00  0.00    +0.000 N 
ATOM      4  H   UNL     1       4.377   6.017  17.369  0.00  0.00    +0.000 HD
ENDROOT
BRANCH   1   5
ATOM      5  C   UNL     1       6.481   5.461  16.127  0.00  0.00    +0.000 C 
BRANCH   5   6
ATOM      6  N   UNL     1       5.447   6.392  15.588  0.00  0.00    +0.000 NA
ATOM      7  H   UNL     1       5.888   6.975  14.876  0.00  0.00    +0.000 HD
ATOM      8  H   UNL     1       5.243   7.048  16.351  0.00  0.00    +0.000 HD
ENDBRANCH   5   6
BRANCH   5   9
ATOM      9  C   UNL     1       6.579   4.164  15.307  0.00  0.00    +0.000 C 
BRANCH   9  10
ATOM     10  O   UNL     1       5.578   4.140  14.282  0.00  0.00    +0.000 OA
BRANCH  10  11
ATOM     11  C   UNL     1       6.139   3.674  13.050  0.00  0.00    +0.000 C 
BRANCH  11  13
ATOM     12  C   UNL     1       4.218   3.178  11.268  0.00  0.00    +0.000 C 
ATOM     13  C   UNL     1       5.071   3.415  12.083  0.00  0.00    +0.000 C 
ENDBRANCH  11  13
ENDBRANCH  10  11
ENDBRANCH   9  10
ENDBRANCH   5   9
ENDBRANCH   1   5
BRANCH   3  14
ATOM     14  C   UNL     1       4.507   5.337  19.399  0.00  0.00    +0.000 C 
BRANCH  14  15
ATOM     15  C   UNL     1       3.177   4.632  19.418  0.00  0.00    +0.000 A 
ATOM     16  C   UNL     1       2.439   4.526  20.605  0.00  0.00    +0.000 A 
ATOM     17  C   UNL     1       1.231   3.827  20.625  0.00  0.00    +0.000 A 
ATOM     18  C   UNL     1       0.750   3.228  19.461  0.00  0.00    +0.000 A 
ATOM     19  C   UNL     1       1.472   3.334  18.274  0.00  0.00    +0.000 A 
ATOM     20  C   UNL     1       2.682   4.031  18.252  0.00  0.00    +0.000 A 
ENDBRANCH  14  15
ENDBRANCH   3  14
TORSDOF 8
ENDMDL
MODEL 6
REMARK VINA RESULT:      -6.5      1.610      2.361
REMARK  Name = 
REMARK  8 active torsions:
REMARK  status: ('A' for Active; 'I' for Inactive)
REMARK    1  A    between atoms: C_2  and  C_3
REMARK    2  A    between atoms: C_3  and  O_4
REMARK    3  A    between atoms: O_4  and  C_5
REMARK    4  A    between atoms: C_5  and  C_6
REMARK    5  A    between atoms: C_6  and  N_7
REMARK    6  A    between atoms: C_6  and  C_8
REMARK    7  A    between atoms: N_10  and  C_11
REMARK    8  A    between atoms: C_11  and  C_12
REMARK                            x       y       z     vdW  Elec       q    Type
REMARK                         _______ _______ _______ _____ _____    ______ ____
ROOT
ATOM      1  C   UNL     1       5.190   6.496  17.202  0.00  0.00    +0.000 C 
ATOM      2  O   UNL     1       4.814   6.912  16.107  0.00  0.00    +0.000 OA
ATOM      3  N   UNL     1       4.329   6.207  18.232  0.00  0.00    +0.000 N 
ATOM      4  H   UNL     1       4.751   5.868  19.092  0.00  0.00    +0.000 HD
ENDROOT
BRANCH   1   5
ATOM      5  C   UNL     1       6.669   6.206  17.516  0.00  0.00    +0.000 C 
BRANCH   5   6
ATOM      6  N   UNL     1       7.569   7.006  16.634  0.00  0.00    +0.000 NA
ATOM      7  H   UNL     1       7.097   7.137  15.738  0.00  0.00    +0.000 HD
ATOM      8  H   UNL     1       8.356   6.387  16.409  0.00  0.00    +0.000 HD
ENDBRANCH   5   6
BRANCH   5   9
ATOM      9  C   UNL     1       6.916   4.694  17.381  0.00  0.00    +0.000 C 
BRANCH   9  10
ATOM     10  O   UNL     1       7.268   4.361  16.031  0.00  0.00    +0.000 OA
BRANCH  10  11
ATOM     11  C   UNL     1       6.160   3.741  15.368  0.00  0.00    +0.000 C 
BRANCH  11  13
ATOM     12  C   UNL     1       6.449   3.878  12.720  0.00  0.00    +0.000 C 
ATOM     13  C   UNL     1       6.339   3.826  13.917  0.00  0.00    +0.000 C 
ENDBRANCH  11  13
ENDBRANCH  10  11
ENDBRANCH   9  10
ENDBRANCH   5   9
ENDBRANCH   1   5
BRANCH   3  14
ATOM     14  C   UNL     1       2.899   6.366  18.132  0.00  0.00    +0.000 C 
BRANCH  14  15
ATOM     15  C   UNL     1       2.186   5.186  18.737  0.00  0.00    +0.000 A 
ATOM     16  C   UNL     1       1.943   5.125  20.116  0.00  0.00    +0.000 A 
ATOM     17  C   UNL     1       1.326   4.005  20.676  0.00  0.00    +0.000 A 
ATOM     18  C   UNL     1       0.947   2.937  19.864  0.00  0.00    +0.000 A 
ATOM     19  C   UNL     1       1.178   2.990  18.491  0.00  0.00    +0.000 A 
ATOM     20  C   UNL     1       1.797   4.108  17.929  0.00  0.00    +0.000 A 
ENDBRANCH  14  15
ENDBRANCH   3  14
TORSDOF 8
ENDMDL
MODEL 7
REMARK VINA RESULT:      -6.5      1.058      1.590
REMARK  Name = 
REMARK  8 active torsions:
REMARK  status: ('A' for Active; 'I' for Inactive)
REMARK    1  A    between atoms: C_2  and  C_3
REMARK    2  A    between atoms: C_3  and  O_4
REMARK    3  A    between atoms: O_4  and  C_5
REMARK    4  A    between atoms: C_5  and  C_6
REMARK    5  A    between atoms: C_6  and  N_7
REMARK    6  A    between atoms: C_6  and  C_8
REMARK    7  A    between atoms: N_10  and  C_11
REMARK    8  A    between atoms: C_11  and  C_12
REMARK                            x       y       z     vdW  Elec       q    Type
REMARK                         _______ _______ _______ _____ _____    ______ ____
ROOT
ATOM      1  C   UNL     1       5.717   5.283  17.095  0.00  0.00    +0.000 C 
ATOM      2  O   UNL     1       6.089   6.374  17.523  0.00  0.00    +0.000 OA
ATOM      3  N   UNL     1       4.412   4.858  17.152  0.00  0.00    +0.000 N 
ATOM      4  H   UNL     1       4.219   3.938  16.767  0.00  0.00    +0.000 HD
ENDROOT
BRANCH   1   5
ATOM      5  C   UNL     1       6.672   4.294  16.402  0.00  0.00    +0.000 C 
BRANCH   5   6
ATOM      6  N   UNL     1       7.981   4.229  17.115  0.00  0.00    +0.000 NA
ATOM      7  H   UNL     1       8.314   3.265  17.076  0.00  0.00    +0.000 HD
ATOM      8  H   UNL     1       7.763   4.374  18.107  0.00  0.00    +0.000 HD
ENDBRANCH   5   6
BRANCH   5   9
ATOM      9  C   UNL     1       6.830   4.709  14.931  0.00  0.00    +0.000 C 
BRANCH   9  10
ATOM     10  O   UNL     1       6.042   3.862  14.083  0.00  0.00    +0.000 OA
BRANCH  10  11
ATOM     11  C   UNL     1       6.529   3.917  12.737  0.00  0.00    +0.000 C 
BRANCH  11  13
ATOM     12  C   UNL     1       5.700   1.797  11.348  0.00  0.00    +0.000 C 
ATOM     13  C   UNL     1       6.062   2.746  11.992  0.00  0.00    +0.000 C 
ENDBRANCH  11  13
ENDBRANCH  10  11
ENDBRANCH   9  10
ENDBRANCH   5   9
ENDBRANCH   1   5
BRANCH   3  14
ATOM     14  C   UNL     1       3.349   5.650  17.722  0.00  0.00    +0.000 C 
BRANCH  14  15
ATOM     15  C   UNL     1       2.407   4.789  18.519  0.00  0.00    +0.000 A 
ATOM     16  C   UNL     1       2.086   5.113  19.844  0.00  0.00    +0.000 A 
ATOM     17  C   UNL     1       1.251   4.281  20.592  0.00  0.00    +0.000 A 
ATOM     18  C   UNL     1       0.730   3.120  20.024  0.00  0.00    +0.000 A 
ATOM     19  C   UNL     1       1.037   2.792  18.704  0.00  0.00    +0.000 A 
ATOM     20  C   UNL     1       1.874   3.621  17.955  0.00  0.00    +0.000 A 
ENDBRANCH  14  15
ENDBRANCH   3  14
TORSDOF 8
ENDMDL
MODEL 8
REMARK VINA RESULT:      -6.4      1.705      2.310
REMARK  Name = 
REMARK  8 active torsions:
REMARK  status: ('A' for Active; 'I' for Inactive)
REMARK    1  A    between atoms: C_2  and  C_3
REMARK    2  A    between atoms: C_3  and  O_4
REMARK    3  A    between atoms: O_4  and  C_5
REMARK    4  A    between atoms: C_5  and  C_6
REMARK    5  A    between atoms: C_6  and  N_7
REMARK    6  A    between atoms: C_6  and  C_8
REMARK    7  A    between atoms: N_10  and  C_11
REMARK    8  A    between atoms: C_11  and  C_12
REMARK                            x       y       z     vdW  Elec       q    Type
REMARK                         _______ _______ _______ _____ _____    ______ ____
ROOT
ATOM      1  C   UNL     1       4.730   4.720  17.395  0.00  0.00    +0.000 C 
ATOM      2  O   UNL     1       3.702   5.339  17.129  0.00  0.00    +0.000 OA
ATOM      3  N   UNL     1       4.746   3.378  17.683  0.00  0.00    +0.000 N 
ATOM      4  H   UNL     1       5.655   2.970  17.887  0.00  0.00    +0.000 HD
ENDROOT
BRANCH   1   5
ATOM      5  C   UNL     1       6.122   5.380  17.384  0.00  0.00    +0.000 C 
BRANCH   5   6
ATOM      6  N   UNL     1       6.049   6.769  16.843  0.00  0.00    +0.000 NA
ATOM      7  H   UNL     1       6.525   6.781  15.940  0.00  0.00    +0.000 HD
ATOM      8  H   UNL     1       6.658   7.332  17.449  0.00  0.00    +0.000 HD
ENDBRANCH   5   6
BRANCH   5   9
ATOM      9  C   UNL     1       7.083   4.491  16.578  0.00  0.00    +0.000 C 
BRANCH   9  10
ATOM     10  O   UNL     1       6.398   3.880  15.476  0.00  0.00    +0.000 OA
BRANCH  10  11
ATOM     11  C   UNL     1       6.794   4.494  14.244  0.00  0.00    +0.000 C 
BRANCH  11  13
ATOM     12  C   UNL     1       5.667   3.181  12.215  0.00  0.00    +0.000 C 
ATOM     13  C   UNL     1       6.193   3.778  13.117  0.00  0.00    +0.000 C 
ENDBRANCH  11  13
ENDBRANCH  10  11
ENDBRANCH   9  10
ENDBRANCH   5   9
ENDBRANCH   1   5
BRANCH   3  14
ATOM     14  C   UNL     1       3.557   2.561  17.704  0.00  0.00    +0.000 C 
BRANCH  14  15
ATOM     15  C   UNL     1       2.809   2.737  18.998  0.00  0.00    +0.000 A 
ATOM     16  C   UNL     1       1.493   3.217  19.005  0.00  0.00    +0.000 A 
ATOM     17  C   UNL     1       0.823   3.424  20.213  0.00  0.00    +0.000 A 
ATOM     18  C   UNL     1       1.462   3.155  21.422  0.00  0.00    +0.000 A 
ATOM     19  C   UNL     1       2.770   2.671  21.426  0.00  0.00    +0.000 A 
ATOM     20  C   UNL     1       3.442   2.465  20.220  0.00  0.00    +0.000 A 
ENDBRANCH  14  15
ENDBRANCH   3  14
TORSDOF 8
ENDMDL
MODEL 9
REMARK VINA RESULT:      -6.4      3.187      4.262
REMARK  Name = 
REMARK  8 active torsions:
REMARK  status: ('A' for Active; 'I' for Inactive)
REMARK    1  A    between atoms: C_2  and  C_3
REMARK    2  A    between atoms: C_3  and  O_4
REMARK    3  A    between atoms: O_4  and  C_5
REMARK    4  A    between atoms: C_5  and  C_6
REMARK    5  A    between atoms: C_6  and  N_7
REMARK    6  A    between atoms: C_6  and  C_8
REMARK    7  A    between atoms: N_10  and  C_11
REMARK    8  A    between atoms: C_11  and  C_12
REMARK                            x       y       z     vdW  Elec       q    Type
REMARK                         _______ _______ _______ _____ _____    ______ ____
ROOT
ATOM      1  C   UNL     1       5.802   4.487  18.671  0.00  0.00    +0.000 C 
ATOM      2  O   UNL     1       5.891   5.190  19.675  0.00  0.00    +0.000 OA
ATOM      3  N   UNL     1       5.259   3.226  18.681  0.00  0.00    +0.000 N 
ATOM      4  H   UNL     1       5.237   2.735  17.791  0.00  0.00    +0.000 HD
ENDROOT
BRANCH   1   5
ATOM      5  C   UNL     1       6.250   4.969  17.278  0.00  0.00    +0.000 C 
BRANCH   5   6
ATOM      6  N   UNL     1       7.737   4.941  17.157  0.00  0.00    +0.000 NA
ATOM      7  H   UNL     1       8.113   5.712  17.711  0.00  0.00    +0.000 HD
ATOM      8  H   UNL     1       7.940   5.214  16.188  0.00  0.00    +0.000 HD
ENDBRANCH   5   6
BRANCH   5   9
ATOM      9  C   UNL     1       5.672   6.372  17.032  0.00  0.00    +0.000 C 
BRANCH   9  10
ATOM     10  O   UNL     1       4.250   6.306  16.860  0.00  0.00    +0.000 OA
BRANCH  10  11
ATOM     11  C   UNL     1       3.612   7.359  17.591  0.00  0.00    +0.000 C 
BRANCH  11  13
ATOM     12  C   UNL     1       2.335   6.367  19.712  0.00  0.00    +0.000 C 
ATOM     13  C   UNL     1       2.931   6.807  18.764  0.00  0.00    +0.000 C 
ENDBRANCH  11  13
ENDBRANCH  10  11
ENDBRANCH   9  10
ENDBRANCH   5   9
ENDBRANCH   1   5
BRANCH   3  14
ATOM     14  C   UNL     1       4.739   2.601  19.873  0.00  0.00    +0.000 C 
BRANCH  14  15
ATOM     15  C   UNL     1       3.241   2.732  19.936  0.00  0.00    +0.000 A 
ATOM     16  C   UNL     1       2.470   2.722  18.766  0.00  0.00    +0.000 A 
ATOM     17  C   UNL     1       1.086   2.893  18.830  0.00  0.00    +0.000 A 
ATOM     18  C   UNL     1       0.460   3.078  20.061  0.00  0.00    +0.000 A 
ATOM     19  C   UNL     1       1.217   3.082  21.233  0.00  0.00    +0.000 A 
ATOM     20  C   UNL     1       2.601   2.913  21.171  0.00  0.00    +0.000 A 
ENDBRANCH  14  15
ENDBRANCH   3  14
TORSDOF 8
ENDMDL
