MODEL 1
REMARK VINA RESULT:      -7.9      0.000      0.000
REMARK  Name = 
REMARK  4 active torsions:
REMARK  status: ('A' for Active; 'I' for Inactive)
REMARK    1  A    between atoms: C_2  and  C_13
REMARK    2  A    between atoms: C_13  and  C_14
REMARK    3  A    between atoms: C_13  and  S_20
REMARK    4  A    between atoms: S_20  and  O_23
REMARK                            x       y       z     vdW  Elec       q    Type
REMARK                         _______ _______ _______ _____ _____    ______ ____
ROOT
ATOM      1  O   UNL     1       2.132   5.785  20.002  0.00  0.00    +0.000 OA
ATOM      2  C   UNL     1       2.492   6.490  19.054  0.00  0.00    +0.000 C 
ATOM      3  N   UNL     1       2.222   7.846  18.930  0.00  0.00    +0.000 N 
ATOM      4  C   UNL     1       1.527   8.596  19.854  0.00  0.00    +0.000 A 
ATOM      5  N   UNL     1       0.950   9.726  19.528  0.00  0.00    +0.000 NA
ATOM      6  C   UNL     1       0.242  10.211  20.621  0.00  0.00    +0.000 A 
ATOM      7  C   UNL     1      -0.602  11.341  20.637  0.00  0.00    +0.000 A 
ATOM      8  C   UNL     1      -1.279  11.689  21.814  0.00  0.00    +0.000 A 
ATOM      9  C   UNL     1      -1.109  10.942  22.975  0.00  0.00    +0.000 A 
ATOM     10  C   UNL     1      -0.265   9.829  22.991  0.00  0.00    +0.000 A 
ATOM     11  C   UNL     1       0.388   9.476  21.800  0.00  0.00    +0.000 A 
ATOM     12  S   UNL     1       1.438   8.152  21.496  0.00  0.00    +0.000 S 
ATOM     13  H   UNL     1       2.311   8.309  18.035  0.00  0.00    +0.000 HD
ENDROOT
BRANCH   2  14
ATOM     14  C   UNL     1       3.304   5.914  17.913  0.00  0.00    +0.000 C 
BRANCH  14  15
ATOM     15  C   UNL     1       4.809   5.986  18.097  0.00  0.00    +0.000 A 
ATOM     16  C   UNL     1       5.470   5.377  19.176  0.00  0.00    +0.000 A 
ATOM     17  C   UNL     1       6.853   5.512  19.333  0.00  0.00    +0.000 A 
ATOM     18  C   UNL     1       7.598   6.242  18.411  0.00  0.00    +0.000 A 
ATOM     19  C   UNL     1       6.964   6.827  17.320  0.00  0.00    +0.000 A 
ATOM     20  C   UNL     1       5.582   6.700  17.163  0.00  0.00    +0.000 A 
ENDBRANCH  14  15
BRANCH  14  21
ATOM     21  S   UNL     1       2.766   4.204  17.666  0.00  0.00    +0.000 S 
ATOM     22  O   UNL     1       1.342   4.217  17.398  0.00  0.00    +0.000 OA
ATOM     23  O   UNL     1       3.673   3.518  16.770  0.00  0.00    +0.000 OA
BRANCH  21  24
ATOM     24  O   UNL     1       2.960   3.587  19.151  0.00  0.00    +0.000 OA
ATOM     25  H   UNL     1       3.500   4.213  19.696  0.00  0.00    +0.000 HD
ENDBRANCH  21  24
ENDBRANCH  14  21
ENDBRANCH   2  14
TORSDOF 4
ENDMDL
MODEL 2
REMARK VINA RESULT:      -7.8      3.117      4.050
REMARK  Name = 
REMARK  4 active torsions:
REMARK  status: ('A' for Active; 'I' for Inactive)
REMARK    1  A    between atoms: C_2  and  C_13
REMARK    2  A    between atoms: C_13  and  C_14
REMARK    3  A    between atoms: C_13  and  S_20
REMARK    4  A    between atoms: S_20  and  O_23
REMARK                            x       y       z     vdW  Elec       q    Type
REMARK                         _______ _______ _______ _____ _____    ______ ____
ROOT
ATOM      1  O   UNL     1       5.040   7.168  16.851  0.00  0.00    +0.000 OA
ATOM      2  C   UNL     1       4.874   6.124  17.490  0.00  0.00    +0.000 C 
ATOM      3  N   UNL     1       3.908   5.941  18.471  0.00  0.00    +0.000 N 
ATOM      4  C   UNL     1       2.992   6.895  18.858  0.00  0.00    +0.000 A 
ATOM      5  N   UNL     1       2.395   6.842  20.022  0.00  0.00    +0.000 NA
ATOM      6  C   UNL     1       1.607   7.976  20.185  0.00  0.00    +0.000 A 
ATOM      7  C   UNL     1       0.898   8.342  21.348  0.00  0.00    +0.000 A 
ATOM      8  C   UNL     1       0.171   9.539  21.373  0.00  0.00    +0.000 A 
ATOM      9  C   UNL     1       0.122  10.361  20.252  0.00  0.00    +0.000 A 
ATOM     10  C   UNL     1       0.800  10.012  19.081  0.00  0.00    +0.000 A 
ATOM     11  C   UNL     1       1.547   8.823  19.077  0.00  0.00    +0.000 A 
ATOM     12  S   UNL     1       2.511   8.159  17.822  0.00  0.00    +0.000 S 
ATOM     13  H   UNL     1       3.981   5.177  19.128  0.00  0.00    +0.000 HD
ENDROOT
BRANCH   2  14
ATOM     14  C   UNL     1       5.734   4.903  17.234  0.00  0.00    +0.000 C 
BRANCH  14  15
ATOM     15  C   UNL     1       6.097   4.669  15.779  0.00  0.00    +0.000 A 
ATOM     16  C   UNL     1       7.237   5.233  15.183  0.00  0.00    +0.000 A 
ATOM     17  C   UNL     1       7.506   5.032  13.826  0.00  0.00    +0.000 A 
ATOM     18  C   UNL     1       6.652   4.255  13.047  0.00  0.00    +0.000 A 
ATOM     19  C   UNL     1       5.535   3.664  13.627  0.00  0.00    +0.000 A 
ATOM     20  C   UNL     1       5.259   3.869  14.981  0.00  0.00    +0.000 A 
ENDBRANCH  14  15
BRANCH  14  21
ATOM     21  S   UNL     1       7.220   5.057  18.253  0.00  0.00    +0.000 S 
ATOM     22  O   UNL     1       6.815   5.031  19.644  0.00  0.00    +0.000 OA
ATOM     23  O   UNL     1       8.250   4.159  17.775  0.00  0.00    +0.000 OA
BRANCH  21  24
ATOM     24  O   UNL     1       7.682   6.575  17.925  0.00  0.00    +0.000 OA
ATOM     25  H   UNL     1       8.280   6.569  17.135  0.00  0.00    +0.000 HD
ENDBRANCH  21  24
ENDBRANCH  14  21
ENDBRANCH   2  14
TORSDOF 4
ENDMDL
MODEL 3
REMARK VINA RESULT:      -7.8      1.288      1.862
REMARK  Name = 
REMARK  4 active torsions:
REMARK  status: ('A' for Active; 'I' for Inactive)
REMARK    1  A    between atoms: C_2  and  C_13
REMARK    2  A    between atoms: C_13  and  C_14
REMARK    3  A    between atoms: C_13  and  S_20
REMARK    4  A    between atoms: S_20  and  O_23
REMARK                            x       y       z     vdW  Elec       q    Type
REMARK                         _______ _______ _______ _____ _____    ______ ____
ROOT
ATOM      1  O   UNL     1       2.973   8.449  17.379  0.00  0.00    +0.000 OA
ATOM      2  C   UNL     1       3.037   7.394  18.019  0.00  0.00    +0.000 C 
ATOM      3  N   UNL     1       2.380   7.154  19.218  0.00  0.00    +0.000 N 
ATOM      4  C   UNL     1       1.554   8.055  19.854  0.00  0.00    +0.000 A 
ATOM      5  N   UNL     1       1.294   7.964  21.134  0.00  0.00    +0.000 NA
ATOM      6  C   UNL     1       0.523   9.053  21.525  0.00  0.00    +0.000 A 
ATOM      7  C   UNL     1       0.134   9.373  22.842  0.00  0.00    +0.000 A 
ATOM      8  C   UNL     1      -0.620  10.530  23.084  0.00  0.00    +0.000 A 
ATOM      9  C   UNL     1      -1.008  11.354  22.032  0.00  0.00    +0.000 A 
ATOM     10  C   UNL     1      -0.652  11.049  20.717  0.00  0.00    +0.000 A 
ATOM     11  C   UNL     1       0.125   9.902  20.490  0.00  0.00    +0.000 A 
ATOM     12  S   UNL     1       0.750   9.297  19.010  0.00  0.00    +0.000 S 
ATOM     13  H   UNL     1       2.665   6.391  19.817  0.00  0.00    +0.000 HD
ENDROOT
BRANCH   2  14
ATOM     14  C   UNL     1       3.857   6.223  17.518  0.00  0.00    +0.000 C 
BRANCH  14  15
ATOM     15  C   UNL     1       5.316   6.237  17.936  0.00  0.00    +0.000 A 
ATOM     16  C   UNL     1       5.806   5.467  19.004  0.00  0.00    +0.000 A 
ATOM     17  C   UNL     1       7.148   5.549  19.387  0.00  0.00    +0.000 A 
ATOM     18  C   UNL     1       8.024   6.387  18.702  0.00  0.00    +0.000 A 
ATOM     19  C   UNL     1       7.564   7.134  17.623  0.00  0.00    +0.000 A 
ATOM     20  C   UNL     1       6.222   7.060  17.242  0.00  0.00    +0.000 A 
ENDBRANCH  14  15
BRANCH  14  21
ATOM     21  S   UNL     1       3.042   4.707  18.073  0.00  0.00    +0.000 S 
ATOM     22  O   UNL     1       3.509   3.616  17.241  0.00  0.00    +0.000 OA
ATOM     23  O   UNL     1       3.106   4.604  19.516  0.00  0.00    +0.000 OA
BRANCH  21  24
ATOM     24  O   UNL     1       1.504   4.994  17.654  0.00  0.00    +0.000 OA
ATOM     25  H   UNL     1       1.243   5.893  17.975  0.00  0.00    +0.000 HD
ENDBRANCH  21  24
ENDBRANCH  14  21
ENDBRANCH   2  14
TORSDOF 4
ENDMDL
MODEL 4
REMARK VINA RESULT:      -7.8      3.233      4.284
REMARK  Name = 
REMARK  4 active torsions:
REMARK  status: ('A' for Active; 'I' for Inactive)
REMARK    1  A    between atoms: C_2  and  C_13
REMARK    2  A    between atoms: C_13  and  C_14
REMARK    3  A    between atoms: C_13  and  S_20
REMARK    4  A    between atoms: S_20  and  O_23
REMARK                            x       y       z     vdW  Elec       q    Type
REMARK                         _______ _______ _______ _____ _____    ______ ____
ROOT
ATOM      1  O   UNL     1       4.888   7.006  16.240  0.00  0.00    +0.000 OA
ATOM      2  C   UNL     1       4.891   6.025  16.991  0.00  0.00    +0.000 C 
ATOM      3  N   UNL     1       4.079   5.881  18.108  0.00  0.00    +0.000 N 
ATOM      4  C   UNL     1       3.147   6.807  18.526  0.00  0.00    +0.000 A 
ATOM      5  N   UNL     1       2.713   6.836  19.760  0.00  0.00    +0.000 NA
ATOM      6  C   UNL     1       1.866   7.927  19.923  0.00  0.00    +0.000 A 
ATOM      7  C   UNL     1       1.287   8.363  21.133  0.00  0.00    +0.000 A 
ATOM      8  C   UNL     1       0.476   9.506  21.146  0.00  0.00    +0.000 A 
ATOM      9  C   UNL     1       0.217  10.202  19.969  0.00  0.00    +0.000 A 
ATOM     10  C   UNL     1       0.763   9.780  18.755  0.00  0.00    +0.000 A 
ATOM     11  C   UNL     1       1.594   8.649  18.759  0.00  0.00    +0.000 A 
ATOM     12  S   UNL     1       2.437   7.923  17.452  0.00  0.00    +0.000 S 
ATOM     13  H   UNL     1       4.296   5.196  18.818  0.00  0.00    +0.000 HD
ENDROOT
BRANCH   2  14
ATOM     14  C   UNL     1       5.804   4.844  16.734  0.00  0.00    +0.000 C 
BRANCH  14  15
ATOM     15  C   UNL     1       6.203   4.645  15.284  0.00  0.00    +0.000 A 
ATOM     16  C   UNL     1       7.313   5.285  14.709  0.00  0.00    +0.000 A 
ATOM     17  C   UNL     1       7.615   5.112  13.355  0.00  0.00    +0.000 A 
ATOM     18  C   UNL     1       6.823   4.289  12.558  0.00  0.00    +0.000 A 
ATOM     19  C   UNL     1       5.737   3.624  13.117  0.00  0.00    +0.000 A 
ATOM     20  C   UNL     1       5.429   3.800  14.468  0.00  0.00    +0.000 A 
ENDBRANCH  14  15
BRANCH  14  21
ATOM     21  S   UNL     1       7.264   5.044  17.783  0.00  0.00    +0.000 S 
ATOM     22  O   UNL     1       8.240   4.048  17.387  0.00  0.00    +0.000 OA
ATOM     23  O   UNL     1       7.637   6.441  17.861  0.00  0.00    +0.000 OA
BRANCH  21  24
ATOM     24  O   UNL     1       6.690   4.592  19.228  0.00  0.00    +0.000 OA
ATOM     25  H   UNL     1       5.852   4.081  19.099  0.00  0.00    +0.000 HD
ENDBRANCH  21  24
ENDBRANCH  14  21
ENDBRANCH   2  14
TORSDOF 4
ENDMDL
MODEL 5
REMARK VINA RESULT:      -7.7      1.862      2.435
REMARK  Name = 
REMARK  4 active torsions:
REMARK  status: ('A' for Active; 'I' for Inactive)
REMARK    1  A    between atoms: C_2  and  C_13
REMARK    2  A    between atoms: C_13  and  C_14
REMARK    3  A    between atoms: C_13  and  S_20
REMARK    4  A    between atoms: S_20  and  O_23
REMARK                            x       y       z     vdW  Elec       q    Type
REMARK                         _______ _______ _______ _____ _____    ______ ____
ROOT
ATOM      1  O   UNL     1       1.751   4.486  19.596  0.00  0.00    +0.000 OA
ATOM      2  C   UNL     1       2.482   4.765  18.641  0.00  0.00    +0.000 C 
ATOM      3  N   UNL     1       2.750   6.054  18.198  0.00  0.00    +0.000 N 
ATOM      4  C   UNL     1       2.248   7.201  18.773  0.00  0.00    +0.000 A 
ATOM      5  N   UNL     1       2.182   8.329  18.111  0.00  0.00    +0.000 NA
ATOM      6  C   UNL     1       1.544   9.284  18.894  0.00  0.00    +0.000 A 
ATOM      7  C   UNL     1       1.182  10.587  18.495  0.00  0.00    +0.000 A 
ATOM      8  C   UNL     1       0.510  11.429  19.392  0.00  0.00    +0.000 A 
ATOM      9  C   UNL     1       0.218  10.999  20.682  0.00  0.00    +0.000 A 
ATOM     10  C   UNL     1       0.583   9.720  21.109  0.00  0.00    +0.000 A 
ATOM     11  C   UNL     1       1.232   8.876  20.193  0.00  0.00    +0.000 A 
ATOM     12  S   UNL     1       1.757   7.256  20.403  0.00  0.00    +0.000 S 
ATOM     13  H   UNL     1       3.136   6.212  17.277  0.00  0.00    +0.000 HD
ENDROOT
BRANCH   2  14
ATOM     14  C   UNL     1       3.189   3.681  17.852  0.00  0.00    +0.000 C 
BRANCH  14  15
ATOM     15  C   UNL     1       4.614   4.009  17.448  0.00  0.00    +0.000 A 
ATOM     16  C   UNL     1       5.608   4.347  18.382  0.00  0.00    +0.000 A 
ATOM     17  C   UNL     1       6.896   4.691  17.960  0.00  0.00    +0.000 A 
ATOM     18  C   UNL     1       7.216   4.689  16.605  0.00  0.00    +0.000 A 
ATOM     19  C   UNL     1       6.254   4.328  15.668  0.00  0.00    +0.000 A 
ATOM     20  C   UNL     1       4.964   3.991  16.085  0.00  0.00    +0.000 A 
ENDBRANCH  14  15
BRANCH  14  21
ATOM     21  S   UNL     1       3.131   2.164  18.835  0.00  0.00    +0.000 S 
ATOM     22  O   UNL     1       3.823   1.126  18.098  0.00  0.00    +0.000 OA
ATOM     23  O   UNL     1       3.486   2.444  20.211  0.00  0.00    +0.000 OA
BRANCH  21  24
ATOM     24  O   UNL     1       1.552   1.804  18.784  0.00  0.00    +0.000 OA
ATOM     25  H   UNL     1       1.440   0.880  18.446  0.00  0.00    +0.000 HD
ENDBRANCH  21  24
ENDBRANCH  14  21
ENDBRANCH   2  14
TORSDOF 4
ENDMDL
MODEL 6
REMARK VINA RESULT:      -7.7      0.094      1.337
REMARK  Name = 
REMARK  4 active torsions:
REMARK  status: ('A' for Active; 'I' for Inactive)
REMARK    1  A    between atoms: C_2  and  C_13
REMARK    2  A    between atoms: C_13  and  C_14
REMARK    3  A    between atoms: C_13  and  S_20
REMARK    4  A    between atoms: S_20  and  O_23
REMARK                            x       y       z     vdW  Elec       q    Type
REMARK                         _______ _______ _______ _____ _____    ______ ____
ROOT
ATOM      1  O   UNL     1       2.081   5.740  20.003  0.00  0.00    +0.000 OA
ATOM      2  C   UNL     1       2.487   6.439  19.069  0.00  0.00    +0.000 C 
ATOM      3  N   UNL     1       2.259   7.802  18.943  0.00  0.00    +0.000 N 
ATOM      4  C   UNL     1       1.558   8.568  19.849  0.00  0.00    +0.000 A 
ATOM      5  N   UNL     1       1.022   9.714  19.512  0.00  0.00    +0.000 NA
ATOM      6  C   UNL     1       0.295  10.215  20.586  0.00  0.00    +0.000 A 
ATOM      7  C   UNL     1      -0.517  11.368  20.582  0.00  0.00    +0.000 A 
ATOM      8  C   UNL     1      -1.218  11.730  21.740  0.00  0.00    +0.000 A 
ATOM      9  C   UNL     1      -1.103  10.975  22.902  0.00  0.00    +0.000 A 
ATOM     10  C   UNL     1      -0.290   9.839  22.938  0.00  0.00    +0.000 A 
ATOM     11  C   UNL     1       0.387   9.472  21.765  0.00  0.00    +0.000 A 
ATOM     12  S   UNL     1       1.409   8.121  21.486  0.00  0.00    +0.000 S 
ATOM     13  H   UNL     1       2.386   8.265  18.054  0.00  0.00    +0.000 HD
ENDROOT
BRANCH   2  14
ATOM     14  C   UNL     1       3.317   5.844  17.950  0.00  0.00    +0.000 C 
BRANCH  14  15
ATOM     15  C   UNL     1       4.816   6.032  18.093  0.00  0.00    +0.000 A 
ATOM     16  C   UNL     1       5.571   6.811  17.200  0.00  0.00    +0.000 A 
ATOM     17  C   UNL     1       6.958   6.916  17.341  0.00  0.00    +0.000 A 
ATOM     18  C   UNL     1       7.610   6.259  18.382  0.00  0.00    +0.000 A 
ATOM     19  C   UNL     1       6.875   5.508  19.293  0.00  0.00    +0.000 A 
ATOM     20  C   UNL     1       5.490   5.396  19.151  0.00  0.00    +0.000 A 
ENDBRANCH  14  15
BRANCH  14  21
ATOM     21  S   UNL     1       2.896   4.089  17.829  0.00  0.00    +0.000 S 
ATOM     22  O   UNL     1       3.574   3.544  16.670  0.00  0.00    +0.000 OA
ATOM     23  O   UNL     1       3.033   3.452  19.122  0.00  0.00    +0.000 OA
BRANCH  21  24
ATOM     24  O   UNL     1       1.320   4.158  17.463  0.00  0.00    +0.000 OA
ATOM     25  H   UNL     1       0.819   4.498  18.247  0.00  0.00    +0.000 HD
ENDBRANCH  21  24
ENDBRANCH  14  21
ENDBRANCH   2  14
TORSDOF 4
ENDMDL
MODEL 7
REMARK VINA RESULT:      -7.7      3.179      4.127
REMARK  Name = 
REMARK  4 active torsions:
REMARK  status: ('A' for Active; 'I' for Inactive)
REMARK    1  A    between atoms: C_2  and  C_13
REMARK    2  A    between atoms: C_13  and  C_14
REMARK    3  A    between atoms: C_13  and  S_20
REMARK    4  A    between atoms: S_20  and  O_23
REMARK                            x       y       z     vdW  Elec       q    Type
REMARK                         _______ _______ _______ _____ _____    ______ ____
ROOT
ATOM      1  O   UNL     1       4.870   7.107  16.465  0.00  0.00    +0.000 OA
ATOM      2  C   UNL     1       4.836   6.105  17.186  0.00  0.00    +0.000 C 
ATOM      3  N   UNL     1       3.987   5.940  18.273  0.00  0.00    +0.000 N 
ATOM      4  C   UNL     1       3.055   6.866  18.689  0.00  0.00    +0.000 A 
ATOM      5  N   UNL     1       2.582   6.865  19.910  0.00  0.00    +0.000 NA
ATOM      6  C   UNL     1       1.745   7.962  20.078  0.00  0.00    +0.000 A 
ATOM      7  C   UNL     1       1.134   8.371  21.282  0.00  0.00    +0.000 A 
ATOM      8  C   UNL     1       0.337   9.524  21.303  0.00  0.00    +0.000 A 
ATOM      9  C   UNL     1       0.125  10.257  20.140  0.00  0.00    +0.000 A 
ATOM     10  C   UNL     1       0.702   9.863  18.931  0.00  0.00    +0.000 A 
ATOM     11  C   UNL     1       1.519   8.721  18.928  0.00  0.00    +0.000 A 
ATOM     12  S   UNL     1       2.393   8.022  17.626  0.00  0.00    +0.000 S 
ATOM     13  H   UNL     1       4.174   5.232  18.969  0.00  0.00    +0.000 HD
ENDROOT
BRANCH   2  14
ATOM     14  C   UNL     1       5.742   4.920  16.924  0.00  0.00    +0.000 C 
BRANCH  14  15
ATOM     15  C   UNL     1       6.085   4.686  15.464  0.00  0.00    +0.000 A 
ATOM     16  C   UNL     1       5.308   3.872  14.624  0.00  0.00    +0.000 A 
ATOM     17  C   UNL     1       5.689   3.645  13.298  0.00  0.00    +0.000 A 
ATOM     18  C   UNL     1       6.842   4.237  12.787  0.00  0.00    +0.000 A 
ATOM     19  C   UNL     1       7.607   5.069  13.596  0.00  0.00    +0.000 A 
ATOM     20  C   UNL     1       7.233   5.293  14.923  0.00  0.00    +0.000 A 
ENDBRANCH  14  15
BRANCH  14  21
ATOM     21  S   UNL     1       7.241   5.148  17.910  0.00  0.00    +0.000 S 
ATOM     22  O   UNL     1       8.168   4.088  17.568  0.00  0.00    +0.000 OA
ATOM     23  O   UNL     1       7.665   6.532  17.865  0.00  0.00    +0.000 OA
BRANCH  21  24
ATOM     24  O   UNL     1       6.698   4.834  19.403  0.00  0.00    +0.000 OA
ATOM     25  H   UNL     1       7.320   4.207  19.850  0.00  0.00    +0.000 HD
ENDBRANCH  21  24
ENDBRANCH  14  21
ENDBRANCH   2  14
TORSDOF 4
ENDMDL
MODEL 8
REMARK VINA RESULT:      -7.7      1.855      2.562
REMARK  Name = 
REMARK  4 active torsions:
REMARK  status: ('A' for Active; 'I' for Inactive)
REMARK    1  A    between atoms: C_2  and  C_13
REMARK    2  A    between atoms: C_13  and  C_14
REMARK    3  A    between atoms: C_13  and  S_20
REMARK    4  A    between atoms: S_20  and  O_23
REMARK                            x       y       z     vdW  Elec       q    Type
REMARK                         _______ _______ _______ _____ _____    ______ ____
ROOT
ATOM      1  O   UNL     1       1.712   4.460  19.580  0.00  0.00    +0.000 OA
ATOM      2  C   UNL     1       2.454   4.750  18.637  0.00  0.00    +0.000 C 
ATOM      3  N   UNL     1       2.732   6.044  18.217  0.00  0.00    +0.000 N 
ATOM      4  C   UNL     1       2.229   7.185  18.804  0.00  0.00    +0.000 A 
ATOM      5  N   UNL     1       2.173   8.323  18.159  0.00  0.00    +0.000 NA
ATOM      6  C   UNL     1       1.532   9.268  18.951  0.00  0.00    +0.000 A 
ATOM      7  C   UNL     1       1.179  10.579  18.568  0.00  0.00    +0.000 A 
ATOM      8  C   UNL     1       0.501  11.410  19.470  0.00  0.00    +0.000 A 
ATOM      9  C   UNL     1       0.193  10.961  20.751  0.00  0.00    +0.000 A 
ATOM     10  C   UNL     1       0.549   9.674  21.161  0.00  0.00    +0.000 A 
ATOM     11  C   UNL     1       1.204   8.842  20.239  0.00  0.00    +0.000 A 
ATOM     12  S   UNL     1       1.720   7.216  20.430  0.00  0.00    +0.000 S 
ATOM     13  H   UNL     1       3.128   6.215  17.303  0.00  0.00    +0.000 HD
ENDROOT
BRANCH   2  14
ATOM     14  C   UNL     1       3.165   3.675  17.840  0.00  0.00    +0.000 C 
BRANCH  14  15
ATOM     15  C   UNL     1       4.571   4.033  17.394  0.00  0.00    +0.000 A 
ATOM     16  C   UNL     1       4.961   4.033  16.044  0.00  0.00    +0.000 A 
ATOM     17  C   UNL     1       6.280   4.320  15.683  0.00  0.00    +0.000 A 
ATOM     18  C   UNL     1       7.227   4.624  16.659  0.00  0.00    +0.000 A 
ATOM     19  C   UNL     1       6.852   4.657  17.997  0.00  0.00    +0.000 A 
ATOM     20  C   UNL     1       5.536   4.364  18.363  0.00  0.00    +0.000 A 
ENDBRANCH  14  15
BRANCH  14  21
ATOM     21  S   UNL     1       3.168   2.166  18.837  0.00  0.00    +0.000 S 
ATOM     22  O   UNL     1       3.860   1.136  18.089  0.00  0.00    +0.000 OA
ATOM     23  O   UNL     1       3.559   2.467  20.199  0.00  0.00    +0.000 OA
BRANCH  21  24
ATOM     24  O   UNL     1       1.597   1.773  18.837  0.00  0.00    +0.000 OA
ATOM     25  H   UNL     1       1.110   2.386  18.230  0.00  0.00    +0.000 HD
ENDBRANCH  21  24
ENDBRANCH  14  21
ENDBRANCH   2  14
TORSDOF 4
ENDMDL
MODEL 9
REMARK VINA RESULT:      -7.7      3.408      7.480
REMARK  Name = 
REMARK  4 active torsions:
REMARK  status: ('A' for Active; 'I' for Inactive)
REMARK    1  A    between atoms: C_2  and  C_13
REMARK    2  A    between atoms: C_13  and  C_14
REMARK    3  A    between atoms: C_13  and  S_20
REMARK    4  A    between atoms: S_20  and  O_23
REMARK                            x       y       z     vdW  Elec       q    Type
REMARK                         _______ _______ _______ _____ _____    ______ ____
ROOT
ATOM      1  O   UNL     1       1.411   8.915  18.421  0.00  0.00    +0.000 OA
ATOM      2  C   UNL     1       1.536   8.896  19.649  0.00  0.00    +0.000 C 
ATOM      3  N   UNL     1       1.844   7.767  20.396  0.00  0.00    +0.000 N 
ATOM      4  C   UNL     1       2.068   6.514  19.869  0.00  0.00    +0.000 A 
ATOM      5  N   UNL     1       1.948   5.431  20.595  0.00  0.00    +0.000 NA
ATOM      6  C   UNL     1       2.129   4.314  19.787  0.00  0.00    +0.000 A 
ATOM      7  C   UNL     1       1.967   2.967  20.173  0.00  0.00    +0.000 A 
ATOM      8  C   UNL     1       2.153   1.946  19.232  0.00  0.00    +0.000 A 
ATOM      9  C   UNL     1       2.521   2.247  17.924  0.00  0.00    +0.000 A 
ATOM     10  C   UNL     1       2.706   3.572  17.521  0.00  0.00    +0.000 A 
ATOM     11  C   UNL     1       2.491   4.588  18.466  0.00  0.00    +0.000 A 
ATOM     12  S   UNL     1       2.594   6.289  18.264  0.00  0.00    +0.000 S 
ATOM     13  H   UNL     1       1.683   7.750  21.394  0.00  0.00    +0.000 HD
ENDROOT
BRANCH   2  14
ATOM     14  C   UNL     1       1.373  10.157  20.473  0.00  0.00    +0.000 C 
BRANCH  14  15
ATOM     15  C   UNL     1       0.656  11.295  19.769  0.00  0.00    +0.000 A 
ATOM     16  C   UNL     1      -0.702  11.231  19.416  0.00  0.00    +0.000 A 
ATOM     17  C   UNL     1      -1.309  12.283  18.723  0.00  0.00    +0.000 A 
ATOM     18  C   UNL     1      -0.576  13.418  18.385  0.00  0.00    +0.000 A 
ATOM     19  C   UNL     1       0.762  13.511  18.752  0.00  0.00    +0.000 A 
ATOM     20  C   UNL     1       1.374  12.459  19.438  0.00  0.00    +0.000 A 
ENDBRANCH  14  15
BRANCH  14  21
ATOM     21  S   UNL     1       0.518   9.705  22.002  0.00  0.00    +0.000 S 
ATOM     22  O   UNL     1       0.103  10.927  22.661  0.00  0.00    +0.000 OA
ATOM     23  O   UNL     1      -0.441   8.651  21.746  0.00  0.00    +0.000 OA
BRANCH  21  24
ATOM     24  O   UNL     1       1.730   9.085  22.880  0.00  0.00    +0.000 OA
ATOM     25  H   UNL     1       1.476   8.179  23.187  0.00  0.00    +0.000 HD
ENDBRANCH  21  24
ENDBRANCH  14  21
ENDBRANCH   2  14
TORSDOF 4
ENDMDL
