MODEL 1
REMARK VINA RESULT:      -8.7      0.000      0.000
REMARK  Name = 
REMARK  10 active torsions:
REMARK  status: ('A' for Active; 'I' for Inactive)
REMARK    1  A    between atoms: C_1  and  N_2
REMARK    2  A    between atoms: C_6  and  C_7
REMARK    3  A    between atoms: C_7  and  O_8
REMARK    4  A    between atoms: C_7  and  C_18
REMARK    5  A    between atoms: O_8  and  C_9
REMARK    6  A    between atoms: C_9  and  C_10
REMARK    7  A    between atoms: C_13  and  C_14
REMARK    8  A    between atoms: C_21  and  C_22
REMARK    9  A    between atoms: C_24  and  C_25
REMARK   10  A    between atoms: C_30  and  C_31
REMARK                            x       y       z     vdW  Elec       q    Type
REMARK                         _______ _______ _______ _____ _____    ______ ____
ROOT
ATOM      1  C   UNL     1       2.310   6.827  19.256  0.00  0.00    +0.000 A 
ATOM      2  C   UNL     1       3.002   7.276  18.133  0.00  0.00    +0.000 A 
ATOM      3  C   UNL     1       2.890   8.596  17.726  0.00  0.00    +0.000 A 
ATOM      4  C   UNL     1       2.096   9.496  18.452  0.00  0.00    +0.000 A 
ATOM      5  C   UNL     1       1.263   9.049  19.513  0.00  0.00    +0.000 A 
ATOM      6  C   UNL     1       1.358   7.680  19.848  0.00  0.00    +0.000 A 
ENDROOT
BRANCH   5   7
ATOM      7  C   UNL     1       0.309   9.948  20.242  0.00  0.00    +0.000 A 
ATOM      8  C   UNL     1       0.573  10.220  21.610  0.00  0.00    +0.000 A 
ATOM      9  C   UNL     1      -0.248  11.025  22.403  0.00  0.00    +0.000 A 
ATOM     10  C   UNL     1      -1.334  11.661  21.836  0.00  0.00    +0.000 A 
ATOM     11  C   UNL     1      -1.611  11.455  20.489  0.00  0.00    +0.000 A 
ATOM     12  C   UNL     1      -0.835  10.578  19.682  0.00  0.00    +0.000 A 
BRANCH  12  13
ATOM     13  C   UNL     1      -1.354  10.435  18.263  0.00  0.00    +0.000 C 
ATOM     14  F   UNL     1      -0.769   9.483  17.489  0.00  0.00    +0.000 F 
ATOM     15  F   UNL     1      -2.686  10.129  18.232  0.00  0.00    +0.000 F 
ATOM     16  F   UNL     1      -1.236  11.602  17.564  0.00  0.00    +0.000 F 
ENDBRANCH  12  13
ENDBRANCH   5   7
BRANCH   4  17
ATOM     17  C   UNL     1       2.230  10.877  18.076  0.00  0.00    +0.000 C 
ATOM     18  N   UNL     1       2.351  11.982  17.738  0.00  0.00    +0.000 NA
ENDBRANCH   4  17
BRANCH   1  19
ATOM     19  C   UNL     1       2.728   5.539  19.957  0.00  0.00    +0.000 C 
BRANCH  19  25
ATOM     20  C   UNL     1       1.856   2.890  21.598  0.00  0.00    +0.000 C 
ATOM     21  N   UNL     1       1.598   3.221  20.218  0.00  0.00    +0.000 N 
ATOM     22  C   UNL     1       0.918   2.385  19.371  0.00  0.00    +0.000 A 
ATOM     23  N   UNL     1       0.839   2.875  18.159  0.00  0.00    +0.000 NA
ATOM     24  C   UNL     1       1.486   4.076  18.222  0.00  0.00    +0.000 A 
ATOM     25  C   UNL     1       1.973   4.333  19.492  0.00  0.00    +0.000 A 
ENDBRANCH  19  25
BRANCH  19  26
ATOM     26  O   UNL     1       4.132   5.298  19.771  0.00  0.00    +0.000 OA
BRANCH  26  27
ATOM     27  C   UNL     1       4.416   4.059  19.110  0.00  0.00    +0.000 C 
BRANCH  27  28
ATOM     28  C   UNL     1       5.193   4.339  17.846  0.00  0.00    +0.000 A 
ATOM     29  C   UNL     1       4.583   4.223  16.587  0.00  0.00    +0.000 A 
ATOM     30  C   UNL     1       5.304   4.492  15.416  0.00  0.00    +0.000 A 
ATOM     31  C   UNL     1       6.645   4.884  15.496  0.00  0.00    +0.000 A 
ATOM     32  C   UNL     1       7.258   5.005  16.747  0.00  0.00    +0.000 A 
ATOM     33  C   UNL     1       6.535   4.733  17.912  0.00  0.00    +0.000 A 
BRANCH  31  34
ATOM     34  C   UNL     1       7.385   5.151  14.302  0.00  0.00    +0.000 C 
ATOM     35  N   UNL     1       7.996   5.368  13.331  0.00  0.00    +0.000 NA
ENDBRANCH  31  34
ENDBRANCH  27  28
ENDBRANCH  26  27
ENDBRANCH  19  26
ENDBRANCH   1  19
TORSDOF 9
ENDMDL
MODEL 2
REMARK VINA RESULT:      -8.0      1.758      2.159
REMARK  Name = 
REMARK  10 active torsions:
REMARK  status: ('A' for Active; 'I' for Inactive)
REMARK    1  A    between atoms: C_1  and  N_2
REMARK    2  A    between atoms: C_6  and  C_7
REMARK    3  A    between atoms: C_7  and  O_8
REMARK    4  A    between atoms: C_7  and  C_18
REMARK    5  A    between atoms: O_8  and  C_9
REMARK    6  A    between atoms: C_9  and  C_10
REMARK    7  A    between atoms: C_13  and  C_14
REMARK    8  A    between atoms: C_21  and  C_22
REMARK    9  A    between atoms: C_24  and  C_25
REMARK   10  A    between atoms: C_30  and  C_31
REMARK                            x       y       z     vdW  Elec       q    Type
REMARK                         _______ _______ _______ _____ _____    ______ ____
ROOT
ATOM      1  C   UNL     1       2.283   6.872  19.201  0.00  0.00    +0.000 A 
ATOM      2  C   UNL     1       3.024   7.298  18.100  0.00  0.00    +0.000 A 
ATOM      3  C   UNL     1       2.952   8.616  17.678  0.00  0.00    +0.000 A 
ATOM      4  C   UNL     1       2.148   9.537  18.366  0.00  0.00    +0.000 A 
ATOM      5  C   UNL     1       1.269   9.115  19.400  0.00  0.00    +0.000 A 
ATOM      6  C   UNL     1       1.326   7.747  19.750  0.00  0.00    +0.000 A 
ENDROOT
BRANCH   5   7
ATOM      7  C   UNL     1       0.305  10.037  20.086  0.00  0.00    +0.000 A 
ATOM      8  C   UNL     1      -0.450  10.925  19.274  0.00  0.00    +0.000 A 
ATOM      9  C   UNL     1      -1.366  11.843  19.792  0.00  0.00    +0.000 A 
ATOM     10  C   UNL     1      -1.624  11.861  21.147  0.00  0.00    +0.000 A 
ATOM     11  C   UNL     1      -0.936  10.984  21.978  0.00  0.00    +0.000 A 
ATOM     12  C   UNL     1       0.056  10.094  21.483  0.00  0.00    +0.000 A 
BRANCH  12  13
ATOM     13  C   UNL     1       0.742   9.282  22.567  0.00  0.00    +0.000 C 
ATOM     14  F   UNL     1       0.370   9.533  23.850  0.00  0.00    +0.000 F 
ATOM     15  F   UNL     1       0.540   7.939  22.408  0.00  0.00    +0.000 F 
ATOM     16  F   UNL     1       2.097   9.447  22.537  0.00  0.00    +0.000 F 
ENDBRANCH  12  13
ENDBRANCH   5   7
BRANCH   4  17
ATOM     17  C   UNL     1       2.320  10.912  17.984  0.00  0.00    +0.000 C 
ATOM     18  N   UNL     1       2.492  12.024  17.696  0.00  0.00    +0.000 NA
ENDBRANCH   4  17
BRANCH   1  19
ATOM     19  C   UNL     1       2.651   5.583  19.927  0.00  0.00    +0.000 C 
BRANCH  19  25
ATOM     20  C   UNL     1       1.675   2.968  21.563  0.00  0.00    +0.000 C 
ATOM     21  N   UNL     1       1.467   3.290  20.173  0.00  0.00    +0.000 N 
ATOM     22  C   UNL     1       0.798   2.460  19.312  0.00  0.00    +0.000 A 
ATOM     23  N   UNL     1       0.768   2.939  18.093  0.00  0.00    +0.000 NA
ATOM     24  C   UNL     1       1.437   4.128  18.166  0.00  0.00    +0.000 A 
ATOM     25  C   UNL     1       1.888   4.388  19.450  0.00  0.00    +0.000 A 
ENDBRANCH  19  25
BRANCH  19  26
ATOM     26  O   UNL     1       4.056   5.312  19.790  0.00  0.00    +0.000 OA
BRANCH  26  27
ATOM     27  C   UNL     1       4.336   4.079  19.116  0.00  0.00    +0.000 C 
BRANCH  27  28
ATOM     28  C   UNL     1       5.125   4.369  17.862  0.00  0.00    +0.000 A 
ATOM     29  C   UNL     1       4.592   4.082  16.595  0.00  0.00    +0.000 A 
ATOM     30  C   UNL     1       5.323   4.361  15.433  0.00  0.00    +0.000 A 
ATOM     31  C   UNL     1       6.596   4.932  15.529  0.00  0.00    +0.000 A 
ATOM     32  C   UNL     1       7.132   5.223  16.787  0.00  0.00    +0.000 A 
ATOM     33  C   UNL     1       6.400   4.942  17.943  0.00  0.00    +0.000 A 
BRANCH  31  34
ATOM     34  C   UNL     1       7.347   5.209  14.343  0.00  0.00    +0.000 C 
ATOM     35  N   UNL     1       7.962   5.427  13.375  0.00  0.00    +0.000 NA
ENDBRANCH  31  34
ENDBRANCH  27  28
ENDBRANCH  26  27
ENDBRANCH  19  26
ENDBRANCH   1  19
TORSDOF 9
ENDMDL
MODEL 3
REMARK VINA RESULT:      -8.0      4.667     10.023
REMARK  Name = 
REMARK  10 active torsions:
REMARK  status: ('A' for Active; 'I' for Inactive)
REMARK    1  A    between atoms: C_1  and  N_2
REMARK    2  A    between atoms: C_6  and  C_7
REMARK    3  A    between atoms: C_7  and  O_8
REMARK    4  A    between atoms: C_7  and  C_18
REMARK    5  A    between atoms: O_8  and  C_9
REMARK    6  A    between atoms: C_9  and  C_10
REMARK    7  A    between atoms: C_13  and  C_14
REMARK    8  A    between atoms: C_21  and  C_22
REMARK    9  A    between atoms: C_24  and  C_25
REMARK   10  A    between atoms: C_30  and  C_31
REMARK                            x       y       z     vdW  Elec       q    Type
REMARK                         _______ _______ _______ _____ _____    ______ ____
ROOT
ATOM      1  C   UNL     1       0.997  13.618  19.464  0.00  0.00    +0.000 A 
ATOM      2  C   UNL     1      -0.235  13.876  18.865  0.00  0.00    +0.000 A 
ATOM      3  C   UNL     1      -1.009  12.833  18.383  0.00  0.00    +0.000 A 
ATOM      4  C   UNL     1      -0.569  11.507  18.510  0.00  0.00    +0.000 A 
ATOM      5  C   UNL     1       0.738  11.209  18.981  0.00  0.00    +0.000 A 
ATOM      6  C   UNL     1       1.518  12.311  19.397  0.00  0.00    +0.000 A 
ENDROOT
BRANCH   5   7
ATOM      7  C   UNL     1       1.298   9.819  19.024  0.00  0.00    +0.000 A 
ATOM      8  C   UNL     1       2.037   9.369  17.898  0.00  0.00    +0.000 A 
ATOM      9  C   UNL     1       2.593   8.092  17.808  0.00  0.00    +0.000 A 
ATOM     10  C   UNL     1       2.500   7.228  18.881  0.00  0.00    +0.000 A 
ATOM     11  C   UNL     1       1.818   7.639  20.021  0.00  0.00    +0.000 A 
ATOM     12  C   UNL     1       1.178   8.905  20.106  0.00  0.00    +0.000 A 
BRANCH  12  13
ATOM     13  C   UNL     1       0.423   9.122  21.404  0.00  0.00    +0.000 C 
ATOM     14  F   UNL     1      -0.610   8.276  21.662  0.00  0.00    +0.000 F 
ATOM     15  F   UNL     1       1.236   9.011  22.497  0.00  0.00    +0.000 F 
ATOM     16  F   UNL     1      -0.105  10.379  21.475  0.00  0.00    +0.000 F 
ENDBRANCH  12  13
ENDBRANCH   5   7
BRANCH   4  17
ATOM     17  C   UNL     1      -1.542  10.501  18.182  0.00  0.00    +0.000 C 
ATOM     18  N   UNL     1      -2.356   9.710  17.934  0.00  0.00    +0.000 NA
ENDBRANCH   4  17
BRANCH   1  19
ATOM     19  C   UNL     1       1.656  14.663  20.357  0.00  0.00    +0.000 C 
BRANCH  19  25
ATOM     20  C   UNL     1       4.863  14.884  20.731  0.00  0.00    +0.000 C 
ATOM     21  N   UNL     1       4.013  15.590  19.804  0.00  0.00    +0.000 N 
ATOM     22  C   UNL     1       4.494  16.518  18.918  0.00  0.00    +0.000 A 
ATOM     23  N   UNL     1       3.537  17.058  18.206  0.00  0.00    +0.000 NA
ATOM     24  C   UNL     1       2.391  16.454  18.641  0.00  0.00    +0.000 A 
ATOM     25  C   UNL     1       2.644  15.526  19.637  0.00  0.00    +0.000 A 
ENDBRANCH  19  25
BRANCH  19  26
ATOM     26  O   UNL     1       0.663  15.510  20.958  0.00  0.00    +0.000 OA
BRANCH  26  27
ATOM     27  C   UNL     1       0.257  15.076  22.263  0.00  0.00    +0.000 C 
BRANCH  27  28
ATOM     28  C   UNL     1      -1.107  14.436  22.168  0.00  0.00    +0.000 A 
ATOM     29  C   UNL     1      -1.286  13.078  22.478  0.00  0.00    +0.000 A 
ATOM     30  C   UNL     1      -2.555  12.489  22.397  0.00  0.00    +0.000 A 
ATOM     31  C   UNL     1      -3.658  13.255  22.007  0.00  0.00    +0.000 A 
ATOM     32  C   UNL     1      -3.487  14.608  21.699  0.00  0.00    +0.000 A 
ATOM     33  C   UNL     1      -2.220  15.192  21.780  0.00  0.00    +0.000 A 
BRANCH  31  34
ATOM     34  C   UNL     1      -4.952  12.653  21.915  0.00  0.00    +0.000 C 
ATOM     35  N   UNL     1      -6.011  12.167  21.837  0.00  0.00    +0.000 NA
ENDBRANCH  31  34
ENDBRANCH  27  28
ENDBRANCH  26  27
ENDBRANCH  19  26
ENDBRANCH   1  19
TORSDOF 9
ENDMDL
MODEL 4
REMARK VINA RESULT:      -7.8      1.006      1.495
REMARK  Name = 
REMARK  10 active torsions:
REMARK  status: ('A' for Active; 'I' for Inactive)
REMARK    1  A    between atoms: C_1  and  N_2
REMARK    2  A    between atoms: C_6  and  C_7
REMARK    3  A    between atoms: C_7  and  O_8
REMARK    4  A    between atoms: C_7  and  C_18
REMARK    5  A    between atoms: O_8  and  C_9
REMARK    6  A    between atoms: C_9  and  C_10
REMARK    7  A    between atoms: C_13  and  C_14
REMARK    8  A    between atoms: C_21  and  C_22
REMARK    9  A    between atoms: C_24  and  C_25
REMARK   10  A    between atoms: C_30  and  C_31
REMARK                            x       y       z     vdW  Elec       q    Type
REMARK                         _______ _______ _______ _____ _____    ______ ____
ROOT
ATOM      1  C   UNL     1       2.925   6.377  19.118  0.00  0.00    +0.000 A 
ATOM      2  C   UNL     1       3.405   6.937  17.934  0.00  0.00    +0.000 A 
ATOM      3  C   UNL     1       3.116   8.254  17.618  0.00  0.00    +0.000 A 
ATOM      4  C   UNL     1       2.353   9.042  18.492  0.00  0.00    +0.000 A 
ATOM      5  C   UNL     1       1.725   8.474  19.633  0.00  0.00    +0.000 A 
ATOM      6  C   UNL     1       1.992   7.109  19.879  0.00  0.00    +0.000 A 
ENDROOT
BRANCH   5   7
ATOM      7  C   UNL     1       0.805   9.245  20.533  0.00  0.00    +0.000 A 
ATOM      8  C   UNL     1       1.117   9.284  21.918  0.00  0.00    +0.000 A 
ATOM      9  C   UNL     1       0.332   9.951  22.860  0.00  0.00    +0.000 A 
ATOM     10  C   UNL     1      -0.765  10.678  22.445  0.00  0.00    +0.000 A 
ATOM     11  C   UNL     1      -1.088  10.700  21.093  0.00  0.00    +0.000 A 
ATOM     12  C   UNL     1      -0.349   9.966  20.125  0.00  0.00    +0.000 A 
BRANCH  12  13
ATOM     13  C   UNL     1      -0.916  10.063  18.721  0.00  0.00    +0.000 C 
ATOM     14  F   UNL     1      -0.361   9.256  17.778  0.00  0.00    +0.000 F 
ATOM     15  F   UNL     1      -2.249   9.766  18.683  0.00  0.00    +0.000 F 
ATOM     16  F   UNL     1      -0.817  11.332  18.225  0.00  0.00    +0.000 F 
ENDBRANCH  12  13
ENDBRANCH   5   7
BRANCH   4  17
ATOM     17  C   UNL     1       2.304  10.443  18.175  0.00  0.00    +0.000 C 
ATOM     18  N   UNL     1       2.293  11.581  17.943  0.00  0.00    +0.000 NA
ENDBRANCH   4  17
BRANCH   1  19
ATOM     19  C   UNL     1       3.555   5.111  19.685  0.00  0.00    +0.000 C 
BRANCH  19  25
ATOM     20  C   UNL     1       1.142   3.420  18.348  0.00  0.00    +0.000 C 
ATOM     21  N   UNL     1       1.555   3.462  19.729  0.00  0.00    +0.000 N 
ATOM     22  C   UNL     1       0.919   2.752  20.714  0.00  0.00    +0.000 A 
ATOM     23  N   UNL     1       1.441   2.977  21.894  0.00  0.00    +0.000 NA
ATOM     24  C   UNL     1       2.459   3.860  21.667  0.00  0.00    +0.000 A 
ATOM     25  C   UNL     1       2.567   4.186  20.326  0.00  0.00    +0.000 A 
ENDBRANCH  19  25
BRANCH  19  26
ATOM     26  O   UNL     1       4.253   4.391  18.655  0.00  0.00    +0.000 OA
BRANCH  26  27
ATOM     27  C   UNL     1       5.579   4.879  18.415  0.00  0.00    +0.000 C 
BRANCH  27  28
ATOM     28  C   UNL     1       5.919   4.689  16.957  0.00  0.00    +0.000 A 
ATOM     29  C   UNL     1       4.987   4.127  16.069  0.00  0.00    +0.000 A 
ATOM     30  C   UNL     1       5.303   3.960  14.714  0.00  0.00    +0.000 A 
ATOM     31  C   UNL     1       6.556   4.356  14.235  0.00  0.00    +0.000 A 
ATOM     32  C   UNL     1       7.488   4.918  15.113  0.00  0.00    +0.000 A 
ATOM     33  C   UNL     1       7.169   5.082  16.463  0.00  0.00    +0.000 A 
BRANCH  31  34
ATOM     34  C   UNL     1       6.883   4.177  12.854  0.00  0.00    +0.000 C 
ATOM     35  N   UNL     1       7.155   4.038  11.727  0.00  0.00    +0.000 NA
ENDBRANCH  31  34
ENDBRANCH  27  28
ENDBRANCH  26  27
ENDBRANCH  19  26
ENDBRANCH   1  19
TORSDOF 9
ENDMDL
MODEL 5
REMARK VINA RESULT:      -7.8      1.777      2.322
REMARK  Name = 
REMARK  10 active torsions:
REMARK  status: ('A' for Active; 'I' for Inactive)
REMARK    1  A    between atoms: C_1  and  N_2
REMARK    2  A    between atoms: C_6  and  C_7
REMARK    3  A    between atoms: C_7  and  O_8
REMARK    4  A    between atoms: C_7  and  C_18
REMARK    5  A    between atoms: O_8  and  C_9
REMARK    6  A    between atoms: C_9  and  C_10
REMARK    7  A    between atoms: C_13  and  C_14
REMARK    8  A    between atoms: C_21  and  C_22
REMARK    9  A    between atoms: C_24  and  C_25
REMARK   10  A    between atoms: C_30  and  C_31
REMARK                            x       y       z     vdW  Elec       q    Type
REMARK                         _______ _______ _______ _____ _____    ______ ____
ROOT
ATOM      1  C   UNL     1       2.411   6.790  19.099  0.00  0.00    +0.000 A 
ATOM      2  C   UNL     1       3.105   7.220  17.969  0.00  0.00    +0.000 A 
ATOM      3  C   UNL     1       2.985   8.530  17.534  0.00  0.00    +0.000 A 
ATOM      4  C   UNL     1       2.181   9.440  18.236  0.00  0.00    +0.000 A 
ATOM      5  C   UNL     1       1.347   9.010  19.304  0.00  0.00    +0.000 A 
ATOM      6  C   UNL     1       1.451   7.649  19.669  0.00  0.00    +0.000 A 
ENDROOT
BRANCH   5   7
ATOM      7  C   UNL     1       0.383   9.917  20.009  0.00  0.00    +0.000 A 
ATOM      8  C   UNL     1      -0.441  10.753  19.211  0.00  0.00    +0.000 A 
ATOM      9  C   UNL     1      -1.364  11.654  19.746  0.00  0.00    +0.000 A 
ATOM     10  C   UNL     1      -1.560  11.702  21.111  0.00  0.00    +0.000 A 
ATOM     11  C   UNL     1      -0.802  10.874  21.932  0.00  0.00    +0.000 A 
ATOM     12  C   UNL     1       0.198  10.005  21.415  0.00  0.00    +0.000 A 
BRANCH  12  13
ATOM     13  C   UNL     1       0.963   9.250  22.486  0.00  0.00    +0.000 C 
ATOM     14  F   UNL     1       2.302   9.478  22.561  0.00  0.00    +0.000 F 
ATOM     15  F   UNL     1       0.499   9.526  23.741  0.00  0.00    +0.000 F 
ATOM     16  F   UNL     1       0.828   7.898  22.342  0.00  0.00    +0.000 F 
ENDBRANCH  12  13
ENDBRANCH   5   7
BRANCH   4  17
ATOM     17  C   UNL     1       2.306  10.814  17.831  0.00  0.00    +0.000 C 
ATOM     18  N   UNL     1       2.370  11.929  17.514  0.00  0.00    +0.000 NA
ENDBRANCH   4  17
BRANCH   1  19
ATOM     19  C   UNL     1       2.836   5.521  19.830  0.00  0.00    +0.000 C 
BRANCH  19  25
ATOM     20  C   UNL     1       1.871   2.989  21.597  0.00  0.00    +0.000 C 
ATOM     21  N   UNL     1       1.649   3.246  20.196  0.00  0.00    +0.000 N 
ATOM     22  C   UNL     1       0.968   2.378  19.382  0.00  0.00    +0.000 A 
ATOM     23  N   UNL     1       0.926   2.800  18.142  0.00  0.00    +0.000 NA
ATOM     24  C   UNL     1       1.598   3.989  18.152  0.00  0.00    +0.000 A 
ATOM     25  C   UNL     1       2.064   4.307  19.417  0.00  0.00    +0.000 A 
ENDBRANCH  19  25
BRANCH  19  26
ATOM     26  O   UNL     1       4.235   5.265  19.622  0.00  0.00    +0.000 OA
BRANCH  26  27
ATOM     27  C   UNL     1       4.493   4.046  18.914  0.00  0.00    +0.000 C 
BRANCH  27  28
ATOM     28  C   UNL     1       5.254   4.360  17.649  0.00  0.00    +0.000 A 
ATOM     29  C   UNL     1       6.385   5.191  17.678  0.00  0.00    +0.000 A 
ATOM     30  C   UNL     1       7.094   5.474  16.503  0.00  0.00    +0.000 A 
ATOM     31  C   UNL     1       6.677   4.925  15.287  0.00  0.00    +0.000 A 
ATOM     32  C   UNL     1       5.553   4.094  15.250  0.00  0.00    +0.000 A 
ATOM     33  C   UNL     1       4.848   3.816  16.424  0.00  0.00    +0.000 A 
BRANCH  31  34
ATOM     34  C   UNL     1       7.395   5.220  14.085  0.00  0.00    +0.000 C 
ATOM     35  N   UNL     1       7.984   5.454  13.104  0.00  0.00    +0.000 NA
ENDBRANCH  31  34
ENDBRANCH  27  28
ENDBRANCH  26  27
ENDBRANCH  19  26
ENDBRANCH   1  19
TORSDOF 9
ENDMDL
MODEL 6
REMARK VINA RESULT:      -7.8      0.445      1.034
REMARK  Name = 
REMARK  10 active torsions:
REMARK  status: ('A' for Active; 'I' for Inactive)
REMARK    1  A    between atoms: C_1  and  N_2
REMARK    2  A    between atoms: C_6  and  C_7
REMARK    3  A    between atoms: C_7  and  O_8
REMARK    4  A    between atoms: C_7  and  C_18
REMARK    5  A    between atoms: O_8  and  C_9
REMARK    6  A    between atoms: C_9  and  C_10
REMARK    7  A    between atoms: C_13  and  C_14
REMARK    8  A    between atoms: C_21  and  C_22
REMARK    9  A    between atoms: C_24  and  C_25
REMARK   10  A    between atoms: C_30  and  C_31
REMARK                            x       y       z     vdW  Elec       q    Type
REMARK                         _______ _______ _______ _____ _____    ______ ____
ROOT
ATOM      1  C   UNL     1       2.563   6.696  19.352  0.00  0.00    +0.000 A 
ATOM      2  C   UNL     1       3.185   7.126  18.181  0.00  0.00    +0.000 A 
ATOM      3  C   UNL     1       2.988   8.418  17.720  0.00  0.00    +0.000 A 
ATOM      4  C   UNL     1       2.177   9.310  18.437  0.00  0.00    +0.000 A 
ATOM      5  C   UNL     1       1.412   8.872  19.552  0.00  0.00    +0.000 A 
ATOM      6  C   UNL     1       1.592   7.527  19.944  0.00  0.00    +0.000 A 
ENDROOT
BRANCH   5   7
ATOM      7  C   UNL     1       0.441   9.755  20.278  0.00  0.00    +0.000 A 
ATOM      8  C   UNL     1       0.695  10.029  21.648  0.00  0.00    +0.000 A 
ATOM      9  C   UNL     1      -0.141  10.820  22.438  0.00  0.00    +0.000 A 
ATOM     10  C   UNL     1      -1.235  11.439  21.869  0.00  0.00    +0.000 A 
ATOM     11  C   UNL     1      -1.503  11.231  20.521  0.00  0.00    +0.000 A 
ATOM     12  C   UNL     1      -0.711  10.368  19.715  0.00  0.00    +0.000 A 
BRANCH  12  13
ATOM     13  C   UNL     1      -1.223  10.218  18.294  0.00  0.00    +0.000 C 
ATOM     14  F   UNL     1      -0.598   9.299  17.511  0.00  0.00    +0.000 F 
ATOM     15  F   UNL     1      -2.541   9.859  18.258  0.00  0.00    +0.000 F 
ATOM     16  F   UNL     1      -1.153  11.396  17.608  0.00  0.00    +0.000 F 
ENDBRANCH  12  13
ENDBRANCH   5   7
BRANCH   4  17
ATOM     17  C   UNL     1       2.222  10.677  17.993  0.00  0.00    +0.000 C 
ATOM     18  N   UNL     1       2.241  11.791  17.668  0.00  0.00    +0.000 NA
ENDBRANCH   4  17
BRANCH   1  19
ATOM     19  C   UNL     1       3.076   5.466  20.093  0.00  0.00    +0.000 C 
BRANCH  19  25
ATOM     20  C   UNL     1       1.353   4.514  17.525  0.00  0.00    +0.000 C 
ATOM     21  N   UNL     1       1.496   3.865  18.805  0.00  0.00    +0.000 N 
ATOM     22  C   UNL     1       0.859   2.692  19.115  0.00  0.00    +0.000 A 
ATOM     23  N   UNL     1       1.103   2.312  20.345  0.00  0.00    +0.000 NA
ATOM     24  C   UNL     1       1.934   3.271  20.851  0.00  0.00    +0.000 A 
ATOM     25  C   UNL     1       2.208   4.259  19.919  0.00  0.00    +0.000 A 
ENDBRANCH  19  25
BRANCH  19  26
ATOM     26  O   UNL     1       4.407   5.138  19.661  0.00  0.00    +0.000 OA
BRANCH  26  27
ATOM     27  C   UNL     1       4.470   3.955  18.855  0.00  0.00    +0.000 C 
BRANCH  27  28
ATOM     28  C   UNL     1       5.225   4.263  17.585  0.00  0.00    +0.000 A 
ATOM     29  C   UNL     1       4.667   3.976  16.328  0.00  0.00    +0.000 A 
ATOM     30  C   UNL     1       5.368   4.272  15.152  0.00  0.00    +0.000 A 
ATOM     31  C   UNL     1       6.635   4.858  15.222  0.00  0.00    +0.000 A 
ATOM     32  C   UNL     1       7.197   5.149  16.469  0.00  0.00    +0.000 A 
ATOM     33  C   UNL     1       6.495   4.852  17.640  0.00  0.00    +0.000 A 
BRANCH  31  34
ATOM     34  C   UNL     1       7.356   5.152  14.021  0.00  0.00    +0.000 C 
ATOM     35  N   UNL     1       7.939   5.397  13.040  0.00  0.00    +0.000 NA
ENDBRANCH  31  34
ENDBRANCH  27  28
ENDBRANCH  26  27
ENDBRANCH  19  26
ENDBRANCH   1  19
TORSDOF 9
ENDMDL
MODEL 7
REMARK VINA RESULT:      -7.6      4.664     10.046
REMARK  Name = 
REMARK  10 active torsions:
REMARK  status: ('A' for Active; 'I' for Inactive)
REMARK    1  A    between atoms: C_1  and  N_2
REMARK    2  A    between atoms: C_6  and  C_7
REMARK    3  A    between atoms: C_7  and  O_8
REMARK    4  A    between atoms: C_7  and  C_18
REMARK    5  A    between atoms: O_8  and  C_9
REMARK    6  A    between atoms: C_9  and  C_10
REMARK    7  A    between atoms: C_13  and  C_14
REMARK    8  A    between atoms: C_21  and  C_22
REMARK    9  A    between atoms: C_24  and  C_25
REMARK   10  A    between atoms: C_30  and  C_31
REMARK                            x       y       z     vdW  Elec       q    Type
REMARK                         _______ _______ _______ _____ _____    ______ ____
ROOT
ATOM      1  C   UNL     1       1.243  13.673  19.465  0.00  0.00    +0.000 A 
ATOM      2  C   UNL     1       0.024  14.000  18.874  0.00  0.00    +0.000 A 
ATOM      3  C   UNL     1      -0.799  13.003  18.376  0.00  0.00    +0.000 A 
ATOM      4  C   UNL     1      -0.422  11.656  18.478  0.00  0.00    +0.000 A 
ATOM      5  C   UNL     1       0.870  11.289  18.939  0.00  0.00    +0.000 A 
ATOM      6  C   UNL     1       1.703  12.345  19.373  0.00  0.00    +0.000 A 
ENDROOT
BRANCH   5   7
ATOM      7  C   UNL     1       1.364   9.872  18.957  0.00  0.00    +0.000 A 
ATOM      8  C   UNL     1       2.015   9.386  17.793  0.00  0.00    +0.000 A 
ATOM      9  C   UNL     1       2.503   8.083  17.676  0.00  0.00    +0.000 A 
ATOM     10  C   UNL     1       2.430   7.227  18.756  0.00  0.00    +0.000 A 
ATOM     11  C   UNL     1       1.834   7.671  19.931  0.00  0.00    +0.000 A 
ATOM     12  C   UNL     1       1.261   8.967  20.047  0.00  0.00    +0.000 A 
BRANCH  12  13
ATOM     13  C   UNL     1       0.593   9.222  21.385  0.00  0.00    +0.000 C 
ATOM     14  F   UNL     1       0.659   8.222  22.304  0.00  0.00    +0.000 F 
ATOM     15  F   UNL     1       1.119  10.309  22.025  0.00  0.00    +0.000 F 
ATOM     16  F   UNL     1      -0.736   9.500  21.239  0.00  0.00    +0.000 F 
ENDBRANCH  12  13
ENDBRANCH   5   7
BRANCH   4  17
ATOM     17  C   UNL     1      -1.443  10.703  18.134  0.00  0.00    +0.000 C 
ATOM     18  N   UNL     1      -2.239   9.907  17.850  0.00  0.00    +0.000 NA
ENDBRANCH   4  17
BRANCH   1  19
ATOM     19  C   UNL     1       1.953  14.670  20.374  0.00  0.00    +0.000 C 
BRANCH  19  25
ATOM     20  C   UNL     1       2.030  16.992  18.122  0.00  0.00    +0.000 C 
ATOM     21  N   UNL     1       3.134  16.339  18.781  0.00  0.00    +0.000 N 
ATOM     22  C   UNL     1       4.443  16.633  18.500  0.00  0.00    +0.000 A 
ATOM     23  N   UNL     1       5.272  15.888  19.189  0.00  0.00    +0.000 NA
ATOM     24  C   UNL     1       4.472  15.084  19.951  0.00  0.00    +0.000 A 
ATOM     25  C   UNL     1       3.128  15.336  19.730  0.00  0.00    +0.000 A 
ENDBRANCH  19  25
BRANCH  19  26
ATOM     26  O   UNL     1       1.038  15.686  20.818  0.00  0.00    +0.000 OA
BRANCH  26  27
ATOM     27  C   UNL     1       0.588  15.500  22.166  0.00  0.00    +0.000 C 
BRANCH  27  28
ATOM     28  C   UNL     1      -0.744  14.791  22.148  0.00  0.00    +0.000 A 
ATOM     29  C   UNL     1      -1.918  15.474  21.791  0.00  0.00    +0.000 A 
ATOM     30  C   UNL     1      -3.152  14.811  21.767  0.00  0.00    +0.000 A 
ATOM     31  C   UNL     1      -3.222  13.455  22.101  0.00  0.00    +0.000 A 
ATOM     32  C   UNL     1      -2.057  12.767  22.455  0.00  0.00    +0.000 A 
ATOM     33  C   UNL     1      -0.829  13.433  22.478  0.00  0.00    +0.000 A 
BRANCH  31  34
ATOM     34  C   UNL     1      -4.482  12.778  22.086  0.00  0.00    +0.000 C 
ATOM     35  N   UNL     1      -5.510  12.225  22.066  0.00  0.00    +0.000 NA
ENDBRANCH  31  34
ENDBRANCH  27  28
ENDBRANCH  26  27
ENDBRANCH  19  26
ENDBRANCH   1  19
TORSDOF 9
ENDMDL
MODEL 8
REMARK VINA RESULT:      -7.6      4.663     10.391
REMARK  Name = 
REMARK  10 active torsions:
REMARK  status: ('A' for Active; 'I' for Inactive)
REMARK    1  A    between atoms: C_1  and  N_2
REMARK    2  A    between atoms: C_6  and  C_7
REMARK    3  A    between atoms: C_7  and  O_8
REMARK    4  A    between atoms: C_7  and  C_18
REMARK    5  A    between atoms: O_8  and  C_9
REMARK    6  A    between atoms: C_9  and  C_10
REMARK    7  A    between atoms: C_13  and  C_14
REMARK    8  A    between atoms: C_21  and  C_22
REMARK    9  A    between atoms: C_24  and  C_25
REMARK   10  A    between atoms: C_30  and  C_31
REMARK                            x       y       z     vdW  Elec       q    Type
REMARK                         _______ _______ _______ _____ _____    ______ ____
ROOT
ATOM      1  C   UNL     1       0.490  13.536  19.418  0.00  0.00    +0.000 A 
ATOM      2  C   UNL     1      -0.730  13.695  18.763  0.00  0.00    +0.000 A 
ATOM      3  C   UNL     1      -1.411  12.590  18.278  0.00  0.00    +0.000 A 
ATOM      4  C   UNL     1      -0.889  11.301  18.458  0.00  0.00    +0.000 A 
ATOM      5  C   UNL     1       0.414  11.104  18.990  0.00  0.00    +0.000 A 
ATOM      6  C   UNL     1       1.100  12.266  19.408  0.00  0.00    +0.000 A 
ENDROOT
BRANCH   5   7
ATOM      7  C   UNL     1       1.063   9.756  19.094  0.00  0.00    +0.000 A 
ATOM      8  C   UNL     1       1.785   9.283  17.967  0.00  0.00    +0.000 A 
ATOM      9  C   UNL     1       2.418   8.039  17.931  0.00  0.00    +0.000 A 
ATOM     10  C   UNL     1       2.423   7.242  19.057  0.00  0.00    +0.000 A 
ATOM     11  C   UNL     1       1.761   7.680  20.198  0.00  0.00    +0.000 A 
ATOM     12  C   UNL     1       1.044   8.908  20.233  0.00  0.00    +0.000 A 
BRANCH  12  13
ATOM     13  C   UNL     1       0.328   9.159  21.547  0.00  0.00    +0.000 C 
ATOM     14  F   UNL     1      -0.250  10.379  21.707  0.00  0.00    +0.000 F 
ATOM     15  F   UNL     1      -0.688   8.270  21.758  0.00  0.00    +0.000 F 
ATOM     16  F   UNL     1       1.166   9.006  22.614  0.00  0.00    +0.000 F 
ENDBRANCH  12  13
ENDBRANCH   5   7
BRANCH   4  17
ATOM     17  C   UNL     1      -1.778  10.223  18.118  0.00  0.00    +0.000 C 
ATOM     18  N   UNL     1      -2.525   9.379  17.840  0.00  0.00    +0.000 NA
ENDBRANCH   4  17
BRANCH   1  19
ATOM     19  C   UNL     1       1.039  14.645  20.309  0.00  0.00    +0.000 C 
BRANCH  19  25
ATOM     20  C   UNL     1       3.142  15.347  17.952  0.00  0.00    +0.000 C 
ATOM     21  N   UNL     1       2.161  16.205  18.568  0.00  0.00    +0.000 N 
ATOM     22  C   UNL     1       2.002  17.520  18.217  0.00  0.00    +0.000 A 
ATOM     23  N   UNL     1       1.081  18.112  18.938  0.00  0.00    +0.000 NA
ATOM     24  C   UNL     1       0.621  17.144  19.785  0.00  0.00    +0.000 A 
ATOM     25  C   UNL     1       1.267  15.935  19.585  0.00  0.00    +0.000 A 
ENDBRANCH  19  25
BRANCH  19  26
ATOM     26  O   UNL     1       0.151  14.890  21.411  0.00  0.00    +0.000 OA
BRANCH  26  27
ATOM     27  C   UNL     1       0.070  13.797  22.335  0.00  0.00    +0.000 C 
BRANCH  27  28
ATOM     28  C   UNL     1      -1.372  13.589  22.729  0.00  0.00    +0.000 A 
ATOM     29  C   UNL     1      -1.890  14.176  23.894  0.00  0.00    +0.000 A 
ATOM     30  C   UNL     1      -3.232  13.988  24.253  0.00  0.00    +0.000 A 
ATOM     31  C   UNL     1      -4.068  13.210  23.446  0.00  0.00    +0.000 A 
ATOM     32  C   UNL     1      -3.560  12.624  22.283  0.00  0.00    +0.000 A 
ATOM     33  C   UNL     1      -2.221  12.813  21.930  0.00  0.00    +0.000 A 
BRANCH  31  34
ATOM     34  C   UNL     1      -5.435  13.010  23.816  0.00  0.00    +0.000 C 
ATOM     35  N   UNL     1      -6.553  12.850  24.111  0.00  0.00    +0.000 NA
ENDBRANCH  31  34
ENDBRANCH  27  28
ENDBRANCH  26  27
ENDBRANCH  19  26
ENDBRANCH   1  19
TORSDOF 9
ENDMDL
MODEL 9
REMARK VINA RESULT:      -7.4      4.561      7.789
REMARK  Name = 
REMARK  10 active torsions:
REMARK  status: ('A' for Active; 'I' for Inactive)
REMARK    1  A    between atoms: C_1  and  N_2
REMARK    2  A    between atoms: C_6  and  C_7
REMARK    3  A    between atoms: C_7  and  O_8
REMARK    4  A    between atoms: C_7  and  C_18
REMARK    5  A    between atoms: O_8  and  C_9
REMARK    6  A    between atoms: C_9  and  C_10
REMARK    7  A    between atoms: C_13  and  C_14
REMARK    8  A    between atoms: C_21  and  C_22
REMARK    9  A    between atoms: C_24  and  C_25
REMARK   10  A    between atoms: C_30  and  C_31
REMARK                            x       y       z     vdW  Elec       q    Type
REMARK                         _______ _______ _______ _____ _____    ______ ____
ROOT
ATOM      1  C   UNL     1      -2.467  12.725  19.819  0.00  0.00    +0.000 A 
ATOM      2  C   UNL     1      -1.520  13.742  19.925  0.00  0.00    +0.000 A 
ATOM      3  C   UNL     1      -1.713  14.785  20.816  0.00  0.00    +0.000 A 
ATOM      4  C   UNL     1      -2.854  14.817  21.632  0.00  0.00    +0.000 A 
ATOM      5  C   UNL     1      -3.910  13.883  21.455  0.00  0.00    +0.000 A 
ATOM      6  C   UNL     1      -3.698  12.877  20.486  0.00  0.00    +0.000 A 
ENDROOT
BRANCH   5   7
ATOM      7  C   UNL     1      -5.198  13.946  22.220  0.00  0.00    +0.000 A 
ATOM      8  C   UNL     1      -6.317  14.543  21.581  0.00  0.00    +0.000 A 
ATOM      9  C   UNL     1      -7.565  14.678  22.191  0.00  0.00    +0.000 A 
ATOM     10  C   UNL     1      -7.772  14.149  23.449  0.00  0.00    +0.000 A 
ATOM     11  C   UNL     1      -6.716  13.522  24.100  0.00  0.00    +0.000 A 
ATOM     12  C   UNL     1      -5.416  13.441  23.530  0.00  0.00    +0.000 A 
BRANCH  12  13
ATOM     13  C   UNL     1      -4.391  12.787  24.439  0.00  0.00    +0.000 C 
ATOM     14  F   UNL     1      -3.573  13.618  25.138  0.00  0.00    +0.000 F 
ATOM     15  F   UNL     1      -4.975  12.002  25.392  0.00  0.00    +0.000 F 
ATOM     16  F   UNL     1      -3.562  11.953  23.744  0.00  0.00    +0.000 F 
ENDBRANCH  12  13
ENDBRANCH   5   7
BRANCH   4  17
ATOM     17  C   UNL     1      -2.843  15.815  22.667  0.00  0.00    +0.000 C 
ATOM     18  N   UNL     1      -2.811  16.643  23.481  0.00  0.00    +0.000 NA
ENDBRANCH   4  17
BRANCH   1  19
ATOM     19  C   UNL     1      -2.098  11.389  19.184  0.00  0.00    +0.000 C 
BRANCH  19  25
ATOM     20  C   UNL     1      -5.143  10.736  18.305  0.00  0.00    +0.000 C 
ATOM     21  N   UNL     1      -3.987  10.935  17.467  0.00  0.00    +0.000 N 
ATOM     22  C   UNL     1      -4.039  10.848  16.100  0.00  0.00    +0.000 A 
ATOM     23  N   UNL     1      -2.862  11.025  15.553  0.00  0.00    +0.000 NA
ATOM     24  C   UNL     1      -2.014  11.240  16.602  0.00  0.00    +0.000 A 
ATOM     25  C   UNL     1      -2.677  11.196  17.817  0.00  0.00    +0.000 A 
ENDBRANCH  19  25
BRANCH  19  26
ATOM     26  O   UNL     1      -0.670  11.250  19.098  0.00  0.00    +0.000 OA
BRANCH  26  27
ATOM     27  C   UNL     1      -0.106  10.483  20.170  0.00  0.00    +0.000 C 
BRANCH  27  28
ATOM     28  C   UNL     1       0.826   9.444  19.596  0.00  0.00    +0.000 A 
ATOM     29  C   UNL     1       1.305   8.390  20.391  0.00  0.00    +0.000 A 
ATOM     30  C   UNL     1       2.163   7.422  19.853  0.00  0.00    +0.000 A 
ATOM     31  C   UNL     1       2.549   7.499  18.511  0.00  0.00    +0.000 A 
ATOM     32  C   UNL     1       2.074   8.544  17.712  0.00  0.00    +0.000 A 
ATOM     33  C   UNL     1       1.219   9.508  18.253  0.00  0.00    +0.000 A 
BRANCH  31  34
ATOM     34  C   UNL     1       3.432   6.516  17.962  0.00  0.00    +0.000 C 
ATOM     35  N   UNL     1       4.151   5.717  17.508  0.00  0.00    +0.000 NA
ENDBRANCH  31  34
ENDBRANCH  27  28
ENDBRANCH  26  27
ENDBRANCH  19  26
ENDBRANCH   1  19
TORSDOF 9
ENDMDL
