MODEL 1
REMARK VINA RESULT:      -5.8      0.000      0.000
REMARK  Name = 
REMARK  6 active torsions:
REMARK  status: ('A' for Active; 'I' for Inactive)
REMARK    1  A    between atoms: C_1  and  C_2
REMARK    2  A    between atoms: C_2  and  C_3
REMARK    3  A    between atoms: C_3  and  C_4
REMARK    4  A    between atoms: C_3  and  C_5
REMARK    5  A    between atoms: C_5  and  N_6
REMARK    6  A    between atoms: C_5  and  C_7
REMARK                            x       y       z     vdW  Elec       q    Type
REMARK                         _______ _______ _______ _____ _____    ______ ____
ROOT
ATOM      1  C   UNL     1       3.377   2.505  17.779  0.00  0.00    +0.000 C 
ENDROOT
BRANCH   1   2
ATOM      2  C   UNL     1       4.430   3.509  18.333  0.00  0.00    +0.000 C 
ATOM      3  O   UNL     1       4.620   3.640  19.547  0.00  0.00    +0.000 OA
ATOM      4  N   UNL     1       5.249   4.149  17.425  0.00  0.00    +0.000 N 
ATOM      5  C   UNL     1       6.364   4.947  17.904  0.00  0.00    +0.000 C 
ATOM      6  C   UNL     1       6.893   5.549  16.650  0.00  0.00    +0.000 C 
ATOM      7  C   UNL     1       6.183   5.157  15.587  0.00  0.00    +0.000 C 
ATOM      8  C   UNL     1       5.080   4.234  15.981  0.00  0.00    +0.000 C 
ENDBRANCH   1   2
BRANCH   1   9
ATOM      9  N   UNL     1       3.688   1.175  18.363  0.00  0.00    +0.000 NA
ATOM     10  H   UNL     1       3.489   0.470  17.648  0.00  0.00    +0.000 HD
ATOM     11  H   UNL     1       3.013   0.978  19.101  0.00  0.00    +0.000 HD
ENDBRANCH   1   9
BRANCH   1  12
ATOM     12  C   UNL     1       1.888   2.893  18.043  0.00  0.00    +0.000 C 
ATOM     13  C   UNL     1       1.677   4.387  17.743  0.00  0.00    +0.000 C 
BRANCH  12  15
ATOM     14  C   UNL     1       1.070   3.686  20.353  0.00  0.00    +0.000 C 
ATOM     15  C   UNL     1       1.322   2.494  19.428  0.00  0.00    +0.000 C 
ENDBRANCH  12  15
ENDBRANCH   1  12
TORSDOF 4
ENDMDL
MODEL 2
REMARK VINA RESULT:      -5.7      1.388      1.987
REMARK  Name = 
REMARK  6 active torsions:
REMARK  status: ('A' for Active; 'I' for Inactive)
REMARK    1  A    between atoms: C_1  and  C_2
REMARK    2  A    between atoms: C_2  and  C_3
REMARK    3  A    between atoms: C_3  and  C_4
REMARK    4  A    between atoms: C_3  and  C_5
REMARK    5  A    between atoms: C_5  and  N_6
REMARK    6  A    between atoms: C_5  and  C_7
REMARK                            x       y       z     vdW  Elec       q    Type
REMARK                         _______ _______ _______ _____ _____    ______ ____
ROOT
ATOM      1  C   UNL     1       4.281   3.389  19.217  0.00  0.00    +0.000 C 
ENDROOT
BRANCH   1   2
ATOM      2  C   UNL     1       5.454   4.325  18.803  0.00  0.00    +0.000 C 
ATOM      3  O   UNL     1       6.136   4.916  19.648  0.00  0.00    +0.000 OA
ATOM      4  N   UNL     1       5.804   4.367  17.469  0.00  0.00    +0.000 N 
ATOM      5  C   UNL     1       7.004   5.078  17.066  0.00  0.00    +0.000 C 
ATOM      6  C   UNL     1       6.946   4.993  15.581  0.00  0.00    +0.000 C 
ATOM      7  C   UNL     1       5.860   4.327  15.175  0.00  0.00    +0.000 C 
ATOM      8  C   UNL     1       5.040   3.869  16.333  0.00  0.00    +0.000 C 
ENDBRANCH   1   2
BRANCH   1   9
ATOM      9  N   UNL     1       4.869   2.257  19.978  0.00  0.00    +0.000 NA
ATOM     10  H   UNL     1       5.029   2.580  20.936  0.00  0.00    +0.000 HD
ATOM     11  H   UNL     1       5.805   2.074  19.618  0.00  0.00    +0.000 HD
ENDBRANCH   1   9
BRANCH   1  12
ATOM     12  C   UNL     1       3.141   4.076  20.033  0.00  0.00    +0.000 C 
ATOM     13  C   UNL     1       2.508   3.063  21.003  0.00  0.00    +0.000 C 
BRANCH  12  15
ATOM     14  C   UNL     1       1.660   4.086  17.925  0.00  0.00    +0.000 C 
ATOM     15  C   UNL     1       2.073   4.825  19.200  0.00  0.00    +0.000 C 
ENDBRANCH  12  15
ENDBRANCH   1  12
TORSDOF 4
ENDMDL
MODEL 3
REMARK VINA RESULT:      -5.7      1.982      4.833
REMARK  Name = 
REMARK  6 active torsions:
REMARK  status: ('A' for Active; 'I' for Inactive)
REMARK    1  A    between atoms: C_1  and  C_2
REMARK    2  A    between atoms: C_2  and  C_3
REMARK    3  A    between atoms: C_3  and  C_4
REMARK    4  A    between atoms: C_3  and  C_5
REMARK    5  A    between atoms: C_5  and  N_6
REMARK    6  A    between atoms: C_5  and  C_7
REMARK                            x       y       z     vdW  Elec       q    Type
REMARK                         _______ _______ _______ _____ _____    ______ ____
ROOT
ATOM      1  C   UNL     1       5.131   5.289  19.145  0.00  0.00    +0.000 C 
ENDROOT
BRANCH   1   2
ATOM      2  C   UNL     1       4.519   3.917  19.551  0.00  0.00    +0.000 C 
ATOM      3  O   UNL     1       5.206   2.891  19.593  0.00  0.00    +0.000 OA
ATOM      4  N   UNL     1       3.215   3.902  20.004  0.00  0.00    +0.000 N 
ATOM      5  C   UNL     1       2.666   2.681  20.568  0.00  0.00    +0.000 C 
ATOM      6  C   UNL     1       1.242   3.046  20.803  0.00  0.00    +0.000 C 
ATOM      7  C   UNL     1       0.995   4.305  20.425  0.00  0.00    +0.000 C 
ATOM      8  C   UNL     1       2.221   4.961  19.887  0.00  0.00    +0.000 C 
ENDBRANCH   1   2
BRANCH   1   9
ATOM      9  N   UNL     1       6.540   5.299  19.614  0.00  0.00    +0.000 NA
ATOM     10  H   UNL     1       7.065   5.924  18.998  0.00  0.00    +0.000 HD
ATOM     11  H   UNL     1       6.947   4.380  19.440  0.00  0.00    +0.000 HD
ENDBRANCH   1   9
BRANCH   1  12
ATOM     12  C   UNL     1       5.048   5.627  17.623  0.00  0.00    +0.000 C 
ATOM     13  C   UNL     1       4.198   6.892  17.413  0.00  0.00    +0.000 C 
BRANCH  12  15
ATOM     14  C   UNL     1       5.735   3.886  15.852  0.00  0.00    +0.000 C 
ATOM     15  C   UNL     1       4.601   4.467  16.699  0.00  0.00    +0.000 C 
ENDBRANCH  12  15
ENDBRANCH   1  12
TORSDOF 4
ENDMDL
MODEL 4
REMARK VINA RESULT:      -5.7      1.955      4.924
REMARK  Name = 
REMARK  6 active torsions:
REMARK  status: ('A' for Active; 'I' for Inactive)
REMARK    1  A    between atoms: C_1  and  C_2
REMARK    2  A    between atoms: C_2  and  C_3
REMARK    3  A    between atoms: C_3  and  C_4
REMARK    4  A    between atoms: C_3  and  C_5
REMARK    5  A    between atoms: C_5  and  N_6
REMARK    6  A    between atoms: C_5  and  C_7
REMARK                            x       y       z     vdW  Elec       q    Type
REMARK                         _______ _______ _______ _____ _____    ______ ____
ROOT
ATOM      1  C   UNL     1       5.227   4.940  18.917  0.00  0.00    +0.000 C 
ENDROOT
BRANCH   1   2
ATOM      2  C   UNL     1       4.570   3.691  19.574  0.00  0.00    +0.000 C 
ATOM      3  O   UNL     1       5.216   2.660  19.787  0.00  0.00    +0.000 OA
ATOM      4  N   UNL     1       3.279   3.816  20.046  0.00  0.00    +0.000 N 
ATOM      5  C   UNL     1       2.696   2.741  20.830  0.00  0.00    +0.000 C 
ATOM      6  C   UNL     1       1.294   3.205  21.022  0.00  0.00    +0.000 C 
ATOM      7  C   UNL     1       1.089   4.386  20.429  0.00  0.00    +0.000 C 
ATOM      8  C   UNL     1       2.327   4.880  19.759  0.00  0.00    +0.000 C 
ENDBRANCH   1   2
BRANCH   1   9
ATOM      9  N   UNL     1       6.475   5.227  19.667  0.00  0.00    +0.000 NA
ATOM     10  H   UNL     1       7.238   5.281  18.987  0.00  0.00    +0.000 HD
ATOM     11  H   UNL     1       6.707   4.413  20.236  0.00  0.00    +0.000 HD
ENDBRANCH   1   9
BRANCH   1  12
ATOM     12  C   UNL     1       5.514   4.810  17.387  0.00  0.00    +0.000 C 
ATOM     13  C   UNL     1       7.020   4.602  17.154  0.00  0.00    +0.000 C 
BRANCH  12  15
ATOM     14  C   UNL     1       4.155   6.995  17.274  0.00  0.00    +0.000 C 
ATOM     15  C   UNL     1       4.939   5.937  16.495  0.00  0.00    +0.000 C 
ENDBRANCH  12  15
ENDBRANCH   1  12
TORSDOF 4
ENDMDL
MODEL 5
REMARK VINA RESULT:      -5.6      0.984      1.158
REMARK  Name = 
REMARK  6 active torsions:
REMARK  status: ('A' for Active; 'I' for Inactive)
REMARK    1  A    between atoms: C_1  and  C_2
REMARK    2  A    between atoms: C_2  and  C_3
REMARK    3  A    between atoms: C_3  and  C_4
REMARK    4  A    between atoms: C_3  and  C_5
REMARK    5  A    between atoms: C_5  and  N_6
REMARK    6  A    between atoms: C_5  and  C_7
REMARK                            x       y       z     vdW  Elec       q    Type
REMARK                         _______ _______ _______ _____ _____    ______ ____
ROOT
ATOM      1  C   UNL     1       3.870   3.175  17.622  0.00  0.00    +0.000 C 
ENDROOT
BRANCH   1   2
ATOM      2  C   UNL     1       4.809   3.870  18.650  0.00  0.00    +0.000 C 
ATOM      3  O   UNL     1       4.825   3.534  19.839  0.00  0.00    +0.000 OA
ATOM      4  N   UNL     1       5.730   4.778  18.169  0.00  0.00    +0.000 N 
ATOM      5  C   UNL     1       6.746   5.309  19.061  0.00  0.00    +0.000 C 
ATOM      6  C   UNL     1       7.429   6.319  18.208  0.00  0.00    +0.000 C 
ATOM      7  C   UNL     1       6.884   6.371  16.988  0.00  0.00    +0.000 C 
ATOM      8  C   UNL     1       5.761   5.400  16.852  0.00  0.00    +0.000 C 
ENDBRANCH   1   2
BRANCH   1   9
ATOM      9  N   UNL     1       3.996   1.710  17.831  0.00  0.00    +0.000 NA
ATOM     10  H   UNL     1       4.265   1.293  16.936  0.00  0.00    +0.000 HD
ATOM     11  H   UNL     1       3.069   1.326  18.015  0.00  0.00    +0.000 HD
ENDBRANCH   1   9
BRANCH   1  12
ATOM     12  C   UNL     1       2.374   3.618  17.685  0.00  0.00    +0.000 C 
ATOM     13  C   UNL     1       2.287   5.116  18.027  0.00  0.00    +0.000 C 
BRANCH  12  15
ATOM     14  C   UNL     1       1.059   3.458  19.894  0.00  0.00    +0.000 C 
ATOM     15  C   UNL     1       1.454   2.762  18.590  0.00  0.00    +0.000 C 
ENDBRANCH  12  15
ENDBRANCH   1  12
TORSDOF 4
ENDMDL
MODEL 6
REMARK VINA RESULT:      -5.5      1.266      1.312
REMARK  Name = 
REMARK  6 active torsions:
REMARK  status: ('A' for Active; 'I' for Inactive)
REMARK    1  A    between atoms: C_1  and  C_2
REMARK    2  A    between atoms: C_2  and  C_3
REMARK    3  A    between atoms: C_3  and  C_4
REMARK    4  A    between atoms: C_3  and  C_5
REMARK    5  A    between atoms: C_5  and  N_6
REMARK    6  A    between atoms: C_5  and  C_7
REMARK                            x       y       z     vdW  Elec       q    Type
REMARK                         _______ _______ _______ _____ _____    ______ ____
ROOT
ATOM      1  C   UNL     1       4.046   2.835  18.827  0.00  0.00    +0.000 C 
ENDROOT
BRANCH   1   2
ATOM      2  C   UNL     1       4.306   4.366  18.718  0.00  0.00    +0.000 C 
ATOM      3  O   UNL     1       4.179   5.113  19.693  0.00  0.00    +0.000 OA
ATOM      4  N   UNL     1       4.824   4.848  17.532  0.00  0.00    +0.000 N 
ATOM      5  C   UNL     1       5.256   6.231  17.449  0.00  0.00    +0.000 C 
ATOM      6  C   UNL     1       5.613   6.373  16.011  0.00  0.00    +0.000 C 
ATOM      7  C   UNL     1       5.413   5.229  15.348  0.00  0.00    +0.000 C 
ATOM      8  C   UNL     1       4.897   4.160  16.250  0.00  0.00    +0.000 C 
ENDBRANCH   1   2
BRANCH   1   9
ATOM      9  N   UNL     1       4.896   2.322  19.931  0.00  0.00    +0.000 NA
ATOM     10  H   UNL     1       5.605   3.032  20.130  0.00  0.00    +0.000 HD
ATOM     11  H   UNL     1       5.432   1.526  19.586  0.00  0.00    +0.000 HD
ENDBRANCH   1   9
BRANCH   1  12
ATOM     12  C   UNL     1       2.552   2.431  19.041  0.00  0.00    +0.000 C 
ATOM     13  C   UNL     1       1.657   3.195  18.051  0.00  0.00    +0.000 C 
BRANCH  12  15
ATOM     14  C   UNL     1       1.116   3.738  20.733  0.00  0.00    +0.000 C 
ATOM     15  C   UNL     1       2.028   2.533  20.495  0.00  0.00    +0.000 C 
ENDBRANCH  12  15
ENDBRANCH   1  12
TORSDOF 4
ENDMDL
MODEL 7
REMARK VINA RESULT:      -5.5      1.773      5.092
REMARK  Name = 
REMARK  6 active torsions:
REMARK  status: ('A' for Active; 'I' for Inactive)
REMARK    1  A    between atoms: C_1  and  C_2
REMARK    2  A    between atoms: C_2  and  C_3
REMARK    3  A    between atoms: C_3  and  C_4
REMARK    4  A    between atoms: C_3  and  C_5
REMARK    5  A    between atoms: C_5  and  N_6
REMARK    6  A    between atoms: C_5  and  C_7
REMARK                            x       y       z     vdW  Elec       q    Type
REMARK                         _______ _______ _______ _____ _____    ______ ____
ROOT
ATOM      1  C   UNL     1       5.078   4.828  18.715  0.00  0.00    +0.000 C 
ENDROOT
BRANCH   1   2
ATOM      2  C   UNL     1       3.909   3.992  18.116  0.00  0.00    +0.000 C 
ATOM      3  O   UNL     1       3.997   3.468  17.000  0.00  0.00    +0.000 OA
ATOM      4  N   UNL     1       2.824   3.729  18.927  0.00  0.00    +0.000 N 
ATOM      5  C   UNL     1       1.801   2.801  18.477  0.00  0.00    +0.000 C 
ATOM      6  C   UNL     1       0.778   2.901  19.554  0.00  0.00    +0.000 C 
ATOM      7  C   UNL     1       1.153   3.769  20.499  0.00  0.00    +0.000 C 
ATOM      8  C   UNL     1       2.482   4.371  20.189  0.00  0.00    +0.000 C 
ENDBRANCH   1   2
BRANCH   1   9
ATOM      9  N   UNL     1       6.319   4.029  18.552  0.00  0.00    +0.000 NA
ATOM     10  H   UNL     1       6.583   4.067  17.564  0.00  0.00    +0.000 HD
ATOM     11  H   UNL     1       6.098   3.047  18.713  0.00  0.00    +0.000 HD
ENDBRANCH   1   9
BRANCH   1  12
ATOM     12  C   UNL     1       5.251   6.255  18.106  0.00  0.00    +0.000 C 
ATOM     13  C   UNL     1       3.898   6.768  17.583  0.00  0.00    +0.000 C 
BRANCH  12  15
ATOM     14  C   UNL     1       7.519   7.316  17.503  0.00  0.00    +0.000 C 
ATOM     15  C   UNL     1       6.375   6.407  17.052  0.00  0.00    +0.000 C 
ENDBRANCH  12  15
ENDBRANCH   1  12
TORSDOF 4
ENDMDL
MODEL 8
REMARK VINA RESULT:      -5.5      1.145      1.218
REMARK  Name = 
REMARK  6 active torsions:
REMARK  status: ('A' for Active; 'I' for Inactive)
REMARK    1  A    between atoms: C_1  and  C_2
REMARK    2  A    between atoms: C_2  and  C_3
REMARK    3  A    between atoms: C_3  and  C_4
REMARK    4  A    between atoms: C_3  and  C_5
REMARK    5  A    between atoms: C_5  and  N_6
REMARK    6  A    between atoms: C_5  and  C_7
REMARK                            x       y       z     vdW  Elec       q    Type
REMARK                         _______ _______ _______ _____ _____    ______ ____
ROOT
ATOM      1  C   UNL     1       2.836   3.297  18.236  0.00  0.00    +0.000 C 
ENDROOT
BRANCH   1   2
ATOM      2  C   UNL     1       4.302   3.606  18.660  0.00  0.00    +0.000 C 
ATOM      3  O   UNL     1       4.844   3.004  19.594  0.00  0.00    +0.000 OA
ATOM      4  N   UNL     1       5.031   4.472  17.871  0.00  0.00    +0.000 N 
ATOM      5  C   UNL     1       6.452   4.643  18.120  0.00  0.00    +0.000 C 
ATOM      6  C   UNL     1       6.818   5.726  17.165  0.00  0.00    +0.000 C 
ATOM      7  C   UNL     1       5.757   6.130  16.460  0.00  0.00    +0.000 C 
ATOM      8  C   UNL     1       4.530   5.373  16.841  0.00  0.00    +0.000 C 
ENDBRANCH   1   2
BRANCH   1   9
ATOM      9  N   UNL     1       2.722   1.824  18.089  0.00  0.00    +0.000 NA
ATOM     10  H   UNL     1       3.432   1.525  17.415  0.00  0.00    +0.000 HD
ATOM     11  H   UNL     1       1.837   1.610  17.629  0.00  0.00    +0.000 HD
ENDBRANCH   1   9
BRANCH   1  12
ATOM     12  C   UNL     1       1.738   3.847  19.200  0.00  0.00    +0.000 C 
ATOM     13  C   UNL     1       2.197   5.183  19.808  0.00  0.00    +0.000 C 
BRANCH  12  15
ATOM     14  C   UNL     1       1.914   3.039  21.639  0.00  0.00    +0.000 C 
ATOM     15  C   UNL     1       1.234   2.860  20.281  0.00  0.00    +0.000 C 
ENDBRANCH  12  15
ENDBRANCH   1  12
TORSDOF 4
ENDMDL
MODEL 9
REMARK VINA RESULT:      -5.5      1.453      4.917
REMARK  Name = 
REMARK  6 active torsions:
REMARK  status: ('A' for Active; 'I' for Inactive)
REMARK    1  A    between atoms: C_1  and  C_2
REMARK    2  A    between atoms: C_2  and  C_3
REMARK    3  A    between atoms: C_3  and  C_4
REMARK    4  A    between atoms: C_3  and  C_5
REMARK    5  A    between atoms: C_5  and  N_6
REMARK    6  A    between atoms: C_5  and  C_7
REMARK                            x       y       z     vdW  Elec       q    Type
REMARK                         _______ _______ _______ _____ _____    ______ ____
ROOT
ATOM      1  C   UNL     1       5.356   4.635  18.609  0.00  0.00    +0.000 C 
ENDROOT
BRANCH   1   2
ATOM      2  C   UNL     1       4.563   3.457  19.249  0.00  0.00    +0.000 C 
ATOM      3  O   UNL     1       5.111   2.644  20.001  0.00  0.00    +0.000 OA
ATOM      4  N   UNL     1       3.195   3.428  19.067  0.00  0.00    +0.000 N 
ATOM      5  C   UNL     1       2.396   2.460  19.796  0.00  0.00    +0.000 C 
ATOM      6  C   UNL     1       1.035   2.673  19.231  0.00  0.00    +0.000 C 
ATOM      7  C   UNL     1       1.042   3.631  18.299  0.00  0.00    +0.000 C 
ATOM      8  C   UNL     1       2.409   4.197  18.112  0.00  0.00    +0.000 C 
ENDBRANCH   1   2
BRANCH   1   9
ATOM      9  N   UNL     1       6.347   5.095  19.615  0.00  0.00    +0.000 NA
ATOM     10  H   UNL     1       6.697   4.268  20.104  0.00  0.00    +0.000 HD
ATOM     11  H   UNL     1       5.856   5.622  20.338  0.00  0.00    +0.000 HD
ENDBRANCH   1   9
BRANCH   1  12
ATOM     12  C   UNL     1       6.053   4.304  17.252  0.00  0.00    +0.000 C 
ATOM     13  C   UNL     1       7.551   4.644  17.337  0.00  0.00    +0.000 C 
BRANCH  12  15
ATOM     14  C   UNL     1       6.275   4.837  14.742  0.00  0.00    +0.000 C 
ATOM     15  C   UNL     1       5.393   4.909  15.989  0.00  0.00    +0.000 C 
ENDBRANCH  12  15
ENDBRANCH   1  12
TORSDOF 4
ENDMDL
