MODEL 1
REMARK VINA RESULT:      -7.3      0.000      0.000
REMARK  Name = 
REMARK  7 active torsions:
REMARK  status: ('A' for Active; 'I' for Inactive)
REMARK    1  A    between atoms: C_1  and  N_2
REMARK    2  A    between atoms: N_2  and  C_3
REMARK    3  A    between atoms: N_2  and  C_17
REMARK    4  A    between atoms: C_3  and  C_4
REMARK    5  A    between atoms: C_4  and  C_5
REMARK    6  A    between atoms: C_5  and  N_6
REMARK    7  A    between atoms: C_17  and  C_18
REMARK                            x       y       z     vdW  Elec       q    Type
REMARK                         _______ _______ _______ _____ _____    ______ ____
ROOT
ATOM      1  C   UNL     1       2.937   3.851  17.251  0.00  0.00    +0.000 C 
ENDROOT
BRANCH   1   2
ATOM      2  N   UNL     1       2.570   4.248  18.596  0.00  0.00    +0.000 N 
ATOM      3  C   UNL     1       2.405   3.296  19.598  0.00  0.00    +0.000 A 
ATOM      4  O   UNL     1       2.565   2.089  19.499  0.00  0.00    +0.000 OA
ATOM      5  S   UNL     1       1.901   4.081  21.100  0.00  0.00    +0.000 S 
ATOM      6  C   UNL     1       1.938   5.676  20.338  0.00  0.00    +0.000 A 
ATOM      7  C   UNL     1       1.618   6.896  20.924  0.00  0.00    +0.000 A 
ATOM      8  C   UNL     1       1.705   8.046  20.140  0.00  0.00    +0.000 A 
ATOM      9  C   UNL     1       2.130   7.960  18.807  0.00  0.00    +0.000 A 
ATOM     10 CL   UNL     1       2.240   9.400  17.866  0.00  0.00    +0.000 Cl
ATOM     11  C   UNL     1       2.454   6.729  18.224  0.00  0.00    +0.000 A 
ATOM     12  C   UNL     1       2.343   5.584  18.998  0.00  0.00    +0.000 A 
ENDBRANCH   1   2
BRANCH   1  13
ATOM     13  C   UNL     1       4.374   3.338  17.165  0.00  0.00    +0.000 C 
BRANCH  13  14
ATOM     14  C   UNL     1       5.371   4.431  17.581  0.00  0.00    +0.000 C 
BRANCH  14  16
ATOM     15  C   UNL     1       7.744   4.623  17.805  0.00  0.00    +0.000 C 
ATOM     16  N   UNL     1       6.653   4.397  16.843  0.00  0.00    +0.000 NA
BRANCH  16  17
ATOM     17  C   UNL     1       6.674   5.417  15.770  0.00  0.00    +0.000 C 
BRANCH  17  18
ATOM     18  C   UNL     1       6.705   4.869  14.357  0.00  0.00    +0.000 A 
ATOM     19  C   UNL     1       5.785   3.902  13.920  0.00  0.00    +0.000 A 
ATOM     20  C   UNL     1       5.884   3.364  12.635  0.00  0.00    +0.000 A 
ATOM     21  C   UNL     1       6.874   3.812  11.761  0.00  0.00    +0.000 A 
ATOM     22  C   UNL     1       7.745   4.825  12.159  0.00  0.00    +0.000 A 
ATOM     23  C   UNL     1       7.660   5.349  13.448  0.00  0.00    +0.000 A 
ENDBRANCH  17  18
ENDBRANCH  16  17
ENDBRANCH  14  16
ENDBRANCH  13  14
ENDBRANCH   1  13
TORSDOF 6
ENDMDL
MODEL 2
REMARK VINA RESULT:      -7.1      3.050      4.579
REMARK  Name = 
REMARK  7 active torsions:
REMARK  status: ('A' for Active; 'I' for Inactive)
REMARK    1  A    between atoms: C_1  and  N_2
REMARK    2  A    between atoms: N_2  and  C_3
REMARK    3  A    between atoms: N_2  and  C_17
REMARK    4  A    between atoms: C_3  and  C_4
REMARK    5  A    between atoms: C_4  and  C_5
REMARK    6  A    between atoms: C_5  and  N_6
REMARK    7  A    between atoms: C_17  and  C_18
REMARK                            x       y       z     vdW  Elec       q    Type
REMARK                         _______ _______ _______ _____ _____    ______ ____
ROOT
ATOM      1  C   UNL     1       2.673   6.107  20.286  0.00  0.00    +0.000 C 
ENDROOT
BRANCH   1   2
ATOM      2  N   UNL     1       2.245   7.312  19.600  0.00  0.00    +0.000 N 
ATOM      3  C   UNL     1       2.597   7.536  18.273  0.00  0.00    +0.000 A 
ATOM      4  O   UNL     1       3.238   6.794  17.546  0.00  0.00    +0.000 OA
ATOM      5  S   UNL     1       1.983   9.108  17.744  0.00  0.00    +0.000 S 
ATOM      6  C   UNL     1       1.258   9.415  19.327  0.00  0.00    +0.000 A 
ATOM      7  C   UNL     1       0.560  10.549  19.726  0.00  0.00    +0.000 A 
ATOM      8  C   UNL     1       0.073  10.596  21.032  0.00  0.00    +0.000 A 
ATOM      9  C   UNL     1       0.268   9.510  21.897  0.00  0.00    +0.000 A 
ATOM     10 CL   UNL     1      -0.357   9.592  23.501  0.00  0.00    +0.000 Cl
ATOM     11  C   UNL     1       0.968   8.370  21.487  0.00  0.00    +0.000 A 
ATOM     12  C   UNL     1       1.473   8.335  20.195  0.00  0.00    +0.000 A 
ENDBRANCH   1   2
BRANCH   1  13
ATOM     13  C   UNL     1       1.647   4.980  20.178  0.00  0.00    +0.000 C 
BRANCH  13  14
ATOM     14  C   UNL     1       2.343   3.616  20.060  0.00  0.00    +0.000 C 
BRANCH  14  16
ATOM     15  C   UNL     1       2.620   2.227  18.133  0.00  0.00    +0.000 C 
ATOM     16  N   UNL     1       3.118   3.434  18.813  0.00  0.00    +0.000 NA
BRANCH  16  17
ATOM     17  C   UNL     1       4.566   3.321  19.099  0.00  0.00    +0.000 C 
BRANCH  17  18
ATOM     18  C   UNL     1       5.454   4.283  18.335  0.00  0.00    +0.000 A 
ATOM     19  C   UNL     1       5.526   4.265  16.932  0.00  0.00    +0.000 A 
ATOM     20  C   UNL     1       6.407   5.115  16.260  0.00  0.00    +0.000 A 
ATOM     21  C   UNL     1       7.194   6.018  16.976  0.00  0.00    +0.000 A 
ATOM     22  C   UNL     1       7.074   6.096  18.362  0.00  0.00    +0.000 A 
ATOM     23  C   UNL     1       6.210   5.234  19.036  0.00  0.00    +0.000 A 
ENDBRANCH  17  18
ENDBRANCH  16  17
ENDBRANCH  14  16
ENDBRANCH  13  14
ENDBRANCH   1  13
TORSDOF 6
ENDMDL
MODEL 3
REMARK VINA RESULT:      -7.1      4.182      8.003
REMARK  Name = 
REMARK  7 active torsions:
REMARK  status: ('A' for Active; 'I' for Inactive)
REMARK    1  A    between atoms: C_1  and  N_2
REMARK    2  A    between atoms: N_2  and  C_3
REMARK    3  A    between atoms: N_2  and  C_17
REMARK    4  A    between atoms: C_3  and  C_4
REMARK    5  A    between atoms: C_4  and  C_5
REMARK    6  A    between atoms: C_5  and  N_6
REMARK    7  A    between atoms: C_17  and  C_18
REMARK                            x       y       z     vdW  Elec       q    Type
REMARK                         _______ _______ _______ _____ _____    ______ ____
ROOT
ATOM      1  C   UNL     1       3.709   7.502  17.962  0.00  0.00    +0.000 C 
ENDROOT
BRANCH   1   2
ATOM      2  N   UNL     1       4.028   6.159  17.518  0.00  0.00    +0.000 N 
ATOM      3  C   UNL     1       4.915   5.950  16.466  0.00  0.00    +0.000 A 
ATOM      4  O   UNL     1       5.527   6.802  15.840  0.00  0.00    +0.000 OA
ATOM      5  S   UNL     1       5.047   4.221  16.122  0.00  0.00    +0.000 S 
ATOM      6  C   UNL     1       3.909   3.825  17.416  0.00  0.00    +0.000 A 
ATOM      7  C   UNL     1       3.455   2.562  17.778  0.00  0.00    +0.000 A 
ATOM      8  C   UNL     1       2.544   2.467  18.831  0.00  0.00    +0.000 A 
ATOM      9  C   UNL     1       2.129   3.621  19.510  0.00  0.00    +0.000 A 
ATOM     10 CL   UNL     1       1.012   3.471  20.814  0.00  0.00    +0.000 Cl
ATOM     11  C   UNL     1       2.593   4.889  19.142  0.00  0.00    +0.000 A 
ATOM     12  C   UNL     1       3.480   4.983  18.080  0.00  0.00    +0.000 A 
ENDBRANCH   1   2
BRANCH   1  13
ATOM     13  C   UNL     1       2.269   7.897  17.641  0.00  0.00    +0.000 C 
BRANCH  13  14
ATOM     14  C   UNL     1       1.679   8.774  18.756  0.00  0.00    +0.000 C 
BRANCH  14  16
ATOM     15  C   UNL     1       1.927  11.118  18.348  0.00  0.00    +0.000 C 
ATOM     16  N   UNL     1       0.985   9.988  18.272  0.00  0.00    +0.000 NA
BRANCH  16  17
ATOM     17  C   UNL     1      -0.231  10.258  19.072  0.00  0.00    +0.000 C 
BRANCH  17  18
ATOM     18  C   UNL     1      -1.495  10.491  18.269  0.00  0.00    +0.000 A 
ATOM     19  C   UNL     1      -2.486  11.390  18.696  0.00  0.00    +0.000 A 
ATOM     20  C   UNL     1      -3.672  11.529  17.971  0.00  0.00    +0.000 A 
ATOM     21  C   UNL     1      -3.864  10.805  16.794  0.00  0.00    +0.000 A 
ATOM     22  C   UNL     1      -2.855   9.968  16.322  0.00  0.00    +0.000 A 
ATOM     23  C   UNL     1      -1.679   9.812  17.055  0.00  0.00    +0.000 A 
ENDBRANCH  17  18
ENDBRANCH  16  17
ENDBRANCH  14  16
ENDBRANCH  13  14
ENDBRANCH   1  13
TORSDOF 6
ENDMDL
MODEL 4
REMARK VINA RESULT:      -7.0      4.183      7.989
REMARK  Name = 
REMARK  7 active torsions:
REMARK  status: ('A' for Active; 'I' for Inactive)
REMARK    1  A    between atoms: C_1  and  N_2
REMARK    2  A    between atoms: N_2  and  C_3
REMARK    3  A    between atoms: N_2  and  C_17
REMARK    4  A    between atoms: C_3  and  C_4
REMARK    5  A    between atoms: C_4  and  C_5
REMARK    6  A    between atoms: C_5  and  N_6
REMARK    7  A    between atoms: C_17  and  C_18
REMARK                            x       y       z     vdW  Elec       q    Type
REMARK                         _______ _______ _______ _____ _____    ______ ____
ROOT
ATOM      1  C   UNL     1       3.776   7.432  17.927  0.00  0.00    +0.000 C 
ENDROOT
BRANCH   1   2
ATOM      2  N   UNL     1       4.081   6.093  17.462  0.00  0.00    +0.000 N 
ATOM      3  C   UNL     1       4.982   5.891  16.421  0.00  0.00    +0.000 A 
ATOM      4  O   UNL     1       5.616   6.745  15.820  0.00  0.00    +0.000 OA
ATOM      5  S   UNL     1       5.094   4.167  16.046  0.00  0.00    +0.000 S 
ATOM      6  C   UNL     1       3.929   3.763  17.314  0.00  0.00    +0.000 A 
ATOM      7  C   UNL     1       3.451   2.501  17.645  0.00  0.00    +0.000 A 
ATOM      8  C   UNL     1       2.522   2.400  18.681  0.00  0.00    +0.000 A 
ATOM      9  C   UNL     1       2.113   3.547  19.375  0.00  0.00    +0.000 A 
ATOM     10 CL   UNL     1       0.975   3.390  20.660  0.00  0.00    +0.000 Cl
ATOM     11  C   UNL     1       2.603   4.815  19.039  0.00  0.00    +0.000 A 
ATOM     12  C   UNL     1       3.508   4.916  17.993  0.00  0.00    +0.000 A 
ENDBRANCH   1   2
BRANCH   1  13
ATOM     13  C   UNL     1       2.380   7.891  17.509  0.00  0.00    +0.000 C 
BRANCH  13  14
ATOM     14  C   UNL     1       1.722   8.725  18.619  0.00  0.00    +0.000 C 
BRANCH  14  16
ATOM     15  C   UNL     1       1.969  11.062  18.171  0.00  0.00    +0.000 C 
ATOM     16  N   UNL     1       1.021   9.935  18.136  0.00  0.00    +0.000 NA
BRANCH  16  17
ATOM     17  C   UNL     1      -0.173  10.222  18.963  0.00  0.00    +0.000 C 
BRANCH  17  18
ATOM     18  C   UNL     1      -1.461  10.428  18.190  0.00  0.00    +0.000 A 
ATOM     19  C   UNL     1      -1.709   9.763  16.979  0.00  0.00    +0.000 A 
ATOM     20  C   UNL     1      -2.873  10.029  16.254  0.00  0.00    +0.000 A 
ATOM     21  C   UNL     1      -3.818  10.928  16.748  0.00  0.00    +0.000 A 
ATOM     22  C   UNL     1      -3.616  11.535  17.986  0.00  0.00    +0.000 A 
ATOM     23  C   UNL     1      -2.445  11.287  18.701  0.00  0.00    +0.000 A 
ENDBRANCH  17  18
ENDBRANCH  16  17
ENDBRANCH  14  16
ENDBRANCH  13  14
ENDBRANCH   1  13
TORSDOF 6
ENDMDL
MODEL 5
REMARK VINA RESULT:      -7.0      3.113      4.578
REMARK  Name = 
REMARK  7 active torsions:
REMARK  status: ('A' for Active; 'I' for Inactive)
REMARK    1  A    between atoms: C_1  and  N_2
REMARK    2  A    between atoms: N_2  and  C_3
REMARK    3  A    between atoms: N_2  and  C_17
REMARK    4  A    between atoms: C_3  and  C_4
REMARK    5  A    between atoms: C_4  and  C_5
REMARK    6  A    between atoms: C_5  and  N_6
REMARK    7  A    between atoms: C_17  and  C_18
REMARK                            x       y       z     vdW  Elec       q    Type
REMARK                         _______ _______ _______ _____ _____    ______ ____
ROOT
ATOM      1  C   UNL     1       2.715   6.113  20.222  0.00  0.00    +0.000 C 
ENDROOT
BRANCH   1   2
ATOM      2  N   UNL     1       2.275   7.329  19.567  0.00  0.00    +0.000 N 
ATOM      3  C   UNL     1       2.618   7.587  18.243  0.00  0.00    +0.000 A 
ATOM      4  O   UNL     1       3.261   6.866  17.496  0.00  0.00    +0.000 OA
ATOM      5  S   UNL     1       1.989   9.165  17.753  0.00  0.00    +0.000 S 
ATOM      6  C   UNL     1       1.270   9.430  19.347  0.00  0.00    +0.000 A 
ATOM      7  C   UNL     1       0.566  10.550  19.775  0.00  0.00    +0.000 A 
ATOM      8  C   UNL     1       0.084  10.563  21.084  0.00  0.00    +0.000 A 
ATOM      9  C   UNL     1       0.292   9.459  21.923  0.00  0.00    +0.000 A 
ATOM     10 CL   UNL     1      -0.325   9.498  23.532  0.00  0.00    +0.000 Cl
ATOM     11  C   UNL     1       0.999   8.333  21.483  0.00  0.00    +0.000 A 
ATOM     12  C   UNL     1       1.498   8.332  20.189  0.00  0.00    +0.000 A 
ENDBRANCH   1   2
BRANCH   1  13
ATOM     13  C   UNL     1       1.815   4.920  19.904  0.00  0.00    +0.000 C 
BRANCH  13  14
ATOM     14  C   UNL     1       2.623   3.614  19.878  0.00  0.00    +0.000 C 
BRANCH  14  16
ATOM     15  C   UNL     1       3.215   2.216  18.030  0.00  0.00    +0.000 C 
ATOM     16  N   UNL     1       3.528   3.482  18.715  0.00  0.00    +0.000 NA
BRANCH  16  17
ATOM     17  C   UNL     1       4.946   3.518  19.139  0.00  0.00    +0.000 C 
BRANCH  17  18
ATOM     18  C   UNL     1       5.810   4.535  18.420  0.00  0.00    +0.000 A 
ATOM     19  C   UNL     1       6.707   5.363  19.114  0.00  0.00    +0.000 A 
ATOM     20  C   UNL     1       7.437   6.340  18.433  0.00  0.00    +0.000 A 
ATOM     21  C   UNL     1       7.310   6.473  17.050  0.00  0.00    +0.000 A 
ATOM     22  C   UNL     1       6.480   5.606  16.342  0.00  0.00    +0.000 A 
ATOM     23  C   UNL     1       5.736   4.644  17.023  0.00  0.00    +0.000 A 
ENDBRANCH  17  18
ENDBRANCH  16  17
ENDBRANCH  14  16
ENDBRANCH  13  14
ENDBRANCH   1  13
TORSDOF 6
ENDMDL
MODEL 6
REMARK VINA RESULT:      -6.8      4.365      6.801
REMARK  Name = 
REMARK  7 active torsions:
REMARK  status: ('A' for Active; 'I' for Inactive)
REMARK    1  A    between atoms: C_1  and  N_2
REMARK    2  A    between atoms: N_2  and  C_3
REMARK    3  A    between atoms: N_2  and  C_17
REMARK    4  A    between atoms: C_3  and  C_4
REMARK    5  A    between atoms: C_4  and  C_5
REMARK    6  A    between atoms: C_5  and  N_6
REMARK    7  A    between atoms: C_17  and  C_18
REMARK                            x       y       z     vdW  Elec       q    Type
REMARK                         _______ _______ _______ _____ _____    ______ ____
ROOT
ATOM      1  C   UNL     1       1.189   8.639  19.508  0.00  0.00    +0.000 C 
ENDROOT
BRANCH   1   2
ATOM      2  N   UNL     1       0.372   9.791  19.839  0.00  0.00    +0.000 N 
ATOM      3  C   UNL     1       0.563  10.478  21.034  0.00  0.00    +0.000 A 
ATOM      4  O   UNL     1       1.402  10.245  21.890  0.00  0.00    +0.000 OA
ATOM      5  S   UNL     1      -0.619  11.786  21.173  0.00  0.00    +0.000 S 
ATOM      6  C   UNL     1      -1.333  11.377  19.608  0.00  0.00    +0.000 A 
ATOM      7  C   UNL     1      -2.413  11.996  18.990  0.00  0.00    +0.000 A 
ATOM      8  C   UNL     1      -2.828  11.510  17.750  0.00  0.00    +0.000 A 
ATOM      9  C   UNL     1      -2.146  10.444  17.146  0.00  0.00    +0.000 A 
ATOM     10 CL   UNL     1      -2.674   9.874  15.607  0.00  0.00    +0.000 Cl
ATOM     11  C   UNL     1      -1.057   9.828  17.773  0.00  0.00    +0.000 A 
ATOM     12  C   UNL     1      -0.661  10.297  19.017  0.00  0.00    +0.000 A 
ENDBRANCH   1   2
BRANCH   1  13
ATOM     13  C   UNL     1       2.316   8.983  18.535  0.00  0.00    +0.000 C 
BRANCH  13  14
ATOM     14  C   UNL     1       2.546   7.838  17.538  0.00  0.00    +0.000 C 
BRANCH  14  16
ATOM     15  C   UNL     1       4.801   7.056  17.383  0.00  0.00    +0.000 C 
ATOM     16  N   UNL     1       3.492   6.802  18.008  0.00  0.00    +0.000 NA
BRANCH  16  17
ATOM     17  C   UNL     1       3.001   5.445  17.676  0.00  0.00    +0.000 C 
BRANCH  17  18
ATOM     18  C   UNL     1       2.395   4.677  18.833  0.00  0.00    +0.000 A 
ATOM     19  C   UNL     1       1.436   3.671  18.629  0.00  0.00    +0.000 A 
ATOM     20  C   UNL     1       0.843   3.030  19.719  0.00  0.00    +0.000 A 
ATOM     21  C   UNL     1       1.228   3.357  21.020  0.00  0.00    +0.000 A 
ATOM     22  C   UNL     1       2.232   4.299  21.230  0.00  0.00    +0.000 A 
ATOM     23  C   UNL     1       2.811   4.954  20.144  0.00  0.00    +0.000 A 
ENDBRANCH  17  18
ENDBRANCH  16  17
ENDBRANCH  14  16
ENDBRANCH  13  14
ENDBRANCH   1  13
TORSDOF 6
ENDMDL
MODEL 7
REMARK VINA RESULT:      -6.7      3.810      7.895
REMARK  Name = 
REMARK  7 active torsions:
REMARK  status: ('A' for Active; 'I' for Inactive)
REMARK    1  A    between atoms: C_1  and  N_2
REMARK    2  A    between atoms: N_2  and  C_3
REMARK    3  A    between atoms: N_2  and  C_17
REMARK    4  A    between atoms: C_3  and  C_4
REMARK    5  A    between atoms: C_4  and  C_5
REMARK    6  A    between atoms: C_5  and  N_6
REMARK    7  A    between atoms: C_17  and  C_18
REMARK                            x       y       z     vdW  Elec       q    Type
REMARK                         _______ _______ _______ _____ _____    ______ ____
ROOT
ATOM      1  C   UNL     1       2.541   6.980  18.814  0.00  0.00    +0.000 C 
ENDROOT
BRANCH   1   2
ATOM      2  N   UNL     1       3.207   5.878  18.147  0.00  0.00    +0.000 N 
ATOM      3  C   UNL     1       2.536   4.683  17.907  0.00  0.00    +0.000 A 
ATOM      4  O   UNL     1       1.373   4.425  18.176  0.00  0.00    +0.000 OA
ATOM      5  S   UNL     1       3.627   3.522  17.140  0.00  0.00    +0.000 S 
ATOM      6  C   UNL     1       4.957   4.686  17.153  0.00  0.00    +0.000 A 
ATOM      7  C   UNL     1       6.255   4.484  16.698  0.00  0.00    +0.000 A 
ATOM      8  C   UNL     1       7.163   5.538  16.807  0.00  0.00    +0.000 A 
ATOM      9  C   UNL     1       6.753   6.768  17.341  0.00  0.00    +0.000 A 
ATOM     10 CL   UNL     1       7.893   8.057  17.451  0.00  0.00    +0.000 Cl
ATOM     11  C   UNL     1       5.443   6.966  17.793  0.00  0.00    +0.000 A 
ATOM     12  C   UNL     1       4.549   5.909  17.706  0.00  0.00    +0.000 A 
ENDBRANCH   1   2
BRANCH   1  13
ATOM     13  C   UNL     1       1.834   7.914  17.833  0.00  0.00    +0.000 C 
BRANCH  13  14
ATOM     14  C   UNL     1       2.367   9.349  17.962  0.00  0.00    +0.000 C 
BRANCH  14  16
ATOM     15  C   UNL     1       1.909  11.623  18.542  0.00  0.00    +0.000 C 
ATOM     16  N   UNL     1       1.314  10.387  18.004  0.00  0.00    +0.000 NA
BRANCH  16  17
ATOM     17  C   UNL     1       0.168   9.948  18.831  0.00  0.00    +0.000 C 
BRANCH  17  18
ATOM     18  C   UNL     1      -1.197  10.353  18.311  0.00  0.00    +0.000 A 
ATOM     19  C   UNL     1      -1.745   9.778  17.152  0.00  0.00    +0.000 A 
ATOM     20  C   UNL     1      -2.974  10.224  16.658  0.00  0.00    +0.000 A 
ATOM     21  C   UNL     1      -3.685  11.215  17.334  0.00  0.00    +0.000 A 
ATOM     22  C   UNL     1      -3.185  11.737  18.525  0.00  0.00    +0.000 A 
ATOM     23  C   UNL     1      -1.950  11.308  19.010  0.00  0.00    +0.000 A 
ENDBRANCH  17  18
ENDBRANCH  16  17
ENDBRANCH  14  16
ENDBRANCH  13  14
ENDBRANCH   1  13
TORSDOF 6
ENDMDL
MODEL 8
REMARK VINA RESULT:      -6.7      3.737      7.830
REMARK  Name = 
REMARK  7 active torsions:
REMARK  status: ('A' for Active; 'I' for Inactive)
REMARK    1  A    between atoms: C_1  and  N_2
REMARK    2  A    between atoms: N_2  and  C_3
REMARK    3  A    between atoms: N_2  and  C_17
REMARK    4  A    between atoms: C_3  and  C_4
REMARK    5  A    between atoms: C_4  and  C_5
REMARK    6  A    between atoms: C_5  and  N_6
REMARK    7  A    between atoms: C_17  and  C_18
REMARK                            x       y       z     vdW  Elec       q    Type
REMARK                         _______ _______ _______ _____ _____    ______ ____
ROOT
ATOM      1  C   UNL     1       2.551   6.860  18.986  0.00  0.00    +0.000 C 
ENDROOT
BRANCH   1   2
ATOM      2  N   UNL     1       3.188   5.794  18.238  0.00  0.00    +0.000 N 
ATOM      3  C   UNL     1       2.513   4.604  17.983  0.00  0.00    +0.000 A 
ATOM      4  O   UNL     1       1.367   4.326  18.301  0.00  0.00    +0.000 OA
ATOM      5  S   UNL     1       3.568   3.486  17.109  0.00  0.00    +0.000 S 
ATOM      6  C   UNL     1       4.890   4.660  17.102  0.00  0.00    +0.000 A 
ATOM      7  C   UNL     1       6.164   4.489  16.571  0.00  0.00    +0.000 A 
ATOM      8  C   UNL     1       7.069   5.545  16.677  0.00  0.00    +0.000 A 
ATOM      9  C   UNL     1       6.680   6.748  17.284  0.00  0.00    +0.000 A 
ATOM     10 CL   UNL     1       7.816   8.040  17.390  0.00  0.00    +0.000 Cl
ATOM     11  C   UNL     1       5.395   6.914  17.814  0.00  0.00    +0.000 A 
ATOM     12  C   UNL     1       4.505   5.855  17.728  0.00  0.00    +0.000 A 
ENDBRANCH   1   2
BRANCH   1  13
ATOM     13  C   UNL     1       1.723   7.784  18.095  0.00  0.00    +0.000 C 
BRANCH  13  14
ATOM     14  C   UNL     1       2.373   9.172  17.990  0.00  0.00    +0.000 C 
BRANCH  14  16
ATOM     15  C   UNL     1       2.132  11.532  18.296  0.00  0.00    +0.000 C 
ATOM     16  N   UNL     1       1.409  10.294  17.957  0.00  0.00    +0.000 NA
BRANCH  16  17
ATOM     17  C   UNL     1       0.290  10.061  18.898  0.00  0.00    +0.000 C 
BRANCH  17  18
ATOM     18  C   UNL     1      -1.087  10.401  18.363  0.00  0.00    +0.000 A 
ATOM     19  C   UNL     1      -1.909  11.350  18.992  0.00  0.00    +0.000 A 
ATOM     20  C   UNL     1      -3.201  11.590  18.516  0.00  0.00    +0.000 A 
ATOM     21  C   UNL     1      -3.669  10.917  17.387  0.00  0.00    +0.000 A 
ATOM     22  C   UNL     1      -2.833  10.030  16.712  0.00  0.00    +0.000 A 
ATOM     23  C   UNL     1      -1.551   9.775  17.197  0.00  0.00    +0.000 A 
ENDBRANCH  17  18
ENDBRANCH  16  17
ENDBRANCH  14  16
ENDBRANCH  13  14
ENDBRANCH   1  13
TORSDOF 6
ENDMDL
MODEL 9
REMARK VINA RESULT:      -6.7      1.399      3.299
REMARK  Name = 
REMARK  7 active torsions:
REMARK  status: ('A' for Active; 'I' for Inactive)
REMARK    1  A    between atoms: C_1  and  N_2
REMARK    2  A    between atoms: N_2  and  C_3
REMARK    3  A    between atoms: N_2  and  C_17
REMARK    4  A    between atoms: C_3  and  C_4
REMARK    5  A    between atoms: C_4  and  C_5
REMARK    6  A    between atoms: C_5  and  N_6
REMARK    7  A    between atoms: C_17  and  C_18
REMARK                            x       y       z     vdW  Elec       q    Type
REMARK                         _______ _______ _______ _____ _____    ______ ____
ROOT
ATOM      1  C   UNL     1       2.835   3.005  17.417  0.00  0.00    +0.000 C 
ENDROOT
BRANCH   1   2
ATOM      2  N   UNL     1       2.433   3.538  18.705  0.00  0.00    +0.000 N 
ATOM      3  C   UNL     1       2.081   2.686  19.747  0.00  0.00    +0.000 A 
ATOM      4  O   UNL     1       2.091   1.465  19.735  0.00  0.00    +0.000 OA
ATOM      5  S   UNL     1       1.582   3.631  21.156  0.00  0.00    +0.000 S 
ATOM      6  C   UNL     1       1.874   5.152  20.303  0.00  0.00    +0.000 A 
ATOM      7  C   UNL     1       1.674   6.440  20.788  0.00  0.00    +0.000 A 
ATOM      8  C   UNL     1       1.961   7.513  19.944  0.00  0.00    +0.000 A 
ATOM      9  C   UNL     1       2.459   7.282  18.654  0.00  0.00    +0.000 A 
ATOM     10 CL   UNL     1       2.815   8.628  17.638  0.00  0.00    +0.000 Cl
ATOM     11  C   UNL     1       2.661   5.982  18.174  0.00  0.00    +0.000 A 
ATOM     12  C   UNL     1       2.353   4.917  19.006  0.00  0.00    +0.000 A 
ENDBRANCH   1   2
BRANCH   1  13
ATOM     13  C   UNL     1       4.302   3.291  17.100  0.00  0.00    +0.000 C 
BRANCH  13  14
ATOM     14  C   UNL     1       4.459   3.830  15.670  0.00  0.00    +0.000 C 
BRANCH  14  16
ATOM     15  C   UNL     1       6.237   4.186  14.111  0.00  0.00    +0.000 C 
ATOM     16  N   UNL     1       5.717   4.572  15.434  0.00  0.00    +0.000 NA
BRANCH  16  17
ATOM     17  C   UNL     1       6.709   4.287  16.496  0.00  0.00    +0.000 C 
BRANCH  17  18
ATOM     18  C   UNL     1       7.196   5.498  17.267  0.00  0.00    +0.000 A 
ATOM     19  C   UNL     1       7.154   6.789  16.717  0.00  0.00    +0.000 A 
ATOM     20  C   UNL     1       7.677   7.874  17.425  0.00  0.00    +0.000 A 
ATOM     21  C   UNL     1       8.207   7.689  18.702  0.00  0.00    +0.000 A 
ATOM     22  C   UNL     1       8.183   6.425  19.287  0.00  0.00    +0.000 A 
ATOM     23  C   UNL     1       7.681   5.337  18.574  0.00  0.00    +0.000 A 
ENDBRANCH  17  18
ENDBRANCH  16  17
ENDBRANCH  14  16
ENDBRANCH  13  14
ENDBRANCH   1  13
TORSDOF 6
ENDMDL
