MODEL 1
REMARK VINA RESULT:      -7.8      0.000      0.000
REMARK  Name = 
REMARK  7 active torsions:
REMARK  status: ('A' for Active; 'I' for Inactive)
REMARK    1  A    between atoms: C_1  and  O_2
REMARK    2  A    between atoms: O_2  and  C_3
REMARK    3  A    between atoms: C_3  and  C_4
REMARK    4  A    between atoms: N_6  and  C_7
REMARK    5  A    between atoms: C_7  and  C_8
REMARK    6  A    between atoms: N_16  and  C_17
REMARK    7  A    between atoms: C_17  and  C_18
REMARK                            x       y       z     vdW  Elec       q    Type
REMARK                         _______ _______ _______ _____ _____    ______ ____
ROOT
ATOM      1  C   UNL     1       3.801   5.353  17.484  0.00  0.00    +0.000 A 
ATOM      2  N   UNL     1       3.589   4.111  17.093  0.00  0.00    +0.000 NA
ATOM      3  C   UNL     1       2.657   3.602  17.961  0.00  0.00    +0.000 A 
ATOM      4  C   UNL     1       2.098   2.320  18.002  0.00  0.00    +0.000 A 
ATOM      5  C   UNL     1       1.140   2.035  18.980  0.00  0.00    +0.000 A 
ATOM      6  C   UNL     1       0.735   3.018  19.885  0.00  0.00    +0.000 A 
ATOM      7  C   UNL     1       1.293   4.303  19.865  0.00  0.00    +0.000 A 
ATOM      8  C   UNL     1       2.272   4.557  18.897  0.00  0.00    +0.000 A 
ATOM      9  N   UNL     1       3.096   5.634  18.635  0.00  0.00    +0.000 N 
ENDROOT
BRANCH   1  10
ATOM     10  C   UNL     1       4.729   6.304  16.816  0.00  0.00    +0.000 C 
BRANCH  10  13
ATOM     11  C   UNL     1       6.616   5.316  15.583  0.00  0.00    +0.000 C 
ATOM     12  O   UNL     1       7.423   5.513  16.488  0.00  0.00    +0.000 OA
ATOM     13  N   UNL     1       5.287   5.633  15.673  0.00  0.00    +0.000 N 
ATOM     14  H   UNL     1       4.682   5.482  14.871  0.00  0.00    +0.000 HD
BRANCH  11  15
ATOM     15  C   UNL     1       7.020   4.730  14.235  0.00  0.00    +0.000 C 
BRANCH  15  17
ATOM     16  C   UNL     1       6.056   3.482  12.481  0.00  0.00    +0.000 C 
ATOM     17  O   UNL     1       6.258   3.577  13.889  0.00  0.00    +0.000 OA
ENDBRANCH  15  17
ENDBRANCH  11  15
ENDBRANCH  10  13
ENDBRANCH   1  10
BRANCH   9  18
ATOM     18  C   UNL     1       3.236   6.827  19.466  0.00  0.00    +0.000 C 
BRANCH  18  19
ATOM     19  C   UNL     1       2.176   7.881  19.223  0.00  0.00    +0.000 A 
ATOM     20  C   UNL     1       2.000   8.540  17.997  0.00  0.00    +0.000 A 
ATOM     21  C   UNL     1       1.098   9.604  17.876  0.00  0.00    +0.000 A 
ATOM     22  C   UNL     1       0.350  10.019  18.974  0.00  0.00    +0.000 A 
ATOM     23  C   UNL     1       0.487   9.358  20.190  0.00  0.00    +0.000 A 
ATOM     24  C   UNL     1       1.398   8.309  20.306  0.00  0.00    +0.000 A 
ATOM     25  F   UNL     1       1.540   7.719  21.502  0.00  0.00    +0.000 F 
ENDBRANCH  18  19
ENDBRANCH   9  18
TORSDOF 6
ENDMDL
MODEL 2
REMARK VINA RESULT:      -7.6      2.399      5.226
REMARK  Name = 
REMARK  7 active torsions:
REMARK  status: ('A' for Active; 'I' for Inactive)
REMARK    1  A    between atoms: C_1  and  O_2
REMARK    2  A    between atoms: O_2  and  C_3
REMARK    3  A    between atoms: C_3  and  C_4
REMARK    4  A    between atoms: N_6  and  C_7
REMARK    5  A    between atoms: C_7  and  C_8
REMARK    6  A    between atoms: N_16  and  C_17
REMARK    7  A    between atoms: C_17  and  C_18
REMARK                            x       y       z     vdW  Elec       q    Type
REMARK                         _______ _______ _______ _____ _____    ______ ____
ROOT
ATOM      1  C   UNL     1       3.495   7.280  17.634  0.00  0.00    +0.000 A 
ATOM      2  N   UNL     1       2.807   8.342  17.261  0.00  0.00    +0.000 NA
ATOM      3  C   UNL     1       1.999   8.653  18.325  0.00  0.00    +0.000 A 
ATOM      4  C   UNL     1       1.057   9.681  18.445  0.00  0.00    +0.000 A 
ATOM      5  C   UNL     1       0.356   9.813  19.648  0.00  0.00    +0.000 A 
ATOM      6  C   UNL     1       0.607   8.948  20.714  0.00  0.00    +0.000 A 
ATOM      7  C   UNL     1       1.537   7.905  20.606  0.00  0.00    +0.000 A 
ATOM      8  C   UNL     1       2.205   7.773  19.383  0.00  0.00    +0.000 A 
ATOM      9  N   UNL     1       3.090   6.842  18.876  0.00  0.00    +0.000 N 
ENDROOT
BRANCH   1  10
ATOM     10  C   UNL     1       4.521   6.600  16.799  0.00  0.00    +0.000 C 
BRANCH  10  13
ATOM     11  C   UNL     1       6.777   6.503  17.780  0.00  0.00    +0.000 C 
ATOM     12  O   UNL     1       6.681   5.320  18.097  0.00  0.00    +0.000 OA
ATOM     13  N   UNL     1       5.795   7.188  17.115  0.00  0.00    +0.000 N 
ATOM     14  H   UNL     1       5.921   8.178  16.921  0.00  0.00    +0.000 HD
BRANCH  11  15
ATOM     15  C   UNL     1       7.992   7.353  18.131  0.00  0.00    +0.000 C 
BRANCH  15  17
ATOM     16  C   UNL     1       8.693   9.586  18.426  0.00  0.00    +0.000 C 
ATOM     17  O   UNL     1       7.869   8.697  17.675  0.00  0.00    +0.000 OA
ENDBRANCH  15  17
ENDBRANCH  11  15
ENDBRANCH  10  13
ENDBRANCH   1  10
BRANCH   9  18
ATOM     18  C   UNL     1       3.476   5.589  19.521  0.00  0.00    +0.000 C 
BRANCH  18  19
ATOM     19  C   UNL     1       2.500   4.452  19.305  0.00  0.00    +0.000 A 
ATOM     20  C   UNL     1       1.385   4.216  20.124  0.00  0.00    +0.000 A 
ATOM     21  C   UNL     1       0.602   3.067  19.959  0.00  0.00    +0.000 A 
ATOM     22  C   UNL     1       0.912   2.142  18.965  0.00  0.00    +0.000 A 
ATOM     23  C   UNL     1       1.995   2.375  18.123  0.00  0.00    +0.000 A 
ATOM     24  C   UNL     1       2.778   3.513  18.304  0.00  0.00    +0.000 A 
ATOM     25  F   UNL     1       3.840   3.688  17.504  0.00  0.00    +0.000 F 
ENDBRANCH  18  19
ENDBRANCH   9  18
TORSDOF 6
ENDMDL
MODEL 3
REMARK VINA RESULT:      -7.6      2.114      4.962
REMARK  Name = 
REMARK  7 active torsions:
REMARK  status: ('A' for Active; 'I' for Inactive)
REMARK    1  A    between atoms: C_1  and  O_2
REMARK    2  A    between atoms: O_2  and  C_3
REMARK    3  A    between atoms: C_3  and  C_4
REMARK    4  A    between atoms: N_6  and  C_7
REMARK    5  A    between atoms: C_7  and  C_8
REMARK    6  A    between atoms: N_16  and  C_17
REMARK    7  A    between atoms: C_17  and  C_18
REMARK                            x       y       z     vdW  Elec       q    Type
REMARK                         _______ _______ _______ _____ _____    ______ ____
ROOT
ATOM      1  C   UNL     1       3.310   7.222  17.781  0.00  0.00    +0.000 A 
ATOM      2  N   UNL     1       2.590   8.252  17.377  0.00  0.00    +0.000 NA
ATOM      3  C   UNL     1       1.829   8.619  18.457  0.00  0.00    +0.000 A 
ATOM      4  C   UNL     1       0.880   9.642  18.559  0.00  0.00    +0.000 A 
ATOM      5  C   UNL     1       0.234   9.841  19.784  0.00  0.00    +0.000 A 
ATOM      6  C   UNL     1       0.547   9.046  20.888  0.00  0.00    +0.000 A 
ATOM      7  C   UNL     1       1.486   8.010  20.800  0.00  0.00    +0.000 A 
ATOM      8  C   UNL     1       2.097   7.809  19.557  0.00  0.00    +0.000 A 
ATOM      9  N   UNL     1       2.970   6.858  19.066  0.00  0.00    +0.000 N 
ENDROOT
BRANCH   1  10
ATOM     10  C   UNL     1       4.304   6.503  16.942  0.00  0.00    +0.000 C 
BRANCH  10  13
ATOM     11  C   UNL     1       6.618   6.260  17.747  0.00  0.00    +0.000 C 
ATOM     12  O   UNL     1       6.531   5.044  17.894  0.00  0.00    +0.000 OA
ATOM     13  N   UNL     1       5.602   7.037  17.257  0.00  0.00    +0.000 N 
ATOM     14  H   UNL     1       5.726   8.044  17.201  0.00  0.00    +0.000 HD
BRANCH  11  15
ATOM     15  C   UNL     1       7.862   7.049  18.139  0.00  0.00    +0.000 C 
BRANCH  15  17
ATOM     16  C   UNL     1       8.319   9.362  18.053  0.00  0.00    +0.000 C 
ATOM     17  O   UNL     1       8.083   8.177  17.297  0.00  0.00    +0.000 OA
ENDBRANCH  15  17
ENDBRANCH  11  15
ENDBRANCH  10  13
ENDBRANCH   1  10
BRANCH   9  18
ATOM     18  C   UNL     1       3.404   5.652  19.768  0.00  0.00    +0.000 C 
BRANCH  18  19
ATOM     19  C   UNL     1       2.646   4.400  19.380  0.00  0.00    +0.000 A 
ATOM     20  C   UNL     1       3.035   3.546  18.335  0.00  0.00    +0.000 A 
ATOM     21  C   UNL     1       2.216   2.485  17.932  0.00  0.00    +0.000 A 
ATOM     22  C   UNL     1       1.001   2.252  18.572  0.00  0.00    +0.000 A 
ATOM     23  C   UNL     1       0.613   3.069  19.629  0.00  0.00    +0.000 A 
ATOM     24  C   UNL     1       1.426   4.132  20.015  0.00  0.00    +0.000 A 
ATOM     25  F   UNL     1       1.006   4.928  21.008  0.00  0.00    +0.000 F 
ENDBRANCH  18  19
ENDBRANCH   9  18
TORSDOF 6
ENDMDL
MODEL 4
REMARK VINA RESULT:      -7.5      1.558      1.900
REMARK  Name = 
REMARK  7 active torsions:
REMARK  status: ('A' for Active; 'I' for Inactive)
REMARK    1  A    between atoms: C_1  and  O_2
REMARK    2  A    between atoms: O_2  and  C_3
REMARK    3  A    between atoms: C_3  and  C_4
REMARK    4  A    between atoms: N_6  and  C_7
REMARK    5  A    between atoms: C_7  and  C_8
REMARK    6  A    between atoms: N_16  and  C_17
REMARK    7  A    between atoms: C_17  and  C_18
REMARK                            x       y       z     vdW  Elec       q    Type
REMARK                         _______ _______ _______ _____ _____    ______ ____
ROOT
ATOM      1  C   UNL     1       4.837   5.192  18.716  0.00  0.00    +0.000 A 
ATOM      2  N   UNL     1       4.983   4.122  19.475  0.00  0.00    +0.000 NA
ATOM      3  C   UNL     1       3.712   3.701  19.773  0.00  0.00    +0.000 A 
ATOM      4  C   UNL     1       3.304   2.621  20.562  0.00  0.00    +0.000 A 
ATOM      5  C   UNL     1       1.935   2.375  20.709  0.00  0.00    +0.000 A 
ATOM      6  C   UNL     1       0.996   3.180  20.063  0.00  0.00    +0.000 A 
ATOM      7  C   UNL     1       1.387   4.273  19.279  0.00  0.00    +0.000 A 
ATOM      8  C   UNL     1       2.761   4.519  19.170  0.00  0.00    +0.000 A 
ATOM      9  N   UNL     1       3.506   5.526  18.588  0.00  0.00    +0.000 N 
ENDROOT
BRANCH   1  10
ATOM     10  C   UNL     1       5.958   5.976  18.134  0.00  0.00    +0.000 C 
BRANCH  10  13
ATOM     11  C   UNL     1       7.079   4.876  16.239  0.00  0.00    +0.000 C 
ATOM     12  O   UNL     1       7.962   4.382  16.936  0.00  0.00    +0.000 OA
ATOM     13  N   UNL     1       6.051   5.628  16.741  0.00  0.00    +0.000 N 
ATOM     14  H   UNL     1       5.378   6.043  16.104  0.00  0.00    +0.000 HD
BRANCH  11  15
ATOM     15  C   UNL     1       7.057   4.739  14.721  0.00  0.00    +0.000 C 
BRANCH  15  17
ATOM     16  C   UNL     1       5.886   3.707  12.952  0.00  0.00    +0.000 C 
ATOM     17  O   UNL     1       6.367   3.570  14.287  0.00  0.00    +0.000 OA
ENDBRANCH  15  17
ENDBRANCH  11  15
ENDBRANCH  10  13
ENDBRANCH   1  10
BRANCH   9  18
ATOM     18  C   UNL     1       2.974   6.752  17.997  0.00  0.00    +0.000 C 
BRANCH  18  19
ATOM     19  C   UNL     1       2.273   7.663  18.983  0.00  0.00    +0.000 A 
ATOM     20  C   UNL     1       2.010   7.312  20.316  0.00  0.00    +0.000 A 
ATOM     21  C   UNL     1       1.233   8.139  21.137  0.00  0.00    +0.000 A 
ATOM     22  C   UNL     1       0.717   9.334  20.643  0.00  0.00    +0.000 A 
ATOM     23  C   UNL     1       0.993   9.714  19.333  0.00  0.00    +0.000 A 
ATOM     24  C   UNL     1       1.754   8.878  18.518  0.00  0.00    +0.000 A 
ATOM     25  F   UNL     1       1.968   9.250  17.248  0.00  0.00    +0.000 F 
ENDBRANCH  18  19
ENDBRANCH   9  18
TORSDOF 6
ENDMDL
MODEL 5
REMARK VINA RESULT:      -7.3      1.372      4.207
REMARK  Name = 
REMARK  7 active torsions:
REMARK  status: ('A' for Active; 'I' for Inactive)
REMARK    1  A    between atoms: C_1  and  O_2
REMARK    2  A    between atoms: O_2  and  C_3
REMARK    3  A    between atoms: C_3  and  C_4
REMARK    4  A    between atoms: N_6  and  C_7
REMARK    5  A    between atoms: C_7  and  C_8
REMARK    6  A    between atoms: N_16  and  C_17
REMARK    7  A    between atoms: C_17  and  C_18
REMARK                            x       y       z     vdW  Elec       q    Type
REMARK                         _______ _______ _______ _____ _____    ______ ____
ROOT
ATOM      1  C   UNL     1       4.831   6.255  17.763  0.00  0.00    +0.000 A 
ATOM      2  N   UNL     1       4.344   7.289  17.102  0.00  0.00    +0.000 NA
ATOM      3  C   UNL     1       3.302   7.757  17.862  0.00  0.00    +0.000 A 
ATOM      4  C   UNL     1       2.436   8.826  17.606  0.00  0.00    +0.000 A 
ATOM      5  C   UNL     1       1.447   9.130  18.547  0.00  0.00    +0.000 A 
ATOM      6  C   UNL     1       1.340   8.393  19.728  0.00  0.00    +0.000 A 
ATOM      7  C   UNL     1       2.191   7.312  19.994  0.00  0.00    +0.000 A 
ATOM      8  C   UNL     1       3.154   7.006  19.024  0.00  0.00    +0.000 A 
ATOM      9  N   UNL     1       4.076   5.988  18.885  0.00  0.00    +0.000 N 
ENDROOT
BRANCH   1  10
ATOM     10  C   UNL     1       5.994   5.441  17.322  0.00  0.00    +0.000 C 
BRANCH  10  13
ATOM     11  C   UNL     1       6.332   4.704  14.997  0.00  0.00    +0.000 C 
ATOM     12  O   UNL     1       7.424   5.257  14.890  0.00  0.00    +0.000 OA
ATOM     13  N   UNL     1       5.592   4.711  16.150  0.00  0.00    +0.000 N 
ATOM     14  H   UNL     1       4.677   4.270  16.158  0.00  0.00    +0.000 HD
BRANCH  11  15
ATOM     15  C   UNL     1       5.659   3.980  13.838  0.00  0.00    +0.000 C 
BRANCH  15  17
ATOM     16  C   UNL     1       5.995   2.817  11.813  0.00  0.00    +0.000 C 
ATOM     17  O   UNL     1       6.551   3.731  12.755  0.00  0.00    +0.000 OA
ENDBRANCH  15  17
ENDBRANCH  11  15
ENDBRANCH  10  13
ENDBRANCH   1  10
BRANCH   9  18
ATOM     18  C   UNL     1       4.187   4.810  19.743  0.00  0.00    +0.000 C 
BRANCH  18  19
ATOM     19  C   UNL     1       3.044   3.828  19.599  0.00  0.00    +0.000 A 
ATOM     20  C   UNL     1       2.800   3.082  18.435  0.00  0.00    +0.000 A 
ATOM     21  C   UNL     1       1.648   2.298  18.313  0.00  0.00    +0.000 A 
ATOM     22  C   UNL     1       0.725   2.236  19.355  0.00  0.00    +0.000 A 
ATOM     23  C   UNL     1       0.966   2.944  20.528  0.00  0.00    +0.000 A 
ATOM     24  C   UNL     1       2.108   3.734  20.636  0.00  0.00    +0.000 A 
ATOM     25  F   UNL     1       2.291   4.438  21.763  0.00  0.00    +0.000 F 
ENDBRANCH  18  19
ENDBRANCH   9  18
TORSDOF 6
ENDMDL
MODEL 6
REMARK VINA RESULT:      -7.3      3.779      6.830
REMARK  Name = 
REMARK  7 active torsions:
REMARK  status: ('A' for Active; 'I' for Inactive)
REMARK    1  A    between atoms: C_1  and  O_2
REMARK    2  A    between atoms: O_2  and  C_3
REMARK    3  A    between atoms: C_3  and  C_4
REMARK    4  A    between atoms: N_6  and  C_7
REMARK    5  A    between atoms: C_7  and  C_8
REMARK    6  A    between atoms: N_16  and  C_17
REMARK    7  A    between atoms: C_17  and  C_18
REMARK                            x       y       z     vdW  Elec       q    Type
REMARK                         _______ _______ _______ _____ _____    ______ ____
ROOT
ATOM      1  C   UNL     1       2.154   6.208  19.693  0.00  0.00    +0.000 A 
ATOM      2  N   UNL     1       1.338   5.422  20.370  0.00  0.00    +0.000 NA
ATOM      3  C   UNL     1       1.550   4.158  19.882  0.00  0.00    +0.000 A 
ATOM      4  C   UNL     1       0.927   2.959  20.244  0.00  0.00    +0.000 A 
ATOM      5  C   UNL     1       1.326   1.776  19.612  0.00  0.00    +0.000 A 
ATOM      6  C   UNL     1       2.341   1.792  18.654  0.00  0.00    +0.000 A 
ATOM      7  C   UNL     1       2.966   2.986  18.271  0.00  0.00    +0.000 A 
ATOM      8  C   UNL     1       2.530   4.161  18.895  0.00  0.00    +0.000 A 
ATOM      9  N   UNL     1       2.824   5.498  18.719  0.00  0.00    +0.000 N 
ENDROOT
BRANCH   1  10
ATOM     10  C   UNL     1       2.285   7.674  19.901  0.00  0.00    +0.000 C 
BRANCH  10  13
ATOM     11  C   UNL     1       0.677   8.940  21.270  0.00  0.00    +0.000 C 
ATOM     12  O   UNL     1       0.208   9.547  20.311  0.00  0.00    +0.000 OA
ATOM     13  N   UNL     1       1.657   7.990  21.156  0.00  0.00    +0.000 N 
ATOM     14  H   UNL     1       2.031   7.555  21.995  0.00  0.00    +0.000 HD
BRANCH  11  15
ATOM     15  C   UNL     1       0.246   9.210  22.706  0.00  0.00    +0.000 C 
BRANCH  15  17
ATOM     16  C   UNL     1      -1.297  10.947  23.119  0.00  0.00    +0.000 C 
ATOM     17  O   UNL     1       0.078  10.599  22.976  0.00  0.00    +0.000 OA
ENDBRANCH  15  17
ENDBRANCH  11  15
ENDBRANCH  10  13
ENDBRANCH   1  10
BRANCH   9  18
ATOM     18  C   UNL     1       3.650   6.060  17.652  0.00  0.00    +0.000 C 
BRANCH  18  19
ATOM     19  C   UNL     1       5.135   6.049  17.945  0.00  0.00    +0.000 A 
ATOM     20  C   UNL     1       5.699   5.463  19.090  0.00  0.00    +0.000 A 
ATOM     21  C   UNL     1       7.061   5.610  19.375  0.00  0.00    +0.000 A 
ATOM     22  C   UNL     1       7.885   6.333  18.517  0.00  0.00    +0.000 A 
ATOM     23  C   UNL     1       7.351   6.893  17.361  0.00  0.00    +0.000 A 
ATOM     24  C   UNL     1       5.991   6.756  17.092  0.00  0.00    +0.000 A 
ATOM     25  F   UNL     1       5.497   7.344  15.993  0.00  0.00    +0.000 F 
ENDBRANCH  18  19
ENDBRANCH   9  18
TORSDOF 6
ENDMDL
MODEL 7
REMARK VINA RESULT:      -7.3      1.984      4.466
REMARK  Name = 
REMARK  7 active torsions:
REMARK  status: ('A' for Active; 'I' for Inactive)
REMARK    1  A    between atoms: C_1  and  O_2
REMARK    2  A    between atoms: O_2  and  C_3
REMARK    3  A    between atoms: C_3  and  C_4
REMARK    4  A    between atoms: N_6  and  C_7
REMARK    5  A    between atoms: C_7  and  C_8
REMARK    6  A    between atoms: N_16  and  C_17
REMARK    7  A    between atoms: C_17  and  C_18
REMARK                            x       y       z     vdW  Elec       q    Type
REMARK                         _______ _______ _______ _____ _____    ______ ____
ROOT
ATOM      1  C   UNL     1       5.420   4.983  16.893  0.00  0.00    +0.000 A 
ATOM      2  N   UNL     1       5.501   6.294  16.762  0.00  0.00    +0.000 NA
ATOM      3  C   UNL     1       4.315   6.789  17.242  0.00  0.00    +0.000 A 
ATOM      4  C   UNL     1       3.879   8.116  17.314  0.00  0.00    +0.000 A 
ATOM      5  C   UNL     1       2.621   8.382  17.865  0.00  0.00    +0.000 A 
ATOM      6  C   UNL     1       1.826   7.343  18.353  0.00  0.00    +0.000 A 
ATOM      7  C   UNL     1       2.242   6.007  18.277  0.00  0.00    +0.000 A 
ATOM      8  C   UNL     1       3.491   5.762  17.694  0.00  0.00    +0.000 A 
ATOM      9  N   UNL     1       4.178   4.611  17.362  0.00  0.00    +0.000 N 
ENDROOT
BRANCH   1  10
ATOM     10  C   UNL     1       6.495   4.028  16.518  0.00  0.00    +0.000 C 
BRANCH  10  13
ATOM     11  C   UNL     1       6.790   4.289  14.088  0.00  0.00    +0.000 C 
ATOM     12  O   UNL     1       7.561   5.239  14.197  0.00  0.00    +0.000 OA
ATOM     13  N   UNL     1       6.258   3.621  15.159  0.00  0.00    +0.000 N 
ATOM     14  H   UNL     1       5.593   2.870  14.999  0.00  0.00    +0.000 HD
BRANCH  11  15
ATOM     15  C   UNL     1       6.305   3.773  12.739  0.00  0.00    +0.000 C 
BRANCH  15  17
ATOM     16  C   UNL     1       4.443   3.087  11.462  0.00  0.00    +0.000 C 
ATOM     17  O   UNL     1       4.884   3.777  12.629  0.00  0.00    +0.000 OA
ENDBRANCH  15  17
ENDBRANCH  11  15
ENDBRANCH  10  13
ENDBRANCH   1  10
BRANCH   9  18
ATOM     18  C   UNL     1       3.654   3.249  17.440  0.00  0.00    +0.000 C 
BRANCH  18  19
ATOM     19  C   UNL     1       2.825   2.973  18.675  0.00  0.00    +0.000 A 
ATOM     20  C   UNL     1       1.423   2.896  18.671  0.00  0.00    +0.000 A 
ATOM     21  C   UNL     1       0.707   2.779  19.868  0.00  0.00    +0.000 A 
ATOM     22  C   UNL     1       1.378   2.727  21.087  0.00  0.00    +0.000 A 
ATOM     23  C   UNL     1       2.768   2.770  21.109  0.00  0.00    +0.000 A 
ATOM     24  C   UNL     1       3.474   2.901  19.914  0.00  0.00    +0.000 A 
ATOM     25  F   UNL     1       4.811   2.983  19.971  0.00  0.00    +0.000 F 
ENDBRANCH  18  19
ENDBRANCH   9  18
TORSDOF 6
ENDMDL
MODEL 8
REMARK VINA RESULT:      -7.2      2.002      4.550
REMARK  Name = 
REMARK  7 active torsions:
REMARK  status: ('A' for Active; 'I' for Inactive)
REMARK    1  A    between atoms: C_1  and  O_2
REMARK    2  A    between atoms: O_2  and  C_3
REMARK    3  A    between atoms: C_3  and  C_4
REMARK    4  A    between atoms: N_6  and  C_7
REMARK    5  A    between atoms: C_7  and  C_8
REMARK    6  A    between atoms: N_16  and  C_17
REMARK    7  A    between atoms: C_17  and  C_18
REMARK                            x       y       z     vdW  Elec       q    Type
REMARK                         _______ _______ _______ _____ _____    ______ ____
ROOT
ATOM      1  C   UNL     1       5.447   5.371  17.131  0.00  0.00    +0.000 A 
ATOM      2  N   UNL     1       5.082   6.535  16.628  0.00  0.00    +0.000 NA
ATOM      3  C   UNL     1       4.079   6.993  17.444  0.00  0.00    +0.000 A 
ATOM      4  C   UNL     1       3.332   8.173  17.344  0.00  0.00    +0.000 A 
ATOM      5  C   UNL     1       2.362   8.438  18.316  0.00  0.00    +0.000 A 
ATOM      6  C   UNL     1       2.157   7.552  19.375  0.00  0.00    +0.000 A 
ATOM      7  C   UNL     1       2.887   6.361  19.483  0.00  0.00    +0.000 A 
ATOM      8  C   UNL     1       3.832   6.101  18.482  0.00  0.00    +0.000 A 
ATOM      9  N   UNL     1       4.647   5.024  18.199  0.00  0.00    +0.000 N 
ENDROOT
BRANCH   1  10
ATOM     10  C   UNL     1       6.529   4.513  16.581  0.00  0.00    +0.000 C 
BRANCH  10  13
ATOM     11  C   UNL     1       6.434   4.340  14.127  0.00  0.00    +0.000 C 
ATOM     12  O   UNL     1       7.289   5.203  13.947  0.00  0.00    +0.000 OA
ATOM     13  N   UNL     1       6.035   3.919  15.367  0.00  0.00    +0.000 N 
ATOM     14  H   UNL     1       5.291   3.231  15.446  0.00  0.00    +0.000 HD
BRANCH  11  15
ATOM     15  C   UNL     1       5.688   3.669  12.980  0.00  0.00    +0.000 C 
BRANCH  15  17
ATOM     16  C   UNL     1       5.976   1.880  11.469  0.00  0.00    +0.000 C 
ATOM     17  O   UNL     1       6.566   3.041  12.050  0.00  0.00    +0.000 OA
ENDBRANCH  15  17
ENDBRANCH  11  15
ENDBRANCH  10  13
ENDBRANCH   1  10
BRANCH   9  18
ATOM     18  C   UNL     1       4.620   3.728  18.875  0.00  0.00    +0.000 C 
BRANCH  18  19
ATOM     19  C   UNL     1       3.238   3.277  19.297  0.00  0.00    +0.000 A 
ATOM     20  C   UNL     1       2.842   3.129  20.636  0.00  0.00    +0.000 A 
ATOM     21  C   UNL     1       1.599   2.573  20.960  0.00  0.00    +0.000 A 
ATOM     22  C   UNL     1       0.727   2.166  19.954  0.00  0.00    +0.000 A 
ATOM     23  C   UNL     1       1.088   2.335  18.621  0.00  0.00    +0.000 A 
ATOM     24  C   UNL     1       2.334   2.875  18.306  0.00  0.00    +0.000 A 
ATOM     25  F   UNL     1       2.672   2.985  17.014  0.00  0.00    +0.000 F 
ENDBRANCH  18  19
ENDBRANCH   9  18
TORSDOF 6
ENDMDL
MODEL 9
REMARK VINA RESULT:      -7.2      2.737      5.019
REMARK  Name = 
REMARK  7 active torsions:
REMARK  status: ('A' for Active; 'I' for Inactive)
REMARK    1  A    between atoms: C_1  and  O_2
REMARK    2  A    between atoms: O_2  and  C_3
REMARK    3  A    between atoms: C_3  and  C_4
REMARK    4  A    between atoms: N_6  and  C_7
REMARK    5  A    between atoms: C_7  and  C_8
REMARK    6  A    between atoms: N_16  and  C_17
REMARK    7  A    between atoms: C_17  and  C_18
REMARK                            x       y       z     vdW  Elec       q    Type
REMARK                         _______ _______ _______ _____ _____    ______ ____
ROOT
ATOM      1  C   UNL     1       2.914   4.407  17.631  0.00  0.00    +0.000 A 
ATOM      2  N   UNL     1       3.532   3.994  16.540  0.00  0.00    +0.000 NA
ATOM      3  C   UNL     1       4.786   4.546  16.593  0.00  0.00    +0.000 A 
ATOM      4  C   UNL     1       5.835   4.440  15.672  0.00  0.00    +0.000 A 
ATOM      5  C   UNL     1       7.044   5.085  15.953  0.00  0.00    +0.000 A 
ATOM      6  C   UNL     1       7.206   5.804  17.138  0.00  0.00    +0.000 A 
ATOM      7  C   UNL     1       6.162   5.931  18.064  0.00  0.00    +0.000 A 
ATOM      8  C   UNL     1       4.952   5.302  17.749  0.00  0.00    +0.000 A 
ATOM      9  N   UNL     1       3.705   5.283  18.343  0.00  0.00    +0.000 N 
ENDROOT
BRANCH   1  10
ATOM     10  C   UNL     1       1.525   4.036  18.009  0.00  0.00    +0.000 C 
BRANCH  10  13
ATOM     11  C   UNL     1       1.161   3.481  20.379  0.00  0.00    +0.000 C 
ATOM     12  O   UNL     1       0.597   4.543  20.630  0.00  0.00    +0.000 OA
ATOM     13  N   UNL     1       1.606   3.139  19.130  0.00  0.00    +0.000 N 
ATOM     14  H   UNL     1       2.103   2.262  19.000  0.00  0.00    +0.000 HD
BRANCH  11  15
ATOM     15  C   UNL     1       1.465   2.438  21.448  0.00  0.00    +0.000 C 
BRANCH  15  17
ATOM     16  C   UNL     1       3.781   2.195  21.070  0.00  0.00    +0.000 C 
ATOM     17  O   UNL     1       2.770   2.583  21.999  0.00  0.00    +0.000 OA
ENDBRANCH  15  17
ENDBRANCH  11  15
ENDBRANCH  10  13
ENDBRANCH   1  10
BRANCH   9  18
ATOM     18  C   UNL     1       3.288   6.095  19.484  0.00  0.00    +0.000 C 
BRANCH  18  19
ATOM     19  C   UNL     1       2.511   7.339  19.111  0.00  0.00    +0.000 A 
ATOM     20  C   UNL     1       2.632   7.991  17.874  0.00  0.00    +0.000 A 
ATOM     21  C   UNL     1       1.994   9.215  17.642  0.00  0.00    +0.000 A 
ATOM     22  C   UNL     1       1.217   9.803  18.637  0.00  0.00    +0.000 A 
ATOM     23  C   UNL     1       1.060   9.156  19.859  0.00  0.00    +0.000 A 
ATOM     24  C   UNL     1       1.710   7.945  20.087  0.00  0.00    +0.000 A 
ATOM     25  F   UNL     1       1.575   7.367  21.289  0.00  0.00    +0.000 F 
ENDBRANCH  18  19
ENDBRANCH   9  18
TORSDOF 6
ENDMDL
