MODEL 1
REMARK VINA RESULT:      -8.5      0.000      0.000
REMARK  Name = 
REMARK  4 active torsions:
REMARK  status: ('A' for Active; 'I' for Inactive)
REMARK    1  A    between atoms: C_2  and  C_3
REMARK    2  A    between atoms: C_3  and  O_4
REMARK    3  A    between atoms: O_4  and  C_5
REMARK    4  A    between atoms: N_11  and  C_12
REMARK                            x       y       z     vdW  Elec       q    Type
REMARK                         _______ _______ _______ _____ _____    ______ ____
ROOT
ATOM      1  O   UNL     1       8.208   7.036  18.713  0.00  0.00    +0.000 OA
ATOM      2  C   UNL     1       7.791   7.851  17.892  0.00  0.00    +0.000 C 
ATOM      3  N   UNL     1       6.822   7.608  16.926  0.00  0.00    +0.000 N 
ATOM      4  H   UNL     1       6.755   8.273  16.165  0.00  0.00    +0.000 HD
ENDROOT
BRANCH   3   5
ATOM      5  C   UNL     1       5.953   6.492  16.875  0.00  0.00    +0.000 A 
ATOM      6  C   UNL     1       6.334   5.262  16.341  0.00  0.00    +0.000 A 
ATOM      7  C   UNL     1       5.483   4.154  16.412  0.00  0.00    +0.000 A 
ATOM      8  C   UNL     1       4.224   4.256  17.009  0.00  0.00    +0.000 A 
ATOM      9  C   UNL     1       3.392   3.132  17.129  0.00  0.00    +0.000 A 
ATOM     10  C   UNL     1       2.131   3.239  17.711  0.00  0.00    +0.000 A 
ATOM     11  C   UNL     1       1.679   4.479  18.155  0.00  0.00    +0.000 A 
ATOM     12  C   UNL     1       2.504   5.604  18.055  0.00  0.00    +0.000 A 
ATOM     13  C   UNL     1       3.796   5.506  17.506  0.00  0.00    +0.000 A 
ATOM     14  C   UNL     1       4.676   6.610  17.445  0.00  0.00    +0.000 A 
ENDBRANCH   3   5
BRANCH   2  15
ATOM     15  C   UNL     1       8.313   9.289  17.888  0.00  0.00    +0.000 C 
BRANCH  15  16
ATOM     16  O   UNL     1       8.932   9.604  19.128  0.00  0.00    +0.000 OA
BRANCH  16  17
ATOM     17  C   UNL     1       9.754  10.702  19.096  0.00  0.00    +0.000 A 
ATOM     18  C   UNL     1      10.095  11.244  20.337  0.00  0.00    +0.000 A 
ATOM     19  C   UNL     1      10.946  12.350  20.416  0.00  0.00    +0.000 A 
ATOM     20  C   UNL     1      11.474  12.906  19.253  0.00  0.00    +0.000 A 
ATOM     21  C   UNL     1      11.150  12.361  18.014  0.00  0.00    +0.000 A 
ATOM     22  C   UNL     1      10.292  11.259  17.935  0.00  0.00    +0.000 A 
ENDBRANCH  16  17
ENDBRANCH  15  16
ENDBRANCH   2  15
TORSDOF 4
ENDMDL
MODEL 2
REMARK VINA RESULT:      -8.3      0.342      1.102
REMARK  Name = 
REMARK  4 active torsions:
REMARK  status: ('A' for Active; 'I' for Inactive)
REMARK    1  A    between atoms: C_2  and  C_3
REMARK    2  A    between atoms: C_3  and  O_4
REMARK    3  A    between atoms: O_4  and  C_5
REMARK    4  A    between atoms: N_11  and  C_12
REMARK                            x       y       z     vdW  Elec       q    Type
REMARK                         _______ _______ _______ _____ _____    ______ ____
ROOT
ATOM      1  O   UNL     1       8.103   6.792  18.644  0.00  0.00    +0.000 OA
ATOM      2  C   UNL     1       7.700   7.650  17.861  0.00  0.00    +0.000 C 
ATOM      3  N   UNL     1       6.692   7.480  16.920  0.00  0.00    +0.000 N 
ATOM      4  H   UNL     1       6.632   8.170  16.181  0.00  0.00    +0.000 HD
ENDROOT
BRANCH   3   5
ATOM      5  C   UNL     1       5.770   6.408  16.865  0.00  0.00    +0.000 A 
ATOM      6  C   UNL     1       6.036   5.218  16.190  0.00  0.00    +0.000 A 
ATOM      7  C   UNL     1       5.145   4.141  16.255  0.00  0.00    +0.000 A 
ATOM      8  C   UNL     1       3.960   4.236  16.988  0.00  0.00    +0.000 A 
ATOM      9  C   UNL     1       3.092   3.138  17.098  0.00  0.00    +0.000 A 
ATOM     10  C   UNL     1       1.903   3.241  17.816  0.00  0.00    +0.000 A 
ATOM     11  C   UNL     1       1.558   4.451  18.411  0.00  0.00    +0.000 A 
ATOM     12  C   UNL     1       2.420   5.549  18.321  0.00  0.00    +0.000 A 
ATOM     13  C   UNL     1       3.644   5.451  17.633  0.00  0.00    +0.000 A 
ATOM     14  C   UNL     1       4.565   6.522  17.574  0.00  0.00    +0.000 A 
ENDBRANCH   3   5
BRANCH   2  15
ATOM     15  C   UNL     1       8.289   9.061  17.881  0.00  0.00    +0.000 C 
BRANCH  15  16
ATOM     16  O   UNL     1       8.809   9.373  19.167  0.00  0.00    +0.000 OA
BRANCH  16  17
ATOM     17  C   UNL     1       9.507  10.551  19.233  0.00  0.00    +0.000 A 
ATOM     18  C   UNL     1       9.785  11.163  18.009  0.00  0.00    +0.000 A 
ATOM     19  C   UNL     1      10.472  12.380  17.967  0.00  0.00    +0.000 A 
ATOM     20  C   UNL     1      10.867  12.998  19.151  0.00  0.00    +0.000 A 
ATOM     21  C   UNL     1      10.578  12.401  20.375  0.00  0.00    +0.000 A 
ATOM     22  C   UNL     1       9.898  11.179  20.416  0.00  0.00    +0.000 A 
ENDBRANCH  16  17
ENDBRANCH  15  16
ENDBRANCH   2  15
TORSDOF 4
ENDMDL
MODEL 3
REMARK VINA RESULT:      -7.8      5.211      7.618
REMARK  Name = 
REMARK  4 active torsions:
REMARK  status: ('A' for Active; 'I' for Inactive)
REMARK    1  A    between atoms: C_2  and  C_3
REMARK    2  A    between atoms: C_3  and  O_4
REMARK    3  A    between atoms: O_4  and  C_5
REMARK    4  A    between atoms: N_11  and  C_12
REMARK                            x       y       z     vdW  Elec       q    Type
REMARK                         _______ _______ _______ _____ _____    ______ ____
ROOT
ATOM      1  O   UNL     1       5.401   5.998  15.029  0.00  0.00    +0.000 OA
ATOM      2  C   UNL     1       6.229   5.156  15.371  0.00  0.00    +0.000 C 
ATOM      3  N   UNL     1       6.272   4.509  16.599  0.00  0.00    +0.000 N 
ATOM      4  H   UNL     1       7.134   4.037  16.841  0.00  0.00    +0.000 HD
ENDROOT
BRANCH   3   5
ATOM      5  C   UNL     1       5.241   4.488  17.569  0.00  0.00    +0.000 A 
ATOM      6  C   UNL     1       5.193   5.379  18.640  0.00  0.00    +0.000 A 
ATOM      7  C   UNL     1       4.099   5.396  19.511  0.00  0.00    +0.000 A 
ATOM      8  C   UNL     1       3.032   4.512  19.338  0.00  0.00    +0.000 A 
ATOM      9  C   UNL     1       1.909   4.565  20.179  0.00  0.00    +0.000 A 
ATOM     10  C   UNL     1       0.853   3.671  20.013  0.00  0.00    +0.000 A 
ATOM     11  C   UNL     1       0.922   2.698  19.021  0.00  0.00    +0.000 A 
ATOM     12  C   UNL     1       2.028   2.644  18.166  0.00  0.00    +0.000 A 
ATOM     13  C   UNL     1       3.085   3.563  18.294  0.00  0.00    +0.000 A 
ATOM     14  C   UNL     1       4.189   3.573  17.410  0.00  0.00    +0.000 A 
ENDBRANCH   3   5
BRANCH   2  15
ATOM     15  C   UNL     1       7.325   4.705  14.402  0.00  0.00    +0.000 C 
BRANCH  15  16
ATOM     16  O   UNL     1       6.915   4.892  13.054  0.00  0.00    +0.000 OA
BRANCH  16  17
ATOM     17  C   UNL     1       6.646   3.734  12.371  0.00  0.00    +0.000 A 
ATOM     18  C   UNL     1       5.295   3.424  12.207  0.00  0.00    +0.000 A 
ATOM     19  C   UNL     1       4.913   2.276  11.505  0.00  0.00    +0.000 A 
ATOM     20  C   UNL     1       5.882   1.445  10.949  0.00  0.00    +0.000 A 
ATOM     21  C   UNL     1       7.231   1.757  11.096  0.00  0.00    +0.000 A 
ATOM     22  C   UNL     1       7.612   2.901  11.805  0.00  0.00    +0.000 A 
ENDBRANCH  16  17
ENDBRANCH  15  16
ENDBRANCH   2  15
TORSDOF 4
ENDMDL
MODEL 4
REMARK VINA RESULT:      -7.7      4.764      6.687
REMARK  Name = 
REMARK  4 active torsions:
REMARK  status: ('A' for Active; 'I' for Inactive)
REMARK    1  A    between atoms: C_2  and  C_3
REMARK    2  A    between atoms: C_3  and  O_4
REMARK    3  A    between atoms: O_4  and  C_5
REMARK    4  A    between atoms: N_11  and  C_12
REMARK                            x       y       z     vdW  Elec       q    Type
REMARK                         _______ _______ _______ _____ _____    ______ ____
ROOT
ATOM      1  O   UNL     1       6.761   6.029  18.060  0.00  0.00    +0.000 OA
ATOM      2  C   UNL     1       6.748   5.051  17.315  0.00  0.00    +0.000 C 
ATOM      3  N   UNL     1       5.817   4.020  17.343  0.00  0.00    +0.000 N 
ATOM      4  H   UNL     1       6.061   3.167  16.855  0.00  0.00    +0.000 HD
ENDROOT
BRANCH   3   5
ATOM      5  C   UNL     1       4.579   4.030  18.029  0.00  0.00    +0.000 A 
ATOM      6  C   UNL     1       3.430   4.619  17.505  0.00  0.00    +0.000 A 
ATOM      7  C   UNL     1       2.201   4.508  18.166  0.00  0.00    +0.000 A 
ATOM      8  C   UNL     1       2.098   3.814  19.373  0.00  0.00    +0.000 A 
ATOM      9  C   UNL     1       0.856   3.656  20.008  0.00  0.00    +0.000 A 
ATOM     10  C   UNL     1       0.759   2.977  21.221  0.00  0.00    +0.000 A 
ATOM     11  C   UNL     1       1.907   2.472  21.824  0.00  0.00    +0.000 A 
ATOM     12  C   UNL     1       3.149   2.609  21.194  0.00  0.00    +0.000 A 
ATOM     13  C   UNL     1       3.260   3.258  19.950  0.00  0.00    +0.000 A 
ATOM     14  C   UNL     1       4.489   3.361  19.259  0.00  0.00    +0.000 A 
ENDBRANCH   3   5
BRANCH   2  15
ATOM     15  C   UNL     1       7.799   4.898  16.214  0.00  0.00    +0.000 C 
BRANCH  15  16
ATOM     16  O   UNL     1       7.445   5.663  15.069  0.00  0.00    +0.000 OA
BRANCH  16  17
ATOM     17  C   UNL     1       6.967   4.928  14.015  0.00  0.00    +0.000 A 
ATOM     18  C   UNL     1       7.721   4.983  12.841  0.00  0.00    +0.000 A 
ATOM     19  C   UNL     1       7.332   4.252  11.715  0.00  0.00    +0.000 A 
ATOM     20  C   UNL     1       6.197   3.447  11.765  0.00  0.00    +0.000 A 
ATOM     21  C   UNL     1       5.448   3.376  12.937  0.00  0.00    +0.000 A 
ATOM     22  C   UNL     1       5.834   4.114  14.061  0.00  0.00    +0.000 A 
ENDBRANCH  16  17
ENDBRANCH  15  16
ENDBRANCH   2  15
TORSDOF 4
ENDMDL
MODEL 5
REMARK VINA RESULT:      -7.5      1.481      2.175
REMARK  Name = 
REMARK  4 active torsions:
REMARK  status: ('A' for Active; 'I' for Inactive)
REMARK    1  A    between atoms: C_2  and  C_3
REMARK    2  A    between atoms: C_3  and  O_4
REMARK    3  A    between atoms: O_4  and  C_5
REMARK    4  A    between atoms: N_11  and  C_12
REMARK                            x       y       z     vdW  Elec       q    Type
REMARK                         _______ _______ _______ _____ _____    ______ ____
ROOT
ATOM      1  O   UNL     1       7.700   5.227  17.545  0.00  0.00    +0.000 OA
ATOM      2  C   UNL     1       7.250   6.337  17.822  0.00  0.00    +0.000 C 
ATOM      3  N   UNL     1       5.905   6.681  17.867  0.00  0.00    +0.000 N 
ATOM      4  H   UNL     1       5.682   7.669  17.859  0.00  0.00    +0.000 HD
ENDROOT
BRANCH   3   5
ATOM      5  C   UNL     1       4.811   5.782  17.873  0.00  0.00    +0.000 A 
ATOM      6  C   UNL     1       4.609   4.834  16.871  0.00  0.00    +0.000 A 
ATOM      7  C   UNL     1       3.580   3.892  16.972  0.00  0.00    +0.000 A 
ATOM      8  C   UNL     1       2.721   3.885  18.074  0.00  0.00    +0.000 A 
ATOM      9  C   UNL     1       1.723   2.906  18.202  0.00  0.00    +0.000 A 
ATOM     10  C   UNL     1       0.858   2.912  19.294  0.00  0.00    +0.000 A 
ATOM     11  C   UNL     1       0.966   3.912  20.256  0.00  0.00    +0.000 A 
ATOM     12  C   UNL     1       1.966   4.884  20.148  0.00  0.00    +0.000 A 
ATOM     13  C   UNL     1       2.873   4.871  19.072  0.00  0.00    +0.000 A 
ATOM     14  C   UNL     1       3.931   5.803  18.965  0.00  0.00    +0.000 A 
ENDBRANCH   3   5
BRANCH   2  15
ATOM     15  C   UNL     1       8.189   7.487  18.192  0.00  0.00    +0.000 C 
BRANCH  15  16
ATOM     16  O   UNL     1       7.661   8.731  17.753  0.00  0.00    +0.000 OA
BRANCH  16  17
ATOM     17  C   UNL     1       8.360   9.832  18.178  0.00  0.00    +0.000 A 
ATOM     18  C   UNL     1       8.122  11.013  17.472  0.00  0.00    +0.000 A 
ATOM     19  C   UNL     1       8.767  12.198  17.839  0.00  0.00    +0.000 A 
ATOM     20  C   UNL     1       9.638  12.209  18.926  0.00  0.00    +0.000 A 
ATOM     21  C   UNL     1       9.867  11.038  19.643  0.00  0.00    +0.000 A 
ATOM     22  C   UNL     1       9.228   9.851  19.270  0.00  0.00    +0.000 A 
ENDBRANCH  16  17
ENDBRANCH  15  16
ENDBRANCH   2  15
TORSDOF 4
ENDMDL
MODEL 6
REMARK VINA RESULT:      -7.5      1.494      2.079
REMARK  Name = 
REMARK  4 active torsions:
REMARK  status: ('A' for Active; 'I' for Inactive)
REMARK    1  A    between atoms: C_2  and  C_3
REMARK    2  A    between atoms: C_3  and  O_4
REMARK    3  A    between atoms: O_4  and  C_5
REMARK    4  A    between atoms: N_11  and  C_12
REMARK                            x       y       z     vdW  Elec       q    Type
REMARK                         _______ _______ _______ _____ _____    ______ ____
ROOT
ATOM      1  O   UNL     1       7.692   5.024  18.524  0.00  0.00    +0.000 OA
ATOM      2  C   UNL     1       7.306   6.134  18.165  0.00  0.00    +0.000 C 
ATOM      3  N   UNL     1       6.033   6.441  17.699  0.00  0.00    +0.000 N 
ATOM      4  H   UNL     1       5.922   7.318  17.207  0.00  0.00    +0.000 HD
ENDROOT
BRANCH   3   5
ATOM      5  C   UNL     1       4.884   5.620  17.803  0.00  0.00    +0.000 A 
ATOM      6  C   UNL     1       4.549   4.666  16.844  0.00  0.00    +0.000 A 
ATOM      7  C   UNL     1       3.468   3.800  17.040  0.00  0.00    +0.000 A 
ATOM      8  C   UNL     1       2.690   3.877  18.197  0.00  0.00    +0.000 A 
ATOM      9  C   UNL     1       1.640   2.972  18.419  0.00  0.00    +0.000 A 
ATOM     10  C   UNL     1       0.855   3.062  19.567  0.00  0.00    +0.000 A 
ATOM     11  C   UNL     1       1.098   4.073  20.492  0.00  0.00    +0.000 A 
ATOM     12  C   UNL     1       2.150   4.971  20.290  0.00  0.00    +0.000 A 
ATOM     13  C   UNL     1       2.977   4.872  19.156  0.00  0.00    +0.000 A 
ATOM     14  C   UNL     1       4.086   5.726  18.952  0.00  0.00    +0.000 A 
ENDBRANCH   3   5
BRANCH   2  15
ATOM     15  C   UNL     1       8.240   7.343  18.235  0.00  0.00    +0.000 C 
BRANCH  15  16
ATOM     16  O   UNL     1       7.553   8.533  17.871  0.00  0.00    +0.000 OA
BRANCH  16  17
ATOM     17  C   UNL     1       8.226   9.694  18.158  0.00  0.00    +0.000 A 
ATOM     18  C   UNL     1       9.169   9.613  19.185  0.00  0.00    +0.000 A 
ATOM     19  C   UNL     1       9.925  10.733  19.541  0.00  0.00    +0.000 A 
ATOM     20  C   UNL     1       9.753  11.935  18.858  0.00  0.00    +0.000 A 
ATOM     21  C   UNL     1       8.825  12.018  17.823  0.00  0.00    +0.000 A 
ATOM     22  C   UNL     1       8.064  10.898  17.473  0.00  0.00    +0.000 A 
ENDBRANCH  16  17
ENDBRANCH  15  16
ENDBRANCH   2  15
TORSDOF 4
ENDMDL
MODEL 7
REMARK VINA RESULT:      -7.5      4.806      6.843
REMARK  Name = 
REMARK  4 active torsions:
REMARK  status: ('A' for Active; 'I' for Inactive)
REMARK    1  A    between atoms: C_2  and  C_3
REMARK    2  A    between atoms: C_3  and  O_4
REMARK    3  A    between atoms: O_4  and  C_5
REMARK    4  A    between atoms: N_11  and  C_12
REMARK                            x       y       z     vdW  Elec       q    Type
REMARK                         _______ _______ _______ _____ _____    ______ ____
ROOT
ATOM      1  O   UNL     1       6.267   6.413  17.267  0.00  0.00    +0.000 OA
ATOM      2  C   UNL     1       6.513   5.268  16.896  0.00  0.00    +0.000 C 
ATOM      3  N   UNL     1       5.836   4.121  17.293  0.00  0.00    +0.000 N 
ATOM      4  H   UNL     1       6.290   3.234  17.116  0.00  0.00    +0.000 HD
ENDROOT
BRANCH   3   5
ATOM      5  C   UNL     1       4.592   4.076  17.968  0.00  0.00    +0.000 A 
ATOM      6  C   UNL     1       3.412   4.565  17.408  0.00  0.00    +0.000 A 
ATOM      7  C   UNL     1       2.186   4.399  18.062  0.00  0.00    +0.000 A 
ATOM      8  C   UNL     1       2.115   3.751  19.296  0.00  0.00    +0.000 A 
ATOM      9  C   UNL     1       0.879   3.537  19.926  0.00  0.00    +0.000 A 
ATOM     10  C   UNL     1       0.812   2.904  21.166  0.00  0.00    +0.000 A 
ATOM     11  C   UNL     1       1.984   2.502  21.799  0.00  0.00    +0.000 A 
ATOM     12  C   UNL     1       3.221   2.696  21.176  0.00  0.00    +0.000 A 
ATOM     13  C   UNL     1       3.304   3.298  19.907  0.00  0.00    +0.000 A 
ATOM     14  C   UNL     1       4.532   3.455  19.224  0.00  0.00    +0.000 A 
ENDBRANCH   3   5
BRANCH   2  15
ATOM     15  C   UNL     1       7.630   5.000  15.885  0.00  0.00    +0.000 C 
BRANCH  15  16
ATOM     16  O   UNL     1       7.336   5.612  14.636  0.00  0.00    +0.000 OA
BRANCH  16  17
ATOM     17  C   UNL     1       6.856   4.756  13.678  0.00  0.00    +0.000 A 
ATOM     18  C   UNL     1       5.550   4.300  13.868  0.00  0.00    +0.000 A 
ATOM     19  C   UNL     1       4.958   3.441  12.937  0.00  0.00    +0.000 A 
ATOM     20  C   UNL     1       5.665   3.051  11.802  0.00  0.00    +0.000 A 
ATOM     21  C   UNL     1       6.962   3.515  11.599  0.00  0.00    +0.000 A 
ATOM     22  C   UNL     1       7.556   4.368  12.535  0.00  0.00    +0.000 A 
ENDBRANCH  16  17
ENDBRANCH  15  16
ENDBRANCH   2  15
TORSDOF 4
ENDMDL
MODEL 8
REMARK VINA RESULT:      -7.5      6.488      8.407
REMARK  Name = 
REMARK  4 active torsions:
REMARK  status: ('A' for Active; 'I' for Inactive)
REMARK    1  A    between atoms: C_2  and  C_3
REMARK    2  A    between atoms: C_3  and  O_4
REMARK    3  A    between atoms: O_4  and  C_5
REMARK    4  A    between atoms: N_11  and  C_12
REMARK                            x       y       z     vdW  Elec       q    Type
REMARK                         _______ _______ _______ _____ _____    ______ ____
ROOT
ATOM      1  O   UNL     1      -0.581   7.984  21.630  0.00  0.00    +0.000 OA
ATOM      2  C   UNL     1       0.545   8.441  21.815  0.00  0.00    +0.000 C 
ATOM      3  N   UNL     1       1.731   7.900  21.333  0.00  0.00    +0.000 N 
ATOM      4  H   UNL     1       2.590   8.222  21.760  0.00  0.00    +0.000 HD
ENDROOT
BRANCH   3   5
ATOM      5  C   UNL     1       1.850   6.902  20.335  0.00  0.00    +0.000 A 
ATOM      6  C   UNL     1       2.345   7.167  19.059  0.00  0.00    +0.000 A 
ATOM      7  C   UNL     1       2.551   6.132  18.141  0.00  0.00    +0.000 A 
ATOM      8  C   UNL     1       2.254   4.809  18.475  0.00  0.00    +0.000 A 
ATOM      9  C   UNL     1       2.512   3.764  17.573  0.00  0.00    +0.000 A 
ATOM     10  C   UNL     1       2.200   2.447  17.903  0.00  0.00    +0.000 A 
ATOM     11  C   UNL     1       1.604   2.165  19.129  0.00  0.00    +0.000 A 
ATOM     12  C   UNL     1       1.355   3.195  20.042  0.00  0.00    +0.000 A 
ATOM     13  C   UNL     1       1.699   4.525  19.741  0.00  0.00    +0.000 A 
ATOM     14  C   UNL     1       1.517   5.580  20.665  0.00  0.00    +0.000 A 
ENDBRANCH   3   5
BRANCH   2  15
ATOM     15  C   UNL     1       0.740   9.733  22.609  0.00  0.00    +0.000 C 
BRANCH  15  16
ATOM     16  O   UNL     1       0.611  10.869  21.765  0.00  0.00    +0.000 OA
BRANCH  16  17
ATOM     17  C   UNL     1      -0.619  11.474  21.802  0.00  0.00    +0.000 A 
ATOM     18  C   UNL     1      -1.305  11.385  23.015  0.00  0.00    +0.000 A 
ATOM     19  C   UNL     1      -2.558  11.987  23.165  0.00  0.00    +0.000 A 
ATOM     20  C   UNL     1      -3.121  12.696  22.107  0.00  0.00    +0.000 A 
ATOM     21  C   UNL     1      -2.435  12.801  20.900  0.00  0.00    +0.000 A 
ATOM     22  C   UNL     1      -1.185  12.192  20.748  0.00  0.00    +0.000 A 
ENDBRANCH  16  17
ENDBRANCH  15  16
ENDBRANCH   2  15
TORSDOF 4
ENDMDL
MODEL 9
REMARK VINA RESULT:      -7.4      5.354      7.555
REMARK  Name = 
REMARK  4 active torsions:
REMARK  status: ('A' for Active; 'I' for Inactive)
REMARK    1  A    between atoms: C_2  and  C_3
REMARK    2  A    between atoms: C_3  and  O_4
REMARK    3  A    between atoms: O_4  and  C_5
REMARK    4  A    between atoms: N_11  and  C_12
REMARK                            x       y       z     vdW  Elec       q    Type
REMARK                         _______ _______ _______ _____ _____    ______ ____
ROOT
ATOM      1  O   UNL     1       5.932   5.997  16.365  0.00  0.00    +0.000 OA
ATOM      2  C   UNL     1       6.173   4.827  16.074  0.00  0.00    +0.000 C 
ATOM      3  N   UNL     1       5.567   3.709  16.635  0.00  0.00    +0.000 N 
ATOM      4  H   UNL     1       6.027   2.818  16.494  0.00  0.00    +0.000 HD
ENDROOT
BRANCH   3   5
ATOM      5  C   UNL     1       4.394   3.702  17.428  0.00  0.00    +0.000 A 
ATOM      6  C   UNL     1       3.136   4.016  16.917  0.00  0.00    +0.000 A 
ATOM      7  C   UNL     1       1.989   3.889  17.707  0.00  0.00    +0.000 A 
ATOM      8  C   UNL     1       2.076   3.454  19.031  0.00  0.00    +0.000 A 
ATOM      9  C   UNL     1       0.920   3.274  19.807  0.00  0.00    +0.000 A 
ATOM     10  C   UNL     1       1.011   2.856  21.133  0.00  0.00    +0.000 A 
ATOM     11  C   UNL     1       2.262   2.639  21.704  0.00  0.00    +0.000 A 
ATOM     12  C   UNL     1       3.421   2.801  20.938  0.00  0.00    +0.000 A 
ATOM     13  C   UNL     1       3.346   3.185  19.586  0.00  0.00    +0.000 A 
ATOM     14  C   UNL     1       4.493   3.299  18.768  0.00  0.00    +0.000 A 
ENDBRANCH   3   5
BRANCH   2  15
ATOM     15  C   UNL     1       7.195   4.490  14.988  0.00  0.00    +0.000 C 
BRANCH  15  16
ATOM     16  O   UNL     1       6.778   4.997  13.727  0.00  0.00    +0.000 OA
BRANCH  16  17
ATOM     17  C   UNL     1       6.353   4.044  12.838  0.00  0.00    +0.000 A 
ATOM     18  C   UNL     1       7.358   3.320  12.194  0.00  0.00    +0.000 A 
ATOM     19  C   UNL     1       7.032   2.309  11.285  0.00  0.00    +0.000 A 
ATOM     20  C   UNL     1       5.696   2.006  11.032  0.00  0.00    +0.000 A 
ATOM     21  C   UNL     1       4.689   2.714  11.682  0.00  0.00    +0.000 A 
ATOM     22  C   UNL     1       5.017   3.730  12.586  0.00  0.00    +0.000 A 
ENDBRANCH  16  17
ENDBRANCH  15  16
ENDBRANCH   2  15
TORSDOF 4
ENDMDL
