MODEL 1
REMARK VINA RESULT:      -9.4      0.000      0.000
REMARK  Name = 
REMARK  5 active torsions:
REMARK  status: ('A' for Active; 'I' for Inactive)
REMARK    1  A    between atoms: C_1  and  C_2
REMARK    2  A    between atoms: C_2  and  N_3
REMARK    3  A    between atoms: C_2  and  C_22
REMARK    4  A    between atoms: N_3  and  C_4
REMARK    5  A    between atoms: C_4  and  C_5
REMARK                            x       y       z     vdW  Elec       q    Type
REMARK                         _______ _______ _______ _____ _____    ______ ____
ROOT
ATOM      1  C   UNL     1       3.397   6.199  18.761  0.00  0.00    +0.000 C 
ATOM      2  N   UNL     1       4.528   6.157  19.701  0.00  0.00    +0.000 NA
ATOM      3  S   UNL     1       5.753   5.001  19.180  0.00  0.00    +0.000 S 
ATOM      4  O   UNL     1       5.429   3.710  19.950  0.00  0.00    +0.000 OA
ATOM      5  O   UNL     1       7.072   5.452  19.821  0.00  0.00    +0.000 OA
ATOM      6  C   UNL     1       5.831   4.711  17.420  0.00  0.00    +0.000 A 
ATOM      7  C   UNL     1       7.029   4.955  16.737  0.00  0.00    +0.000 A 
ATOM      8  C   UNL     1       7.142   4.644  15.383  0.00  0.00    +0.000 A 
ATOM      9  C   UNL     1       6.067   4.068  14.708  0.00  0.00    +0.000 A 
ATOM     10  C   UNL     1       4.867   3.818  15.383  0.00  0.00    +0.000 A 
ATOM     11  C   UNL     1       4.720   4.161  16.746  0.00  0.00    +0.000 A 
ATOM     12  C   UNL     1       3.443   3.869  17.479  0.00  0.00    +0.000 A 
ATOM     13  C   UNL     1       2.846   2.621  17.201  0.00  0.00    +0.000 A 
ATOM     14  C   UNL     1       1.723   2.189  17.891  0.00  0.00    +0.000 A 
ATOM     15  C   UNL     1       1.163   3.003  18.871  0.00  0.00    +0.000 A 
ATOM     16  C   UNL     1       1.701   4.267  19.147  0.00  0.00    +0.000 A 
ATOM     17  C   UNL     1       2.839   4.753  18.470  0.00  0.00    +0.000 A 
ATOM     18  H   UNL     1       4.182   5.866  20.642  0.00  0.00    +0.000 HD
ENDROOT
BRANCH   1  19
ATOM     19  C   UNL     1       2.373   7.332  19.260  0.00  0.00    +0.000 C 
BRANCH  19  20
ATOM     20  N   UNL     1       1.421   8.004  18.226  0.00  0.00    +0.000 NA
ATOM     21  H   UNL     1       1.507   7.498  17.319  0.00  0.00    +0.000 HD
BRANCH  20  23
ATOM     22  C   UNL     1       2.652  10.117  17.692  0.00  0.00    +0.000 C 
ATOM     23  C   UNL     1       1.237   9.503  17.953  0.00  0.00    +0.000 C 
BRANCH  23  24
ATOM     24  C   UNL     1       0.301  10.142  19.135  0.00  0.00    +0.000 A 
ATOM     25  C   UNL     1      -0.353  11.179  18.463  0.00  0.00    +0.000 A 
ATOM     26  C   UNL     1      -0.719  12.335  19.055  0.00  0.00    +0.000 A 
ATOM     27  C   UNL     1      -1.324  12.245  20.243  0.00  0.00    +0.000 A 
ATOM     28  C   UNL     1      -0.958  11.222  21.089  0.00  0.00    +0.000 A 
ATOM     29  C   UNL     1      -1.463  11.386  22.379  0.00  0.00    +0.000 A 
ATOM     30  C   UNL     1      -1.077  10.559  23.387  0.00  0.00    +0.000 A 
ATOM     31  C   UNL     1      -0.170   9.542  23.101  0.00  0.00    +0.000 A 
ATOM     32  C   UNL     1       0.347   9.319  21.769  0.00  0.00    +0.000 A 
ATOM     33  C   UNL     1      -0.045  10.171  20.641  0.00  0.00    +0.000 A 
ENDBRANCH  23  24
ENDBRANCH  20  23
ENDBRANCH  19  20
ENDBRANCH   1  19
TORSDOF 4
ENDMDL
MODEL 2
REMARK VINA RESULT:      -9.4      0.770      1.875
REMARK  Name = 
REMARK  5 active torsions:
REMARK  status: ('A' for Active; 'I' for Inactive)
REMARK    1  A    between atoms: C_1  and  C_2
REMARK    2  A    between atoms: C_2  and  N_3
REMARK    3  A    between atoms: C_2  and  C_22
REMARK    4  A    between atoms: N_3  and  C_4
REMARK    5  A    between atoms: C_4  and  C_5
REMARK                            x       y       z     vdW  Elec       q    Type
REMARK                         _______ _______ _______ _____ _____    ______ ____
ROOT
ATOM      1  C   UNL     1       3.117   5.905  19.073  0.00  0.00    +0.000 C 
ATOM      2  N   UNL     1       4.290   5.877  19.961  0.00  0.00    +0.000 NA
ATOM      3  S   UNL     1       5.607   4.943  19.254  0.00  0.00    +0.000 S 
ATOM      4  O   UNL     1       5.465   3.538  19.864  0.00  0.00    +0.000 OA
ATOM      5  O   UNL     1       6.899   5.460  19.902  0.00  0.00    +0.000 OA
ATOM      6  C   UNL     1       5.631   4.883  17.469  0.00  0.00    +0.000 A 
ATOM      7  C   UNL     1       6.760   5.345  16.783  0.00  0.00    +0.000 A 
ATOM      8  C   UNL     1       6.841   5.219  15.397  0.00  0.00    +0.000 A 
ATOM      9  C   UNL     1       5.805   4.611  14.691  0.00  0.00    +0.000 A 
ATOM     10  C   UNL     1       4.674   4.143  15.369  0.00  0.00    +0.000 A 
ATOM     11  C   UNL     1       4.556   4.296  16.770  0.00  0.00    +0.000 A 
ATOM     12  C   UNL     1       3.356   3.771  17.503  0.00  0.00    +0.000 A 
ATOM     13  C   UNL     1       2.887   2.507  17.088  0.00  0.00    +0.000 A 
ATOM     14  C   UNL     1       1.852   1.867  17.755  0.00  0.00    +0.000 A 
ATOM     15  C   UNL     1       1.255   2.483  18.850  0.00  0.00    +0.000 A 
ATOM     16  C   UNL     1       1.664   3.757  19.266  0.00  0.00    +0.000 A 
ATOM     17  C   UNL     1       2.707   4.451  18.618  0.00  0.00    +0.000 A 
ATOM     18  H   UNL     1       4.025   5.435  20.868  0.00  0.00    +0.000 HD
ENDROOT
BRANCH   1  19
ATOM     19  C   UNL     1       2.000   6.842  19.747  0.00  0.00    +0.000 C 
BRANCH  19  20
ATOM     20  N   UNL     1       2.131   8.389  19.623  0.00  0.00    +0.000 NA
ATOM     21  H   UNL     1       2.549   8.758  20.504  0.00  0.00    +0.000 HD
BRANCH  20  23
ATOM     22  C   UNL     1       1.768  10.291  18.036  0.00  0.00    +0.000 C 
ATOM     23  C   UNL     1       1.080   9.383  19.108  0.00  0.00    +0.000 C 
BRANCH  23  24
ATOM     24  C   UNL     1       0.348  10.087  20.393  0.00  0.00    +0.000 A 
ATOM     25  C   UNL     1       0.859   9.347  21.463  0.00  0.00    +0.000 A 
ATOM     26  C   UNL     1       0.163   9.094  22.592  0.00  0.00    +0.000 A 
ATOM     27  C   UNL     1      -0.487  10.121  23.148  0.00  0.00    +0.000 A 
ATOM     28  C   UNL     1      -1.007  11.092  22.322  0.00  0.00    +0.000 A 
ATOM     29  C   UNL     1      -1.872  11.958  22.991  0.00  0.00    +0.000 A 
ATOM     30  C   UNL     1      -2.599  12.880  22.306  0.00  0.00    +0.000 A 
ATOM     31  C   UNL     1      -2.457  12.945  20.923  0.00  0.00    +0.000 A 
ATOM     32  C   UNL     1      -1.543  12.088  20.199  0.00  0.00    +0.000 A 
ATOM     33  C   UNL     1      -0.723  11.084  20.887  0.00  0.00    +0.000 A 
ENDBRANCH  23  24
ENDBRANCH  20  23
ENDBRANCH  19  20
ENDBRANCH   1  19
TORSDOF 4
ENDMDL
MODEL 3
REMARK VINA RESULT:      -9.4      1.386      2.444
REMARK  Name = 
REMARK  5 active torsions:
REMARK  status: ('A' for Active; 'I' for Inactive)
REMARK    1  A    between atoms: C_1  and  C_2
REMARK    2  A    between atoms: C_2  and  N_3
REMARK    3  A    between atoms: C_2  and  C_22
REMARK    4  A    between atoms: N_3  and  C_4
REMARK    5  A    between atoms: C_4  and  C_5
REMARK                            x       y       z     vdW  Elec       q    Type
REMARK                         _______ _______ _______ _____ _____    ______ ____
ROOT
ATOM      1  C   UNL     1       3.423   6.176  18.923  0.00  0.00    +0.000 C 
ATOM      2  N   UNL     1       4.587   6.080  19.820  0.00  0.00    +0.000 NA
ATOM      3  S   UNL     1       5.781   4.941  19.201  0.00  0.00    +0.000 S 
ATOM      4  O   UNL     1       5.472   3.617  19.920  0.00  0.00    +0.000 OA
ATOM      5  O   UNL     1       7.127   5.350  19.815  0.00  0.00    +0.000 OA
ATOM      6  C   UNL     1       5.794   4.735  17.427  0.00  0.00    +0.000 A 
ATOM      7  C   UNL     1       6.970   5.002  16.715  0.00  0.00    +0.000 A 
ATOM      8  C   UNL     1       7.033   4.755  15.344  0.00  0.00    +0.000 A 
ATOM      9  C   UNL     1       5.929   4.220  14.681  0.00  0.00    +0.000 A 
ATOM     10  C   UNL     1       4.752   3.947  15.386  0.00  0.00    +0.000 A 
ATOM     11  C   UNL     1       4.655   4.226  16.769  0.00  0.00    +0.000 A 
ATOM     12  C   UNL     1       3.402   3.910  17.532  0.00  0.00    +0.000 A 
ATOM     13  C   UNL     1       2.784   2.681  17.216  0.00  0.00    +0.000 A 
ATOM     14  C   UNL     1       1.682   2.226  17.924  0.00  0.00    +0.000 A 
ATOM     15  C   UNL     1       1.164   2.996  18.961  0.00  0.00    +0.000 A 
ATOM     16  C   UNL     1       1.724   4.241  19.277  0.00  0.00    +0.000 A 
ATOM     17  C   UNL     1       2.842   4.750  18.584  0.00  0.00    +0.000 A 
ATOM     18  H   UNL     1       4.272   5.748  20.758  0.00  0.00    +0.000 HD
ENDROOT
BRANCH   1  19
ATOM     19  C   UNL     1       2.429   7.292  19.511  0.00  0.00    +0.000 C 
BRANCH  19  20
ATOM     20  N   UNL     1       1.292   7.851  18.604  0.00  0.00    +0.000 NA
ATOM     21  H   UNL     1       0.894   7.063  18.050  0.00  0.00    +0.000 HD
BRANCH  20  23
ATOM     22  C   UNL     1       2.730   9.774  17.895  0.00  0.00    +0.000 C 
ATOM     23  C   UNL     1       1.319   9.117  17.737  0.00  0.00    +0.000 C 
BRANCH  23  24
ATOM     24  C   UNL     1      -0.014  10.009  18.068  0.00  0.00    +0.000 A 
ATOM     25  C   UNL     1       0.335  10.620  19.275  0.00  0.00    +0.000 A 
ATOM     26  C   UNL     1      -0.558  10.924  20.241  0.00  0.00    +0.000 A 
ATOM     27  C   UNL     1      -1.691  11.520  19.855  0.00  0.00    +0.000 A 
ATOM     28  C   UNL     1      -2.217  11.194  18.626  0.00  0.00    +0.000 A 
ATOM     29  C   UNL     1      -3.514  11.677  18.453  0.00  0.00    +0.000 A 
ATOM     30  C   UNL     1      -4.250  11.320  17.367  0.00  0.00    +0.000 A 
ATOM     31  C   UNL     1      -3.677  10.465  16.428  0.00  0.00    +0.000 A 
ATOM     32  C   UNL     1      -2.323   9.974  16.556  0.00  0.00    +0.000 A 
ATOM     33  C   UNL     1      -1.478  10.337  17.699  0.00  0.00    +0.000 A 
ENDBRANCH  23  24
ENDBRANCH  20  23
ENDBRANCH  19  20
ENDBRANCH   1  19
TORSDOF 4
ENDMDL
MODEL 4
REMARK VINA RESULT:      -9.2      1.220      2.494
REMARK  Name = 
REMARK  5 active torsions:
REMARK  status: ('A' for Active; 'I' for Inactive)
REMARK    1  A    between atoms: C_1  and  C_2
REMARK    2  A    between atoms: C_2  and  N_3
REMARK    3  A    between atoms: C_2  and  C_22
REMARK    4  A    between atoms: N_3  and  C_4
REMARK    5  A    between atoms: C_4  and  C_5
REMARK                            x       y       z     vdW  Elec       q    Type
REMARK                         _______ _______ _______ _____ _____    ______ ____
ROOT
ATOM      1  C   UNL     1       3.038   5.886  19.220  0.00  0.00    +0.000 C 
ATOM      2  N   UNL     1       4.243   5.863  20.065  0.00  0.00    +0.000 NA
ATOM      3  S   UNL     1       5.553   4.974  19.291  0.00  0.00    +0.000 S 
ATOM      4  O   UNL     1       5.461   3.552  19.872  0.00  0.00    +0.000 OA
ATOM      5  O   UNL     1       6.856   5.503  19.906  0.00  0.00    +0.000 OA
ATOM      6  C   UNL     1       5.515   4.956  17.506  0.00  0.00    +0.000 A 
ATOM      7  C   UNL     1       6.610   5.458  16.792  0.00  0.00    +0.000 A 
ATOM      8  C   UNL     1       6.645   5.366  15.401  0.00  0.00    +0.000 A 
ATOM      9  C   UNL     1       5.597   4.752  14.718  0.00  0.00    +0.000 A 
ATOM     10  C   UNL     1       4.500   4.244  15.423  0.00  0.00    +0.000 A 
ATOM     11  C   UNL     1       4.428   4.362  16.830  0.00  0.00    +0.000 A 
ATOM     12  C   UNL     1       3.266   3.795  17.591  0.00  0.00    +0.000 A 
ATOM     13  C   UNL     1       2.809   2.531  17.163  0.00  0.00    +0.000 A 
ATOM     14  C   UNL     1       1.812   1.854  17.850  0.00  0.00    +0.000 A 
ATOM     15  C   UNL     1       1.240   2.432  18.979  0.00  0.00    +0.000 A 
ATOM     16  C   UNL     1       1.638   3.704  19.412  0.00  0.00    +0.000 A 
ATOM     17  C   UNL     1       2.643   4.434  18.745  0.00  0.00    +0.000 A 
ATOM     18  H   UNL     1       4.018   5.394  20.971  0.00  0.00    +0.000 HD
ENDROOT
BRANCH   1  19
ATOM     19  C   UNL     1       1.927   6.783  19.955  0.00  0.00    +0.000 C 
BRANCH  19  20
ATOM     20  N   UNL     1       1.775   8.281  19.557  0.00  0.00    +0.000 NA
ATOM     21  H   UNL     1       2.566   8.538  18.929  0.00  0.00    +0.000 HD
BRANCH  20  23
ATOM     22  C   UNL     1       1.333   8.925  21.935  0.00  0.00    +0.000 C 
ATOM     23  C   UNL     1       1.450   9.469  20.473  0.00  0.00    +0.000 C 
BRANCH  23  24
ATOM     24  C   UNL     1       0.193  10.299  19.832  0.00  0.00    +0.000 A 
ATOM     25  C   UNL     1      -0.041  11.275  20.804  0.00  0.00    +0.000 A 
ATOM     26  C   UNL     1      -1.265  11.777  21.075  0.00  0.00    +0.000 A 
ATOM     27  C   UNL     1      -2.023  12.127  20.031  0.00  0.00    +0.000 A 
ATOM     28  C   UNL     1      -1.912  11.400  18.868  0.00  0.00    +0.000 A 
ATOM     29  C   UNL     1      -2.924  11.692  17.954  0.00  0.00    +0.000 A 
ATOM     30  C   UNL     1      -3.067  10.961  16.817  0.00  0.00    +0.000 A 
ATOM     31  C   UNL     1      -2.176   9.916  16.583  0.00  0.00    +0.000 A 
ATOM     32  C   UNL     1      -1.093   9.607  17.489  0.00  0.00    +0.000 A 
ATOM     33  C   UNL     1      -0.882  10.371  18.724  0.00  0.00    +0.000 A 
ENDBRANCH  23  24
ENDBRANCH  20  23
ENDBRANCH  19  20
ENDBRANCH   1  19
TORSDOF 4
ENDMDL
MODEL 5
REMARK VINA RESULT:      -8.9      1.210      2.373
REMARK  Name = 
REMARK  5 active torsions:
REMARK  status: ('A' for Active; 'I' for Inactive)
REMARK    1  A    between atoms: C_1  and  C_2
REMARK    2  A    between atoms: C_2  and  N_3
REMARK    3  A    between atoms: C_2  and  C_22
REMARK    4  A    between atoms: N_3  and  C_4
REMARK    5  A    between atoms: C_4  and  C_5
REMARK                            x       y       z     vdW  Elec       q    Type
REMARK                         _______ _______ _______ _____ _____    ______ ____
ROOT
ATOM      1  C   UNL     1       3.422   6.182  17.703  0.00  0.00    +0.000 C 
ATOM      2  N   UNL     1       4.582   6.711  18.439  0.00  0.00    +0.000 NA
ATOM      3  S   UNL     1       6.056   5.839  18.024  0.00  0.00    +0.000 S 
ATOM      4  O   UNL     1       6.203   4.770  19.120  0.00  0.00    +0.000 OA
ATOM      5  O   UNL     1       7.220   6.792  18.327  0.00  0.00    +0.000 OA
ATOM      6  C   UNL     1       6.082   5.112  16.393  0.00  0.00    +0.000 A 
ATOM      7  C   UNL     1       7.091   5.479  15.495  0.00  0.00    +0.000 A 
ATOM      8  C   UNL     1       7.189   4.854  14.253  0.00  0.00    +0.000 A 
ATOM      9  C   UNL     1       6.293   3.843  13.910  0.00  0.00    +0.000 A 
ATOM     10  C   UNL     1       5.283   3.467  14.802  0.00  0.00    +0.000 A 
ATOM     11  C   UNL     1       5.144   4.116  16.051  0.00  0.00    +0.000 A 
ATOM     12  C   UNL     1       4.078   3.696  17.021  0.00  0.00    +0.000 A 
ATOM     13  C   UNL     1       3.872   2.306  17.145  0.00  0.00    +0.000 A 
ATOM     14  C   UNL     1       2.991   1.788  18.083  0.00  0.00    +0.000 A 
ATOM     15  C   UNL     1       2.287   2.652  18.916  0.00  0.00    +0.000 A 
ATOM     16  C   UNL     1       2.434   4.040  18.796  0.00  0.00    +0.000 A 
ATOM     17  C   UNL     1       3.312   4.616  17.854  0.00  0.00    +0.000 A 
ATOM     18  H   UNL     1       4.415   6.605  19.464  0.00  0.00    +0.000 HD
ENDROOT
BRANCH   1  19
ATOM     19  C   UNL     1       2.143   7.081  18.070  0.00  0.00    +0.000 C 
BRANCH  19  20
ATOM     20  N   UNL     1       2.250   8.118  19.228  0.00  0.00    +0.000 NA
ATOM     21  H   UNL     1       3.216   8.510  19.232  0.00  0.00    +0.000 HD
BRANCH  20  23
ATOM     22  C   UNL     1       1.189   6.518  20.835  0.00  0.00    +0.000 C 
ATOM     23  C   UNL     1       1.761   7.966  20.675  0.00  0.00    +0.000 C 
BRANCH  23  24
ATOM     24  C   UNL     1       0.804   9.242  21.043  0.00  0.00    +0.000 A 
ATOM     25  C   UNL     1       0.831   9.236  22.440  0.00  0.00    +0.000 A 
ATOM     26  C   UNL     1      -0.207   9.632  23.207  0.00  0.00    +0.000 A 
ATOM     27  C   UNL     1      -0.811  10.775  22.869  0.00  0.00    +0.000 A 
ATOM     28  C   UNL     1      -0.883  11.109  21.535  0.00  0.00    +0.000 A 
ATOM     29  C   UNL     1      -1.751  12.174  21.294  0.00  0.00    +0.000 A 
ATOM     30  C   UNL     1      -2.068  12.539  20.024  0.00  0.00    +0.000 A 
ATOM     31  C   UNL     1      -1.502  11.829  18.968  0.00  0.00    +0.000 A 
ATOM     32  C   UNL     1      -0.571  10.742  19.178  0.00  0.00    +0.000 A 
ATOM     33  C   UNL     1      -0.182  10.314  20.527  0.00  0.00    +0.000 A 
ENDBRANCH  23  24
ENDBRANCH  20  23
ENDBRANCH  19  20
ENDBRANCH   1  19
TORSDOF 4
ENDMDL
MODEL 6
REMARK VINA RESULT:      -8.9      1.748      2.404
REMARK  Name = 
REMARK  5 active torsions:
REMARK  status: ('A' for Active; 'I' for Inactive)
REMARK    1  A    between atoms: C_1  and  C_2
REMARK    2  A    between atoms: C_2  and  N_3
REMARK    3  A    between atoms: C_2  and  C_22
REMARK    4  A    between atoms: N_3  and  C_4
REMARK    5  A    between atoms: C_4  and  C_5
REMARK                            x       y       z     vdW  Elec       q    Type
REMARK                         _______ _______ _______ _____ _____    ______ ____
ROOT
ATOM      1  C   UNL     1       3.069   5.844  19.293  0.00  0.00    +0.000 C 
ATOM      2  N   UNL     1       4.290   5.801  20.115  0.00  0.00    +0.000 NA
ATOM      3  S   UNL     1       5.571   4.894  19.314  0.00  0.00    +0.000 S 
ATOM      4  O   UNL     1       5.468   3.473  19.894  0.00  0.00    +0.000 OA
ATOM      5  O   UNL     1       6.893   5.402  19.904  0.00  0.00    +0.000 OA
ATOM      6  C   UNL     1       5.498   4.879  17.530  0.00  0.00    +0.000 A 
ATOM      7  C   UNL     1       6.586   5.366  16.795  0.00  0.00    +0.000 A 
ATOM      8  C   UNL     1       6.592   5.276  15.404  0.00  0.00    +0.000 A 
ATOM      9  C   UNL     1       5.521   4.679  14.740  0.00  0.00    +0.000 A 
ATOM     10  C   UNL     1       4.431   4.187  15.466  0.00  0.00    +0.000 A 
ATOM     11  C   UNL     1       4.389   4.304  16.875  0.00  0.00    +0.000 A 
ATOM     12  C   UNL     1       3.233   3.753  17.658  0.00  0.00    +0.000 A 
ATOM     13  C   UNL     1       2.748   2.497  17.237  0.00  0.00    +0.000 A 
ATOM     14  C   UNL     1       1.755   1.834  17.942  0.00  0.00    +0.000 A 
ATOM     15  C   UNL     1       1.215   2.418  19.083  0.00  0.00    +0.000 A 
ATOM     16  C   UNL     1       1.640   3.683  19.510  0.00  0.00    +0.000 A 
ATOM     17  C   UNL     1       2.643   4.400  18.824  0.00  0.00    +0.000 A 
ATOM     18  H   UNL     1       4.076   5.334  21.024  0.00  0.00    +0.000 HD
ENDROOT
BRANCH   1  19
ATOM     19  C   UNL     1       1.987   6.757  20.051  0.00  0.00    +0.000 C 
BRANCH  19  20
ATOM     20  N   UNL     1       1.889   8.271  19.698  0.00  0.00    +0.000 NA
ATOM     21  H   UNL     1       1.326   8.747  20.435  0.00  0.00    +0.000 HD
BRANCH  20  23
ATOM     22  C   UNL     1       2.837   8.740  17.429  0.00  0.00    +0.000 C 
ATOM     23  C   UNL     1       1.571   8.900  18.334  0.00  0.00    +0.000 C 
BRANCH  23  24
ATOM     24  C   UNL     1       0.952  10.396  18.576  0.00  0.00    +0.000 A 
ATOM     25  C   UNL     1      -0.414  10.133  18.699  0.00  0.00    +0.000 A 
ATOM     26  C   UNL     1      -1.377  10.990  18.298  0.00  0.00    +0.000 A 
ATOM     27  C   UNL     1      -1.230  12.273  18.643  0.00  0.00    +0.000 A 
ATOM     28  C   UNL     1       0.043  12.789  18.723  0.00  0.00    +0.000 A 
ATOM     29  C   UNL     1       0.054  14.179  18.834  0.00  0.00    +0.000 A 
ATOM     30  C   UNL     1       1.220  14.873  18.767  0.00  0.00    +0.000 A 
ATOM     31  C   UNL     1       2.406  14.165  18.590  0.00  0.00    +0.000 A 
ATOM     32  C   UNL     1       2.438  12.722  18.507  0.00  0.00    +0.000 A 
ATOM     33  C   UNL     1       1.212  11.919  18.587  0.00  0.00    +0.000 A 
ENDBRANCH  23  24
ENDBRANCH  20  23
ENDBRANCH  19  20
ENDBRANCH   1  19
TORSDOF 4
ENDMDL
MODEL 7
REMARK VINA RESULT:      -8.9      1.133      1.256
REMARK  Name = 
REMARK  5 active torsions:
REMARK  status: ('A' for Active; 'I' for Inactive)
REMARK    1  A    between atoms: C_1  and  C_2
REMARK    2  A    between atoms: C_2  and  N_3
REMARK    3  A    between atoms: C_2  and  C_22
REMARK    4  A    between atoms: N_3  and  C_4
REMARK    5  A    between atoms: C_4  and  C_5
REMARK                            x       y       z     vdW  Elec       q    Type
REMARK                         _______ _______ _______ _____ _____    ______ ____
ROOT
ATOM      1  C   UNL     1       3.083   5.875  19.245  0.00  0.00    +0.000 C 
ATOM      2  N   UNL     1       4.285   5.819  20.094  0.00  0.00    +0.000 NA
ATOM      3  S   UNL     1       5.578   4.909  19.315  0.00  0.00    +0.000 S 
ATOM      4  O   UNL     1       5.454   3.485  19.883  0.00  0.00    +0.000 OA
ATOM      5  O   UNL     1       6.890   5.405  19.939  0.00  0.00    +0.000 OA
ATOM      6  C   UNL     1       5.545   4.909  17.530  0.00  0.00    +0.000 A 
ATOM      7  C   UNL     1       6.652   5.394  16.824  0.00  0.00    +0.000 A 
ATOM      8  C   UNL     1       6.689   5.314  15.433  0.00  0.00    +0.000 A 
ATOM      9  C   UNL     1       5.631   4.728  14.740  0.00  0.00    +0.000 A 
ATOM     10  C   UNL     1       4.521   4.238  15.438  0.00  0.00    +0.000 A 
ATOM     11  C   UNL     1       4.448   4.345  16.846  0.00  0.00    +0.000 A 
ATOM     12  C   UNL     1       3.272   3.795  17.599  0.00  0.00    +0.000 A 
ATOM     13  C   UNL     1       2.789   2.545  17.157  0.00  0.00    +0.000 A 
ATOM     14  C   UNL     1       1.776   1.883  17.835  0.00  0.00    +0.000 A 
ATOM     15  C   UNL     1       1.214   2.462  18.968  0.00  0.00    +0.000 A 
ATOM     16  C   UNL     1       1.637   3.722  19.414  0.00  0.00    +0.000 A 
ATOM     17  C   UNL     1       2.659   4.437  18.756  0.00  0.00    +0.000 A 
ATOM     18  H   UNL     1       4.047   5.347  20.995  0.00  0.00    +0.000 HD
ENDROOT
BRANCH   1  19
ATOM     19  C   UNL     1       1.989   6.789  19.986  0.00  0.00    +0.000 C 
BRANCH  19  20
ATOM     20  N   UNL     1       2.056   8.337  19.823  0.00  0.00    +0.000 NA
ATOM     21  H   UNL     1       2.062   8.769  20.771  0.00  0.00    +0.000 HD
BRANCH  20  23
ATOM     22  C   UNL     1       2.052   9.373  17.544  0.00  0.00    +0.000 C 
ATOM     23  C   UNL     1       1.236   9.218  18.870  0.00  0.00    +0.000 C 
BRANCH  23  24
ATOM     24  C   UNL     1       0.766  10.565  19.674  0.00  0.00    +0.000 A 
ATOM     25  C   UNL     1       1.387  11.578  18.939  0.00  0.00    +0.000 A 
ATOM     26  C   UNL     1       1.831  12.729  19.485  0.00  0.00    +0.000 A 
ATOM     27  C   UNL     1       1.008  13.358  20.331  0.00  0.00    +0.000 A 
ATOM     28  C   UNL     1       0.172  12.598  21.118  0.00  0.00    +0.000 A 
ATOM     29  C   UNL     1      -0.439  13.343  22.126  0.00  0.00    +0.000 A 
ATOM     30  C   UNL     1      -1.174  12.733  23.093  0.00  0.00    +0.000 A 
ATOM     31  C   UNL     1      -1.307  11.347  23.051  0.00  0.00    +0.000 A 
ATOM     32  C   UNL     1      -0.718  10.546  22.002  0.00  0.00    +0.000 A 
ATOM     33  C   UNL     1       0.073  11.152  20.924  0.00  0.00    +0.000 A 
ENDBRANCH  23  24
ENDBRANCH  20  23
ENDBRANCH  19  20
ENDBRANCH   1  19
TORSDOF 4
ENDMDL
MODEL 8
REMARK VINA RESULT:      -8.9      0.994      1.234
REMARK  Name = 
REMARK  5 active torsions:
REMARK  status: ('A' for Active; 'I' for Inactive)
REMARK    1  A    between atoms: C_1  and  C_2
REMARK    2  A    between atoms: C_2  and  N_3
REMARK    3  A    between atoms: C_2  and  C_22
REMARK    4  A    between atoms: N_3  and  C_4
REMARK    5  A    between atoms: C_4  and  C_5
REMARK                            x       y       z     vdW  Elec       q    Type
REMARK                         _______ _______ _______ _____ _____    ______ ____
ROOT
ATOM      1  C   UNL     1       3.407   6.215  18.882  0.00  0.00    +0.000 C 
ATOM      2  N   UNL     1       4.567   6.137  19.785  0.00  0.00    +0.000 NA
ATOM      3  S   UNL     1       5.764   4.987  19.193  0.00  0.00    +0.000 S 
ATOM      4  O   UNL     1       5.453   3.677  19.936  0.00  0.00    +0.000 OA
ATOM      5  O   UNL     1       7.107   5.409  19.805  0.00  0.00    +0.000 OA
ATOM      6  C   UNL     1       5.786   4.747  17.424  0.00  0.00    +0.000 A 
ATOM      7  C   UNL     1       6.964   5.001  16.712  0.00  0.00    +0.000 A 
ATOM      8  C   UNL     1       7.033   4.728  15.346  0.00  0.00    +0.000 A 
ATOM      9  C   UNL     1       5.933   4.180  14.689  0.00  0.00    +0.000 A 
ATOM     10  C   UNL     1       4.752   3.920  15.393  0.00  0.00    +0.000 A 
ATOM     11  C   UNL     1       4.650   4.225  16.770  0.00  0.00    +0.000 A 
ATOM     12  C   UNL     1       3.394   3.922  17.534  0.00  0.00    +0.000 A 
ATOM     13  C   UNL     1       2.778   2.687  17.239  0.00  0.00    +0.000 A 
ATOM     14  C   UNL     1       1.672   2.245  17.951  0.00  0.00    +0.000 A 
ATOM     15  C   UNL     1       1.150   3.034  18.971  0.00  0.00    +0.000 A 
ATOM     16  C   UNL     1       1.708   4.285  19.265  0.00  0.00    +0.000 A 
ATOM     17  C   UNL     1       2.828   4.782  18.567  0.00  0.00    +0.000 A 
ATOM     18  H   UNL     1       4.248   5.822  20.728  0.00  0.00    +0.000 HD
ENDROOT
BRANCH   1  19
ATOM     19  C   UNL     1       2.409   7.341  19.444  0.00  0.00    +0.000 C 
BRANCH  19  20
ATOM     20  N   UNL     1       1.293   7.900  18.513  0.00  0.00    +0.000 NA
ATOM     21  H   UNL     1       1.077   7.183  17.788  0.00  0.00    +0.000 HD
BRANCH  20  23
ATOM     22  C   UNL     1       2.643   9.914  17.891  0.00  0.00    +0.000 C 
ATOM     23  C   UNL     1       1.205   9.298  17.884  0.00  0.00    +0.000 C 
BRANCH  23  24
ATOM     24  C   UNL     1      -0.015  10.121  18.601  0.00  0.00    +0.000 A 
ATOM     25  C   UNL     1      -1.049   9.983  17.670  0.00  0.00    +0.000 A 
ATOM     26  C   UNL     1      -1.995  10.924  17.464  0.00  0.00    +0.000 A 
ATOM     27  C   UNL     1      -2.562  11.463  18.547  0.00  0.00    +0.000 A 
ATOM     28  C   UNL     1      -1.797  11.615  19.682  0.00  0.00    +0.000 A 
ATOM     29  C   UNL     1      -2.414  12.414  20.643  0.00  0.00    +0.000 A 
ATOM     30  C   UNL     1      -1.744  12.802  21.760  0.00  0.00    +0.000 A 
ATOM     31  C   UNL     1      -0.427  12.378  21.925  0.00  0.00    +0.000 A 
ATOM     32  C   UNL     1       0.234  11.520  20.968  0.00  0.00    +0.000 A 
ATOM     33  C   UNL     1      -0.445  11.059  19.751  0.00  0.00    +0.000 A 
ENDBRANCH  23  24
ENDBRANCH  20  23
ENDBRANCH  19  20
ENDBRANCH   1  19
TORSDOF 4
ENDMDL
MODEL 9
REMARK VINA RESULT:      -8.8      3.508      9.227
REMARK  Name = 
REMARK  5 active torsions:
REMARK  status: ('A' for Active; 'I' for Inactive)
REMARK    1  A    between atoms: C_1  and  C_2
REMARK    2  A    between atoms: C_2  and  N_3
REMARK    3  A    between atoms: C_2  and  C_22
REMARK    4  A    between atoms: N_3  and  C_4
REMARK    5  A    between atoms: C_4  and  C_5
REMARK                            x       y       z     vdW  Elec       q    Type
REMARK                         _______ _______ _______ _____ _____    ______ ____
ROOT
ATOM      1  C   UNL     1      -0.110  10.062  20.535  0.00  0.00    +0.000 C 
ATOM      2  N   UNL     1       1.093  10.910  20.566  0.00  0.00    +0.000 NA
ATOM      3  S   UNL     1       0.677  12.604  20.815  0.00  0.00    +0.000 S 
ATOM      4  O   UNL     1       0.630  13.210  19.402  0.00  0.00    +0.000 OA
ATOM      5  O   UNL     1       1.920  13.269  21.423  0.00  0.00    +0.000 OA
ATOM      6  C   UNL     1      -0.844  12.896  21.703  0.00  0.00    +0.000 A 
ATOM      7  C   UNL     1      -0.813  13.639  22.890  0.00  0.00    +0.000 A 
ATOM      8  C   UNL     1      -1.999  13.962  23.549  0.00  0.00    +0.000 A 
ATOM      9  C   UNL     1      -3.223  13.564  23.014  0.00  0.00    +0.000 A 
ATOM     10  C   UNL     1      -3.264  12.824  21.827  0.00  0.00    +0.000 A 
ATOM     11  C   UNL     1      -2.070  12.454  21.165  0.00  0.00    +0.000 A 
ATOM     12  C   UNL     1      -2.113  11.684  19.877  0.00  0.00    +0.000 A 
ATOM     13  C   UNL     1      -3.104  12.081  18.955  0.00  0.00    +0.000 A 
ATOM     14  C   UNL     1      -3.178  11.519  17.689  0.00  0.00    +0.000 A 
ATOM     15  C   UNL     1      -2.265  10.537  17.318  0.00  0.00    +0.000 A 
ATOM     16  C   UNL     1      -1.292  10.086  18.220  0.00  0.00    +0.000 A 
ATOM     17  C   UNL     1      -1.179  10.621  19.520  0.00  0.00    +0.000 A 
ATOM     18  H   UNL     1       1.596  10.826  19.655  0.00  0.00    +0.000 HD
ENDROOT
BRANCH   1  19
ATOM     19  C   UNL     1       0.359   8.533  20.393  0.00  0.00    +0.000 C 
BRANCH  19  20
ATOM     20  N   UNL     1       1.870   8.218  20.183  0.00  0.00    +0.000 NA
ATOM     21  H   UNL     1       2.431   8.903  20.734  0.00  0.00    +0.000 HD
BRANCH  20  23
ATOM     22  C   UNL     1       1.820   8.650  17.718  0.00  0.00    +0.000 C 
ATOM     23  C   UNL     1       2.594   7.918  18.863  0.00  0.00    +0.000 C 
BRANCH  23  24
ATOM     24  C   UNL     1       2.836   6.302  18.751  0.00  0.00    +0.000 A 
ATOM     25  C   UNL     1       3.944   6.229  17.903  0.00  0.00    +0.000 A 
ATOM     26  C   UNL     1       4.150   5.218  17.033  0.00  0.00    +0.000 A 
ATOM     27  C   UNL     1       3.972   3.975  17.493  0.00  0.00    +0.000 A 
ATOM     28  C   UNL     1       3.006   3.762  18.449  0.00  0.00    +0.000 A 
ATOM     29  C   UNL     1       2.742   2.408  18.654  0.00  0.00    +0.000 A 
ATOM     30  C   UNL     1       1.710   2.012  19.445  0.00  0.00    +0.000 A 
ATOM     31  C   UNL     1       0.925   2.990  20.051  0.00  0.00    +0.000 A 
ATOM     32  C   UNL     1       1.190   4.402  19.891  0.00  0.00    +0.000 A 
ATOM     33  C   UNL     1       2.298   4.887  19.061  0.00  0.00    +0.000 A 
ENDBRANCH  23  24
ENDBRANCH  20  23
ENDBRANCH  19  20
ENDBRANCH   1  19
TORSDOF 4
ENDMDL
