MODEL 1
REMARK VINA RESULT:      -7.2      0.000      0.000
REMARK  Name = 
REMARK  13 active torsions:
REMARK  status: ('A' for Active; 'I' for Inactive)
REMARK    1  A    between atoms: C_1  and  O_2
REMARK    2  A    between atoms: O_2  and  C_3
REMARK    3  A    between atoms: C_3  and  C_4
REMARK    4  A    between atoms: C_3  and  O_24
REMARK    5  A    between atoms: C_4  and  N_5
REMARK    6  A    between atoms: C_6  and  C_8
REMARK    7  A    between atoms: C_8  and  C_9
REMARK    8  A    between atoms: C_8  and  N_10
REMARK    9  A    between atoms: C_11  and  C_13
REMARK   10  A    between atoms: C_13  and  C_14
REMARK   11  A    between atoms: C_13  and  N_15
REMARK   12  A    between atoms: C_16  and  C_18
REMARK   13  A    between atoms: O_24  and  C_25
REMARK                            x       y       z     vdW  Elec       q    Type
REMARK                         _______ _______ _______ _____ _____    ______ ____
ROOT
ATOM      1  N   UNL     1       6.778   6.539  17.193  0.00  0.00    +0.000 N 
ATOM      2  C   UNL     1       6.675   5.360  16.488  0.00  0.00    +0.000 C 
ATOM      3  O   UNL     1       7.542   4.488  16.538  0.00  0.00    +0.000 OA
ATOM      4  H   UNL     1       6.069   7.260  17.078  0.00  0.00    +0.000 HD
ENDROOT
BRANCH   1   5
ATOM      5  C   UNL     1       7.983   6.906  17.939  0.00  0.00    +0.000 C 
ATOM      6  C   UNL     1       7.986   6.279  19.331  0.00  0.00    +0.000 C 
BRANCH   5   8
ATOM      7  N   UNL     1       8.992   8.938  18.928  0.00  0.00    +0.000 N 
ATOM      8  C   UNL     1       8.057   8.447  18.043  0.00  0.00    +0.000 C 
ATOM      9  O   UNL     1       7.334   9.183  17.369  0.00  0.00    +0.000 OA
ATOM     10  H   UNL     1       9.535   8.314  19.514  0.00  0.00    +0.000 HD
BRANCH   7  11
ATOM     11  C   UNL     1       9.060  10.357  19.260  0.00  0.00    +0.000 C 
BRANCH  11  12
ATOM     12  C   UNL     1      10.432  10.992  18.925  0.00  0.00    +0.000 C 
BRANCH  12  14
ATOM     13  C   UNL     1      10.064  11.917  21.092  0.00  0.00    +0.000 C 
ATOM     14  O   UNL     1      10.983  11.711  20.030  0.00  0.00    +0.000 OA
ENDBRANCH  12  14
BRANCH  12  15
ATOM     15  O   UNL     1      10.239  11.899  17.830  0.00  0.00    +0.000 OA
ATOM     16  C   UNL     1       8.884  12.321  17.721  0.00  0.00    +0.000 C 
ENDBRANCH  12  15
ENDBRANCH  11  12
ENDBRANCH   7  11
ENDBRANCH   5   8
ENDBRANCH   1   5
BRANCH   2  17
ATOM     17  C   UNL     1       5.342   5.164  15.740  0.00  0.00    +0.000 C 
ATOM     18  C   UNL     1       5.553   4.312  14.490  0.00  0.00    +0.000 C 
BRANCH  17  19
ATOM     19  N   UNL     1       4.385   4.522  16.641  0.00  0.00    +0.000 N 
ATOM     20  C   UNL     1       3.591   5.254  17.497  0.00  0.00    +0.000 C 
ATOM     21  O   UNL     1       3.667   6.475  17.597  0.00  0.00    +0.000 OA
ATOM     22  H   UNL     1       4.315   3.515  16.606  0.00  0.00    +0.000 HD
BRANCH  20  23
ATOM     23  C   UNL     1       2.642   4.491  18.358  0.00  0.00    +0.000 A 
ATOM     24  C   UNL     1       2.207   3.236  17.909  0.00  0.00    +0.000 A 
ATOM     25  C   UNL     1       1.292   2.496  18.660  0.00  0.00    +0.000 A 
ATOM     26  C   UNL     1       0.814   2.998  19.869  0.00  0.00    +0.000 A 
ATOM     27  C   UNL     1       1.267   4.231  20.340  0.00  0.00    +0.000 A 
ATOM     28  C   UNL     1       2.183   4.976  19.589  0.00  0.00    +0.000 A 
ENDBRANCH  20  23
ENDBRANCH  17  19
ENDBRANCH   2  17
TORSDOF 9
ENDMDL
MODEL 2
REMARK VINA RESULT:      -6.7      4.006      7.209
REMARK  Name = 
REMARK  13 active torsions:
REMARK  status: ('A' for Active; 'I' for Inactive)
REMARK    1  A    between atoms: C_1  and  O_2
REMARK    2  A    between atoms: O_2  and  C_3
REMARK    3  A    between atoms: C_3  and  C_4
REMARK    4  A    between atoms: C_3  and  O_24
REMARK    5  A    between atoms: C_4  and  N_5
REMARK    6  A    between atoms: C_6  and  C_8
REMARK    7  A    between atoms: C_8  and  C_9
REMARK    8  A    between atoms: C_8  and  N_10
REMARK    9  A    between atoms: C_11  and  C_13
REMARK   10  A    between atoms: C_13  and  C_14
REMARK   11  A    between atoms: C_13  and  N_15
REMARK   12  A    between atoms: C_16  and  C_18
REMARK   13  A    between atoms: O_24  and  C_25
REMARK                            x       y       z     vdW  Elec       q    Type
REMARK                         _______ _______ _______ _____ _____    ______ ____
ROOT
ATOM      1  N   UNL     1       3.874   5.261  18.494  0.00  0.00    +0.000 N 
ATOM      2  C   UNL     1       5.147   4.837  18.804  0.00  0.00    +0.000 C 
ATOM      3  O   UNL     1       5.356   3.824  19.471  0.00  0.00    +0.000 OA
ATOM      4  H   UNL     1       3.741   6.136  17.991  0.00  0.00    +0.000 HD
ENDROOT
BRANCH   1   5
ATOM      5  C   UNL     1       2.676   4.626  19.048  0.00  0.00    +0.000 C 
ATOM      6  C   UNL     1       1.644   4.344  17.959  0.00  0.00    +0.000 C 
BRANCH   5   8
ATOM      7  N   UNL     1       2.081   6.896  19.834  0.00  0.00    +0.000 N 
ATOM      8  C   UNL     1       2.075   5.551  20.132  0.00  0.00    +0.000 C 
ATOM      9  O   UNL     1       1.614   5.109  21.185  0.00  0.00    +0.000 OA
ATOM     10  H   UNL     1       2.518   7.242  18.986  0.00  0.00    +0.000 HD
BRANCH   7  11
ATOM     11  C   UNL     1       1.708   7.900  20.824  0.00  0.00    +0.000 C 
BRANCH  11  12
ATOM     12  C   UNL     1       1.248   9.235  20.188  0.00  0.00    +0.000 C 
BRANCH  12  14
ATOM     13  C   UNL     1      -0.481   8.913  21.798  0.00  0.00    +0.000 C 
ATOM     14  O   UNL     1      -0.016   9.670  20.692  0.00  0.00    +0.000 OA
ENDBRANCH  12  14
BRANCH  12  15
ATOM     15  O   UNL     1       1.138   9.030  18.772  0.00  0.00    +0.000 OA
ATOM     16  C   UNL     1       0.154   9.876  18.186  0.00  0.00    +0.000 C 
ENDBRANCH  12  15
ENDBRANCH  11  12
ENDBRANCH   7  11
ENDBRANCH   5   8
ENDBRANCH   1   5
BRANCH   2  17
ATOM     17  C   UNL     1       6.281   5.648  18.149  0.00  0.00    +0.000 C 
ATOM     18  C   UNL     1       7.540   5.599  19.014  0.00  0.00    +0.000 C 
BRANCH  17  19
ATOM     19  N   UNL     1       6.550   5.097  16.822  0.00  0.00    +0.000 N 
ATOM     20  C   UNL     1       5.920   5.578  15.695  0.00  0.00    +0.000 C 
ATOM     21  O   UNL     1       5.063   6.455  15.733  0.00  0.00    +0.000 OA
ATOM     22  H   UNL     1       7.231   4.353  16.755  0.00  0.00    +0.000 HD
BRANCH  20  23
ATOM     23  C   UNL     1       6.287   4.947  14.393  0.00  0.00    +0.000 A 
ATOM     24  C   UNL     1       7.464   5.372  13.764  0.00  0.00    +0.000 A 
ATOM     25  C   UNL     1       7.836   4.839  12.527  0.00  0.00    +0.000 A 
ATOM     26  C   UNL     1       7.041   3.869  11.919  0.00  0.00    +0.000 A 
ATOM     27  C   UNL     1       5.884   3.417  12.554  0.00  0.00    +0.000 A 
ATOM     28  C   UNL     1       5.508   3.950  13.792  0.00  0.00    +0.000 A 
ENDBRANCH  20  23
ENDBRANCH  17  19
ENDBRANCH   2  17
TORSDOF 9
ENDMDL
MODEL 3
REMARK VINA RESULT:      -6.6      3.983      7.026
REMARK  Name = 
REMARK  13 active torsions:
REMARK  status: ('A' for Active; 'I' for Inactive)
REMARK    1  A    between atoms: C_1  and  O_2
REMARK    2  A    between atoms: O_2  and  C_3
REMARK    3  A    between atoms: C_3  and  C_4
REMARK    4  A    between atoms: C_3  and  O_24
REMARK    5  A    between atoms: C_4  and  N_5
REMARK    6  A    between atoms: C_6  and  C_8
REMARK    7  A    between atoms: C_8  and  C_9
REMARK    8  A    between atoms: C_8  and  N_10
REMARK    9  A    between atoms: C_11  and  C_13
REMARK   10  A    between atoms: C_13  and  C_14
REMARK   11  A    between atoms: C_13  and  N_15
REMARK   12  A    between atoms: C_16  and  C_18
REMARK   13  A    between atoms: O_24  and  C_25
REMARK                            x       y       z     vdW  Elec       q    Type
REMARK                         _______ _______ _______ _____ _____    ______ ____
ROOT
ATOM      1  N   UNL     1       4.063   5.399  18.491  0.00  0.00    +0.000 N 
ATOM      2  C   UNL     1       5.325   4.935  18.790  0.00  0.00    +0.000 C 
ATOM      3  O   UNL     1       5.508   3.900  19.430  0.00  0.00    +0.000 OA
ATOM      4  H   UNL     1       3.953   6.290  18.012  0.00  0.00    +0.000 HD
ENDROOT
BRANCH   1   5
ATOM      5  C   UNL     1       2.849   4.779  19.026  0.00  0.00    +0.000 C 
ATOM      6  C   UNL     1       1.846   4.475  17.917  0.00  0.00    +0.000 C 
BRANCH   5   8
ATOM      7  N   UNL     1       2.129   7.049  19.696  0.00  0.00    +0.000 N 
ATOM      8  C   UNL     1       2.223   5.728  20.074  0.00  0.00    +0.000 C 
ATOM      9  O   UNL     1       1.824   5.323  21.167  0.00  0.00    +0.000 OA
ATOM     10  H   UNL     1       2.516   7.370  18.815  0.00  0.00    +0.000 HD
BRANCH   7  11
ATOM     11  C   UNL     1       1.721   8.087  20.637  0.00  0.00    +0.000 C 
BRANCH  11  12
ATOM     12  C   UNL     1       0.811   9.162  19.995  0.00  0.00    +0.000 C 
BRANCH  12  14
ATOM     13  C   UNL     1       1.791  10.477  18.264  0.00  0.00    +0.000 C 
ATOM     14  O   UNL     1       1.051   9.313  18.594  0.00  0.00    +0.000 OA
ENDBRANCH  12  14
BRANCH  12  15
ATOM     15  O   UNL     1       1.080  10.411  20.649  0.00  0.00    +0.000 OA
ATOM     16  C   UNL     1      -0.009  10.829  21.465  0.00  0.00    +0.000 C 
ENDBRANCH  12  15
ENDBRANCH  11  12
ENDBRANCH   7  11
ENDBRANCH   5   8
ENDBRANCH   1   5
BRANCH   2  17
ATOM     17  C   UNL     1       6.480   5.736  18.158  0.00  0.00    +0.000 C 
ATOM     18  C   UNL     1       7.733   5.639  19.026  0.00  0.00    +0.000 C 
BRANCH  17  19
ATOM     19  N   UNL     1       6.742   5.210  16.819  0.00  0.00    +0.000 N 
ATOM     20  C   UNL     1       5.997   5.600  15.728  0.00  0.00    +0.000 C 
ATOM     21  O   UNL     1       5.042   6.367  15.811  0.00  0.00    +0.000 OA
ATOM     22  H   UNL     1       7.503   4.554  16.717  0.00  0.00    +0.000 HD
BRANCH  20  23
ATOM     23  C   UNL     1       6.367   5.007  14.409  0.00  0.00    +0.000 A 
ATOM     24  C   UNL     1       5.538   4.010  13.879  0.00  0.00    +0.000 A 
ATOM     25  C   UNL     1       5.859   3.398  12.665  0.00  0.00    +0.000 A 
ATOM     26  C   UNL     1       7.001   3.787  11.968  0.00  0.00    +0.000 A 
ATOM     27  C   UNL     1       7.814   4.802  12.473  0.00  0.00    +0.000 A 
ATOM     28  C   UNL     1       7.497   5.416  13.690  0.00  0.00    +0.000 A 
ENDBRANCH  20  23
ENDBRANCH  17  19
ENDBRANCH   2  17
TORSDOF 9
ENDMDL
MODEL 4
REMARK VINA RESULT:      -6.6      4.184      7.326
REMARK  Name = 
REMARK  13 active torsions:
REMARK  status: ('A' for Active; 'I' for Inactive)
REMARK    1  A    between atoms: C_1  and  O_2
REMARK    2  A    between atoms: O_2  and  C_3
REMARK    3  A    between atoms: C_3  and  C_4
REMARK    4  A    between atoms: C_3  and  O_24
REMARK    5  A    between atoms: C_4  and  N_5
REMARK    6  A    between atoms: C_6  and  C_8
REMARK    7  A    between atoms: C_8  and  C_9
REMARK    8  A    between atoms: C_8  and  N_10
REMARK    9  A    between atoms: C_11  and  C_13
REMARK   10  A    between atoms: C_13  and  C_14
REMARK   11  A    between atoms: C_13  and  N_15
REMARK   12  A    between atoms: C_16  and  C_18
REMARK   13  A    between atoms: O_24  and  C_25
REMARK                            x       y       z     vdW  Elec       q    Type
REMARK                         _______ _______ _______ _____ _____    ______ ____
ROOT
ATOM      1  N   UNL     1       5.318   4.474  16.650  0.00  0.00    +0.000 N 
ATOM      2  C   UNL     1       4.853   3.976  17.847  0.00  0.00    +0.000 C 
ATOM      3  O   UNL     1       5.601   3.749  18.798  0.00  0.00    +0.000 OA
ATOM      4  H   UNL     1       4.676   4.592  15.869  0.00  0.00    +0.000 HD
ENDROOT
BRANCH   1   5
ATOM      5  C   UNL     1       6.745   4.639  16.367  0.00  0.00    +0.000 C 
ATOM      6  C   UNL     1       7.300   5.897  17.028  0.00  0.00    +0.000 C 
BRANCH   5   8
ATOM      7  N   UNL     1       6.215   3.792  14.103  0.00  0.00    +0.000 N 
ATOM      8  C   UNL     1       6.948   4.701  14.836  0.00  0.00    +0.000 C 
ATOM      9  O   UNL     1       7.706   5.517  14.309  0.00  0.00    +0.000 OA
ATOM     10  H   UNL     1       5.642   3.092  14.561  0.00  0.00    +0.000 HD
BRANCH   7  11
ATOM     11  C   UNL     1       6.428   3.616  12.671  0.00  0.00    +0.000 C 
BRANCH  11  12
ATOM     12  C   UNL     1       5.320   2.770  11.995  0.00  0.00    +0.000 C 
BRANCH  12  14
ATOM     13  C   UNL     1       7.186   1.658  11.010  0.00  0.00    +0.000 C 
ATOM     14  O   UNL     1       5.831   1.566  11.420  0.00  0.00    +0.000 OA
ENDBRANCH  12  14
BRANCH  12  15
ATOM     15  O   UNL     1       4.734   3.569  10.956  0.00  0.00    +0.000 OA
ATOM     16  C   UNL     1       3.367   3.237  10.738  0.00  0.00    +0.000 C 
ENDBRANCH  12  15
ENDBRANCH  11  12
ENDBRANCH   7  11
ENDBRANCH   5   8
ENDBRANCH   1   5
BRANCH   2  17
ATOM     17  C   UNL     1       3.321   3.847  17.948  0.00  0.00    +0.000 C 
ATOM     18  C   UNL     1       2.935   3.032  19.181  0.00  0.00    +0.000 C 
BRANCH  17  19
ATOM     19  N   UNL     1       2.738   5.186  18.015  0.00  0.00    +0.000 N 
ATOM     20  C   UNL     1       2.951   6.017  19.094  0.00  0.00    +0.000 C 
ATOM     21  O   UNL     1       3.593   5.676  20.082  0.00  0.00    +0.000 OA
ATOM     22  H   UNL     1       2.179   5.492  17.230  0.00  0.00    +0.000 HD
BRANCH  20  23
ATOM     23  C   UNL     1       2.317   7.367  19.043  0.00  0.00    +0.000 A 
ATOM     24  C   UNL     1       1.756   7.877  20.222  0.00  0.00    +0.000 A 
ATOM     25  C   UNL     1       1.121   9.121  20.220  0.00  0.00    +0.000 A 
ATOM     26  C   UNL     1       1.053   9.868  19.046  0.00  0.00    +0.000 A 
ATOM     27  C   UNL     1       1.637   9.382  17.875  0.00  0.00    +0.000 A 
ATOM     28  C   UNL     1       2.273   8.135  17.872  0.00  0.00    +0.000 A 
ENDBRANCH  20  23
ENDBRANCH  17  19
ENDBRANCH   2  17
TORSDOF 9
ENDMDL
MODEL 5
REMARK VINA RESULT:      -6.6      3.641      7.112
REMARK  Name = 
REMARK  13 active torsions:
REMARK  status: ('A' for Active; 'I' for Inactive)
REMARK    1  A    between atoms: C_1  and  O_2
REMARK    2  A    between atoms: O_2  and  C_3
REMARK    3  A    between atoms: C_3  and  C_4
REMARK    4  A    between atoms: C_3  and  O_24
REMARK    5  A    between atoms: C_4  and  N_5
REMARK    6  A    between atoms: C_6  and  C_8
REMARK    7  A    between atoms: C_8  and  C_9
REMARK    8  A    between atoms: C_8  and  N_10
REMARK    9  A    between atoms: C_11  and  C_13
REMARK   10  A    between atoms: C_13  and  C_14
REMARK   11  A    between atoms: C_13  and  N_15
REMARK   12  A    between atoms: C_16  and  C_18
REMARK   13  A    between atoms: O_24  and  C_25
REMARK                            x       y       z     vdW  Elec       q    Type
REMARK                         _______ _______ _______ _____ _____    ______ ____
ROOT
ATOM      1  N   UNL     1       4.429   4.934  18.116  0.00  0.00    +0.000 N 
ATOM      2  C   UNL     1       5.649   5.372  18.583  0.00  0.00    +0.000 C 
ATOM      3  O   UNL     1       6.218   4.837  19.534  0.00  0.00    +0.000 OA
ATOM      4  H   UNL     1       3.964   5.440  17.366  0.00  0.00    +0.000 HD
ENDROOT
BRANCH   1   5
ATOM      5  C   UNL     1       3.654   3.895  18.797  0.00  0.00    +0.000 C 
ATOM      6  C   UNL     1       2.784   3.118  17.813  0.00  0.00    +0.000 C 
BRANCH   5   8
ATOM      7  N   UNL     1       2.244   5.783  19.551  0.00  0.00    +0.000 N 
ATOM      8  C   UNL     1       2.777   4.557  19.884  0.00  0.00    +0.000 C 
ATOM      9  O   UNL     1       2.562   4.017  20.970  0.00  0.00    +0.000 OA
ATOM     10  H   UNL     1       2.481   6.236  18.674  0.00  0.00    +0.000 HD
BRANCH   7  11
ATOM     11  C   UNL     1       1.541   6.604  20.530  0.00  0.00    +0.000 C 
BRANCH  11  12
ATOM     12  C   UNL     1       1.766   8.122  20.321  0.00  0.00    +0.000 C 
BRANCH  12  14
ATOM     13  C   UNL     1       0.062   8.797  21.847  0.00  0.00    +0.000 C 
ATOM     14  O   UNL     1       0.574   8.882  20.526  0.00  0.00    +0.000 OA
ENDBRANCH  12  14
BRANCH  12  15
ATOM     15  O   UNL     1       2.215   8.316  18.972  0.00  0.00    +0.000 OA
ATOM     16  C   UNL     1       1.438   9.292  18.287  0.00  0.00    +0.000 C 
ENDBRANCH  12  15
ENDBRANCH  11  12
ENDBRANCH   7  11
ENDBRANCH   5   8
ENDBRANCH   1   5
BRANCH   2  17
ATOM     17  C   UNL     1       6.300   6.493  17.750  0.00  0.00    +0.000 C 
ATOM     18  C   UNL     1       7.726   6.755  18.232  0.00  0.00    +0.000 C 
BRANCH  17  19
ATOM     19  N   UNL     1       6.300   6.095  16.342  0.00  0.00    +0.000 N 
ATOM     20  C   UNL     1       7.079   5.055  15.883  0.00  0.00    +0.000 C 
ATOM     21  O   UNL     1       7.853   4.432  16.602  0.00  0.00    +0.000 OA
ATOM     22  H   UNL     1       5.695   6.604  15.714  0.00  0.00    +0.000 HD
BRANCH  20  23
ATOM     23  C   UNL     1       6.984   4.731  14.429  0.00  0.00    +0.000 A 
ATOM     24  C   UNL     1       6.032   3.784  14.026  0.00  0.00    +0.000 A 
ATOM     25  C   UNL     1       5.925   3.419  12.682  0.00  0.00    +0.000 A 
ATOM     26  C   UNL     1       6.759   4.005  11.732  0.00  0.00    +0.000 A 
ATOM     27  C   UNL     1       7.687   4.972  12.120  0.00  0.00    +0.000 A 
ATOM     28  C   UNL     1       7.798   5.339  13.466  0.00  0.00    +0.000 A 
ENDBRANCH  20  23
ENDBRANCH  17  19
ENDBRANCH   2  17
TORSDOF 9
ENDMDL
MODEL 6
REMARK VINA RESULT:      -6.6      3.888      7.240
REMARK  Name = 
REMARK  13 active torsions:
REMARK  status: ('A' for Active; 'I' for Inactive)
REMARK    1  A    between atoms: C_1  and  O_2
REMARK    2  A    between atoms: O_2  and  C_3
REMARK    3  A    between atoms: C_3  and  C_4
REMARK    4  A    between atoms: C_3  and  O_24
REMARK    5  A    between atoms: C_4  and  N_5
REMARK    6  A    between atoms: C_6  and  C_8
REMARK    7  A    between atoms: C_8  and  C_9
REMARK    8  A    between atoms: C_8  and  N_10
REMARK    9  A    between atoms: C_11  and  C_13
REMARK   10  A    between atoms: C_13  and  C_14
REMARK   11  A    between atoms: C_13  and  N_15
REMARK   12  A    between atoms: C_16  and  C_18
REMARK   13  A    between atoms: O_24  and  C_25
REMARK                            x       y       z     vdW  Elec       q    Type
REMARK                         _______ _______ _______ _____ _____    ______ ____
ROOT
ATOM      1  N   UNL     1       4.783   3.610  18.384  0.00  0.00    +0.000 N 
ATOM      2  C   UNL     1       5.658   4.553  18.876  0.00  0.00    +0.000 C 
ATOM      3  O   UNL     1       6.111   4.494  20.019  0.00  0.00    +0.000 OA
ATOM      4  H   UNL     1       4.385   3.726  17.455  0.00  0.00    +0.000 HD
ENDROOT
BRANCH   1   5
ATOM      5  C   UNL     1       4.217   2.550  19.221  0.00  0.00    +0.000 C 
ATOM      6  C   UNL     1       3.559   1.465  18.372  0.00  0.00    +0.000 C 
BRANCH   5   8
ATOM      7  N   UNL     1       2.483   4.250  19.695  0.00  0.00    +0.000 N 
ATOM      8  C   UNL     1       3.186   3.174  20.190  0.00  0.00    +0.000 C 
ATOM      9  O   UNL     1       3.002   2.728  21.323  0.00  0.00    +0.000 OA
ATOM     10  H   UNL     1       2.692   4.636  18.780  0.00  0.00    +0.000 HD
BRANCH   7  11
ATOM     11  C   UNL     1       1.605   5.046  20.545  0.00  0.00    +0.000 C 
BRANCH  11  12
ATOM     12  C   UNL     1       1.563   6.541  20.141  0.00  0.00    +0.000 C 
BRANCH  12  14
ATOM     13  C   UNL     1       2.759   7.306  18.225  0.00  0.00    +0.000 C 
ATOM     14  O   UNL     1       2.808   6.995  19.609  0.00  0.00    +0.000 OA
ENDBRANCH  12  14
BRANCH  12  15
ATOM     15  O   UNL     1       1.253   7.303  21.316  0.00  0.00    +0.000 OA
ATOM     16  C   UNL     1       1.229   8.702  21.053  0.00  0.00    +0.000 C 
ENDBRANCH  12  15
ENDBRANCH  11  12
ENDBRANCH   7  11
ENDBRANCH   5   8
ENDBRANCH   1   5
BRANCH   2  17
ATOM     17  C   UNL     1       6.122   5.607  17.853  0.00  0.00    +0.000 C 
ATOM     18  C   UNL     1       7.426   6.258  18.311  0.00  0.00    +0.000 C 
BRANCH  17  19
ATOM     19  N   UNL     1       6.303   4.957  16.555  0.00  0.00    +0.000 N 
ATOM     20  C   UNL     1       5.914   5.563  15.380  0.00  0.00    +0.000 C 
ATOM     21  O   UNL     1       5.350   6.653  15.345  0.00  0.00    +0.000 OA
ATOM     22  H   UNL     1       6.739   4.046  16.546  0.00  0.00    +0.000 HD
BRANCH  20  23
ATOM     23  C   UNL     1       6.163   4.809  14.116  0.00  0.00    +0.000 A 
ATOM     24  C   UNL     1       7.345   5.077  13.411  0.00  0.00    +0.000 A 
ATOM     25  C   UNL     1       7.610   4.425  12.205  0.00  0.00    +0.000 A 
ATOM     26  C   UNL     1       6.704   3.493  11.702  0.00  0.00    +0.000 A 
ATOM     27  C   UNL     1       5.541   3.197  12.414  0.00  0.00    +0.000 A 
ATOM     28  C   UNL     1       5.271   3.849  13.622  0.00  0.00    +0.000 A 
ENDBRANCH  20  23
ENDBRANCH  17  19
ENDBRANCH   2  17
TORSDOF 9
ENDMDL
MODEL 7
REMARK VINA RESULT:      -6.5      3.714      7.240
REMARK  Name = 
REMARK  13 active torsions:
REMARK  status: ('A' for Active; 'I' for Inactive)
REMARK    1  A    between atoms: C_1  and  O_2
REMARK    2  A    between atoms: O_2  and  C_3
REMARK    3  A    between atoms: C_3  and  C_4
REMARK    4  A    between atoms: C_3  and  O_24
REMARK    5  A    between atoms: C_4  and  N_5
REMARK    6  A    between atoms: C_6  and  C_8
REMARK    7  A    between atoms: C_8  and  C_9
REMARK    8  A    between atoms: C_8  and  N_10
REMARK    9  A    between atoms: C_11  and  C_13
REMARK   10  A    between atoms: C_13  and  C_14
REMARK   11  A    between atoms: C_13  and  N_15
REMARK   12  A    between atoms: C_16  and  C_18
REMARK   13  A    between atoms: O_24  and  C_25
REMARK                            x       y       z     vdW  Elec       q    Type
REMARK                         _______ _______ _______ _____ _____    ______ ____
ROOT
ATOM      1  N   UNL     1       3.888   5.647  18.031  0.00  0.00    +0.000 N 
ATOM      2  C   UNL     1       5.219   5.681  18.385  0.00  0.00    +0.000 C 
ATOM      3  O   UNL     1       5.692   4.923  19.231  0.00  0.00    +0.000 OA
ATOM      4  H   UNL     1       3.524   6.331  17.370  0.00  0.00    +0.000 HD
ENDROOT
BRANCH   1   5
ATOM      5  C   UNL     1       2.909   4.810  18.727  0.00  0.00    +0.000 C 
ATOM      6  C   UNL     1       1.772   4.396  17.797  0.00  0.00    +0.000 C 
BRANCH   5   8
ATOM      7  N   UNL     1       2.140   6.936  19.732  0.00  0.00    +0.000 N 
ATOM      8  C   UNL     1       2.356   5.592  19.940  0.00  0.00    +0.000 C 
ATOM      9  O   UNL     1       2.114   5.043  21.017  0.00  0.00    +0.000 OA
ATOM     10  H   UNL     1       2.400   7.378  18.856  0.00  0.00    +0.000 HD
BRANCH   7  11
ATOM     11  C   UNL     1       1.785   7.833  20.825  0.00  0.00    +0.000 C 
BRANCH  11  12
ATOM     12  C   UNL     1       0.826   8.969  20.390  0.00  0.00    +0.000 C 
BRANCH  12  14
ATOM     13  C   UNL     1       0.256  10.434  18.598  0.00  0.00    +0.000 C 
ATOM     14  O   UNL     1       1.246   9.601  19.180  0.00  0.00    +0.000 OA
ENDBRANCH  12  14
BRANCH  12  15
ATOM     15  O   UNL     1       0.802   9.947  21.441  0.00  0.00    +0.000 OA
ATOM     16  C   UNL     1      -0.121   9.601  22.468  0.00  0.00    +0.000 C 
ENDBRANCH  12  15
ENDBRANCH  11  12
ENDBRANCH   7  11
ENDBRANCH   5   8
ENDBRANCH   1   5
BRANCH   2  17
ATOM     17  C   UNL     1       6.089   6.646  17.557  0.00  0.00    +0.000 C 
ATOM     18  C   UNL     1       7.502   6.716  18.132  0.00  0.00    +0.000 C 
BRANCH  17  19
ATOM     19  N   UNL     1       6.122   6.179  16.171  0.00  0.00    +0.000 N 
ATOM     20  C   UNL     1       6.930   5.135  15.776  0.00  0.00    +0.000 C 
ATOM     21  O   UNL     1       7.704   4.565  16.539  0.00  0.00    +0.000 OA
ATOM     22  H   UNL     1       5.518   6.644  15.508  0.00  0.00    +0.000 HD
BRANCH  20  23
ATOM     23  C   UNL     1       6.867   4.737  14.339  0.00  0.00    +0.000 A 
ATOM     24  C   UNL     1       5.875   3.826  13.951  0.00  0.00    +0.000 A 
ATOM     25  C   UNL     1       5.795   3.394  12.625  0.00  0.00    +0.000 A 
ATOM     26  C   UNL     1       6.695   3.879  11.678  0.00  0.00    +0.000 A 
ATOM     27  C   UNL     1       7.664   4.811  12.050  0.00  0.00    +0.000 A 
ATOM     28  C   UNL     1       7.749   5.244  13.378  0.00  0.00    +0.000 A 
ENDBRANCH  20  23
ENDBRANCH  17  19
ENDBRANCH   2  17
TORSDOF 9
ENDMDL
MODEL 8
REMARK VINA RESULT:      -6.5      3.548      6.613
REMARK  Name = 
REMARK  13 active torsions:
REMARK  status: ('A' for Active; 'I' for Inactive)
REMARK    1  A    between atoms: C_1  and  O_2
REMARK    2  A    between atoms: O_2  and  C_3
REMARK    3  A    between atoms: C_3  and  C_4
REMARK    4  A    between atoms: C_3  and  O_24
REMARK    5  A    between atoms: C_4  and  N_5
REMARK    6  A    between atoms: C_6  and  C_8
REMARK    7  A    between atoms: C_8  and  C_9
REMARK    8  A    between atoms: C_8  and  N_10
REMARK    9  A    between atoms: C_11  and  C_13
REMARK   10  A    between atoms: C_13  and  C_14
REMARK   11  A    between atoms: C_13  and  N_15
REMARK   12  A    between atoms: C_16  and  C_18
REMARK   13  A    between atoms: O_24  and  C_25
REMARK                            x       y       z     vdW  Elec       q    Type
REMARK                         _______ _______ _______ _____ _____    ______ ____
ROOT
ATOM      1  N   UNL     1       5.303   6.784  17.629  0.00  0.00    +0.000 N 
ATOM      2  C   UNL     1       4.390   6.087  18.389  0.00  0.00    +0.000 C 
ATOM      3  O   UNL     1       4.727   5.402  19.354  0.00  0.00    +0.000 OA
ATOM      4  H   UNL     1       4.990   7.291  16.803  0.00  0.00    +0.000 HD
ENDROOT
BRANCH   1   5
ATOM      5  C   UNL     1       6.749   6.653  17.819  0.00  0.00    +0.000 C 
ATOM      6  C   UNL     1       7.462   7.981  17.585  0.00  0.00    +0.000 C 
BRANCH   5   8
ATOM      7  N   UNL     1       7.028   5.798  15.514  0.00  0.00    +0.000 N 
ATOM      8  C   UNL     1       7.285   5.575  16.849  0.00  0.00    +0.000 C 
ATOM      9  O   UNL     1       7.910   4.590  17.247  0.00  0.00    +0.000 OA
ATOM     10  H   UNL     1       6.462   6.585  15.215  0.00  0.00    +0.000 HD
BRANCH   7  11
ATOM     11  C   UNL     1       7.319   4.790  14.501  0.00  0.00    +0.000 C 
BRANCH  11  12
ATOM     12  C   UNL     1       6.169   3.771  14.312  0.00  0.00    +0.000 C 
BRANCH  12  14
ATOM     13  C   UNL     1       6.833   3.662  12.025  0.00  0.00    +0.000 C 
ATOM     14  O   UNL     1       5.756   3.662  12.949  0.00  0.00    +0.000 OA
ENDBRANCH  12  14
BRANCH  12  15
ATOM     15  O   UNL     1       5.056   4.216  15.101  0.00  0.00    +0.000 OA
ATOM     16  C   UNL     1       4.769   3.321  16.170  0.00  0.00    +0.000 C 
ENDBRANCH  12  15
ENDBRANCH  11  12
ENDBRANCH   7  11
ENDBRANCH   5   8
ENDBRANCH   1   5
BRANCH   2  17
ATOM     17  C   UNL     1       2.914   6.333  18.021  0.00  0.00    +0.000 C 
ATOM     18  C   UNL     1       2.167   5.005  17.898  0.00  0.00    +0.000 C 
BRANCH  17  19
ATOM     19  N   UNL     1       2.303   7.170  19.053  0.00  0.00    +0.000 N 
ATOM     20  C   UNL     1       1.800   8.421  18.769  0.00  0.00    +0.000 C 
ATOM     21  O   UNL     1       1.874   8.933  17.656  0.00  0.00    +0.000 OA
ATOM     22  H   UNL     1       2.249   6.792  19.989  0.00  0.00    +0.000 HD
BRANCH  20  23
ATOM     23  C   UNL     1       1.186   9.176  19.900  0.00  0.00    +0.000 A 
ATOM     24  C   UNL     1       0.630  10.433  19.628  0.00  0.00    +0.000 A 
ATOM     25  C   UNL     1       0.074  11.196  20.658  0.00  0.00    +0.000 A 
ATOM     26  C   UNL     1       0.058  10.703  21.961  0.00  0.00    +0.000 A 
ATOM     27  C   UNL     1       0.580   9.438  22.234  0.00  0.00    +0.000 A 
ATOM     28  C   UNL     1       1.140   8.672  21.206  0.00  0.00    +0.000 A 
ENDBRANCH  20  23
ENDBRANCH  17  19
ENDBRANCH   2  17
TORSDOF 9
ENDMDL
MODEL 9
REMARK VINA RESULT:      -6.5      0.864      1.272
REMARK  Name = 
REMARK  13 active torsions:
REMARK  status: ('A' for Active; 'I' for Inactive)
REMARK    1  A    between atoms: C_1  and  O_2
REMARK    2  A    between atoms: O_2  and  C_3
REMARK    3  A    between atoms: C_3  and  C_4
REMARK    4  A    between atoms: C_3  and  O_24
REMARK    5  A    between atoms: C_4  and  N_5
REMARK    6  A    between atoms: C_6  and  C_8
REMARK    7  A    between atoms: C_8  and  C_9
REMARK    8  A    between atoms: C_8  and  N_10
REMARK    9  A    between atoms: C_11  and  C_13
REMARK   10  A    between atoms: C_13  and  C_14
REMARK   11  A    between atoms: C_13  and  N_15
REMARK   12  A    between atoms: C_16  and  C_18
REMARK   13  A    between atoms: O_24  and  C_25
REMARK                            x       y       z     vdW  Elec       q    Type
REMARK                         _______ _______ _______ _____ _____    ______ ____
ROOT
ATOM      1  N   UNL     1       6.968   6.897  17.113  0.00  0.00    +0.000 N 
ATOM      2  C   UNL     1       6.854   5.685  16.468  0.00  0.00    +0.000 C 
ATOM      3  O   UNL     1       7.712   4.807  16.566  0.00  0.00    +0.000 OA
ATOM      4  H   UNL     1       6.266   7.618  16.959  0.00  0.00    +0.000 HD
ENDROOT
BRANCH   1   5
ATOM      5  C   UNL     1       8.173   7.289  17.846  0.00  0.00    +0.000 C 
ATOM      6  C   UNL     1       8.305   6.513  19.154  0.00  0.00    +0.000 C 
BRANCH   5   8
ATOM      7  N   UNL     1       9.018   9.275  19.056  0.00  0.00    +0.000 N 
ATOM      8  C   UNL     1       8.117   8.808  18.124  0.00  0.00    +0.000 C 
ATOM      9  O   UNL     1       7.325   9.551  17.542  0.00  0.00    +0.000 OA
ATOM     10  H   UNL     1       9.621   8.637  19.565  0.00  0.00    +0.000 HD
BRANCH   7  11
ATOM     11  C   UNL     1       8.970  10.647  19.548  0.00  0.00    +0.000 C 
BRANCH  11  12
ATOM     12  C   UNL     1       9.968  11.585  18.824  0.00  0.00    +0.000 C 
BRANCH  12  14
ATOM     13  C   UNL     1      12.312  11.907  19.115  0.00  0.00    +0.000 C 
ATOM     14  O   UNL     1      11.018  12.029  19.685  0.00  0.00    +0.000 OA
ENDBRANCH  12  14
BRANCH  12  15
ATOM     15  O   UNL     1       9.234  12.727  18.358  0.00  0.00    +0.000 OA
ATOM     16  C   UNL     1       8.646  13.456  19.430  0.00  0.00    +0.000 C 
ENDBRANCH  12  15
ENDBRANCH  11  12
ENDBRANCH   7  11
ENDBRANCH   5   8
ENDBRANCH   1   5
BRANCH   2  17
ATOM     17  C   UNL     1       5.523   5.464  15.725  0.00  0.00    +0.000 C 
ATOM     18  C   UNL     1       5.731   4.553  14.517  0.00  0.00    +0.000 C 
BRANCH  17  19
ATOM     19  N   UNL     1       4.557   4.874  16.652  0.00  0.00    +0.000 N 
ATOM     20  C   UNL     1       3.734   5.653  17.436  0.00  0.00    +0.000 C 
ATOM     21  O   UNL     1       3.788   6.878  17.448  0.00  0.00    +0.000 OA
ATOM     22  H   UNL     1       4.503   3.865  16.689  0.00  0.00    +0.000 HD
BRANCH  20  23
ATOM     23  C   UNL     1       2.779   4.937  18.331  0.00  0.00    +0.000 A 
ATOM     24  C   UNL     1       3.028   4.956  19.710  0.00  0.00    +0.000 A 
ATOM     25  C   UNL     1       2.184   4.273  20.589  0.00  0.00    +0.000 A 
ATOM     26  C   UNL     1       1.080   3.579  20.098  0.00  0.00    +0.000 A 
ATOM     27  C   UNL     1       0.806   3.583  18.730  0.00  0.00    +0.000 A 
ATOM     28  C   UNL     1       1.650   4.265  17.846  0.00  0.00    +0.000 A 
ENDBRANCH  20  23
ENDBRANCH  17  19
ENDBRANCH   2  17
TORSDOF 9
ENDMDL
