MODEL 1
REMARK VINA RESULT:      -8.3      0.000      0.000
REMARK  Name = 
REMARK  7 active torsions:
REMARK  status: ('A' for Active; 'I' for Inactive)
REMARK    1  A    between atoms: C_1  and  N_2
REMARK    2  A    between atoms: N_2  and  C_3
REMARK    3  A    between atoms: C_4  and  C_6
REMARK    4  A    between atoms: C_6  and  C_7
REMARK    5  A    between atoms: N_9  and  C_10
REMARK    6  A    between atoms: C_13  and  C_14
REMARK    7  A    between atoms: C_21  and  C_22
REMARK                            x       y       z     vdW  Elec       q    Type
REMARK                         _______ _______ _______ _____ _____    ______ ____
ROOT
ATOM      1  C   UNL     1       2.075   5.363  20.485  0.00  0.00    +0.000 A 
ATOM      2  C   UNL     1       1.265   6.264  21.147  0.00  0.00    +0.000 A 
ATOM      3  N   UNL     1       1.481   7.498  20.588  0.00  0.00    +0.000 N 
ATOM      4  N   UNL     1       2.343   7.426  19.548  0.00  0.00    +0.000 NA
ATOM      5  C   UNL     1       2.822   6.170  19.568  0.00  0.00    +0.000 A 
ENDROOT
BRANCH   5   6
ATOM      6  C   UNL     1       3.932   5.784  18.684  0.00  0.00    +0.000 A 
ATOM      7  C   UNL     1       3.701   5.356  17.371  0.00  0.00    +0.000 A 
ATOM      8  C   UNL     1       4.759   4.996  16.528  0.00  0.00    +0.000 A 
ATOM      9  C   UNL     1       6.068   5.023  17.003  0.00  0.00    +0.000 A 
ATOM     10 CL   UNL     1       7.326   4.562  15.912  0.00  0.00    +0.000 Cl
ATOM     11  C   UNL     1       6.316   5.405  18.326  0.00  0.00    +0.000 A 
ATOM     12 CL   UNL     1       7.909   5.426  18.994  0.00  0.00    +0.000 Cl
ATOM     13  C   UNL     1       5.252   5.785  19.159  0.00  0.00    +0.000 A 
ENDBRANCH   5   6
BRANCH   3  14
ATOM     14  C   UNL     1       0.893   8.727  20.984  0.00  0.00    +0.000 A 
ATOM     15  C   UNL     1       0.745   9.768  20.057  0.00  0.00    +0.000 A 
ATOM     16  C   UNL     1       0.139  10.967  20.443  0.00  0.00    +0.000 A 
ATOM     17  C   UNL     1      -0.292  11.159  21.763  0.00  0.00    +0.000 A 
ATOM     18  C   UNL     1      -0.118  10.117  22.691  0.00  0.00    +0.000 A 
ATOM     19  C   UNL     1       0.449   8.901  22.302  0.00  0.00    +0.000 A 
BRANCH  17  20
ATOM     20  C   UNL     1      -0.940  12.454  22.187  0.00  0.00    +0.000 C 
ATOM     21  F   UNL     1      -1.807  12.957  21.264  0.00  0.00    +0.000 F 
ATOM     22  F   UNL     1      -1.656  12.328  23.340  0.00  0.00    +0.000 F 
ATOM     23  F   UNL     1      -0.030  13.442  22.418  0.00  0.00    +0.000 F 
ENDBRANCH  17  20
ENDBRANCH   3  14
BRANCH   1  24
ATOM     24  C   UNL     1       2.094   3.883  20.694  0.00  0.00    +0.000 C 
BRANCH  24  28
ATOM     25  C   UNL     1       3.392   1.502  18.006  0.00  0.00    +0.000 C 
ATOM     26  N   UNL     1       3.308   2.299  19.217  0.00  0.00    +0.000 N 
ATOM     27  C   UNL     1       4.447   2.311  20.121  0.00  0.00    +0.000 C 
ATOM     28  C   UNL     1       2.162   3.073  19.402  0.00  0.00    +0.000 C 
ATOM     29  O   UNL     1       1.248   3.071  18.575  0.00  0.00    +0.000 OA
ENDBRANCH  24  28
ENDBRANCH   1  24
TORSDOF 5
ENDMDL
MODEL 2
REMARK VINA RESULT:      -8.3      0.230      1.192
REMARK  Name = 
REMARK  7 active torsions:
REMARK  status: ('A' for Active; 'I' for Inactive)
REMARK    1  A    between atoms: C_1  and  N_2
REMARK    2  A    between atoms: N_2  and  C_3
REMARK    3  A    between atoms: C_4  and  C_6
REMARK    4  A    between atoms: C_6  and  C_7
REMARK    5  A    between atoms: N_9  and  C_10
REMARK    6  A    between atoms: C_13  and  C_14
REMARK    7  A    between atoms: C_21  and  C_22
REMARK                            x       y       z     vdW  Elec       q    Type
REMARK                         _______ _______ _______ _____ _____    ______ ____
ROOT
ATOM      1  C   UNL     1       2.058   5.408  20.488  0.00  0.00    +0.000 A 
ATOM      2  C   UNL     1       1.246   6.322  21.130  0.00  0.00    +0.000 A 
ATOM      3  N   UNL     1       1.468   7.546  20.551  0.00  0.00    +0.000 N 
ATOM      4  N   UNL     1       2.335   7.454  19.517  0.00  0.00    +0.000 NA
ATOM      5  C   UNL     1       2.811   6.197  19.560  0.00  0.00    +0.000 A 
ENDROOT
BRANCH   5   6
ATOM      6  C   UNL     1       3.925   5.794  18.689  0.00  0.00    +0.000 A 
ATOM      7  C   UNL     1       3.698   5.336  17.385  0.00  0.00    +0.000 A 
ATOM      8  C   UNL     1       4.759   4.959  16.553  0.00  0.00    +0.000 A 
ATOM      9  C   UNL     1       6.067   4.999  17.032  0.00  0.00    +0.000 A 
ATOM     10 CL   UNL     1       7.329   4.517  15.955  0.00  0.00    +0.000 Cl
ATOM     11  C   UNL     1       6.310   5.411  18.346  0.00  0.00    +0.000 A 
ATOM     12 CL   UNL     1       7.901   5.450  19.018  0.00  0.00    +0.000 Cl
ATOM     13  C   UNL     1       5.243   5.808  19.167  0.00  0.00    +0.000 A 
ENDBRANCH   5   6
BRANCH   3  14
ATOM     14  C   UNL     1       0.881   8.783  20.923  0.00  0.00    +0.000 A 
ATOM     15  C   UNL     1       0.312   8.938  22.195  0.00  0.00    +0.000 A 
ATOM     16  C   UNL     1      -0.239  10.166  22.569  0.00  0.00    +0.000 A 
ATOM     17  C   UNL     1      -0.266  11.243  21.671  0.00  0.00    +0.000 A 
ATOM     18  C   UNL     1       0.286  11.069  20.390  0.00  0.00    +0.000 A 
ATOM     19  C   UNL     1       0.877   9.857  20.024  0.00  0.00    +0.000 A 
BRANCH  17  20
ATOM     20  C   UNL     1      -0.867  12.569  22.067  0.00  0.00    +0.000 C 
ATOM     21  F   UNL     1      -1.037  12.710  23.412  0.00  0.00    +0.000 F 
ATOM     22  F   UNL     1      -0.104  13.627  21.676  0.00  0.00    +0.000 F 
ATOM     23  F   UNL     1      -2.097  12.770  21.515  0.00  0.00    +0.000 F 
ENDBRANCH  17  20
ENDBRANCH   3  14
BRANCH   1  24
ATOM     24  C   UNL     1       2.072   3.932  20.723  0.00  0.00    +0.000 C 
BRANCH  24  28
ATOM     25  C   UNL     1       3.333   1.501  18.062  0.00  0.00    +0.000 C 
ATOM     26  N   UNL     1       3.265   2.320  19.260  0.00  0.00    +0.000 N 
ATOM     27  C   UNL     1       4.416   2.345  20.150  0.00  0.00    +0.000 C 
ATOM     28  C   UNL     1       2.123   3.099  19.445  0.00  0.00    +0.000 C 
ATOM     29  O   UNL     1       1.200   3.085  18.629  0.00  0.00    +0.000 OA
ENDBRANCH  24  28
ENDBRANCH   1  24
TORSDOF 5
ENDMDL
MODEL 3
REMARK VINA RESULT:      -8.0      0.618      1.705
REMARK  Name = 
REMARK  7 active torsions:
REMARK  status: ('A' for Active; 'I' for Inactive)
REMARK    1  A    between atoms: C_1  and  N_2
REMARK    2  A    between atoms: N_2  and  C_3
REMARK    3  A    between atoms: C_4  and  C_6
REMARK    4  A    between atoms: C_6  and  C_7
REMARK    5  A    between atoms: N_9  and  C_10
REMARK    6  A    between atoms: C_13  and  C_14
REMARK    7  A    between atoms: C_21  and  C_22
REMARK                            x       y       z     vdW  Elec       q    Type
REMARK                         _______ _______ _______ _____ _____    ______ ____
ROOT
ATOM      1  C   UNL     1       1.880   5.418  20.327  0.00  0.00    +0.000 A 
ATOM      2  C   UNL     1       1.049   6.332  20.943  0.00  0.00    +0.000 A 
ATOM      3  N   UNL     1       1.432   7.581  20.525  0.00  0.00    +0.000 N 
ATOM      4  N   UNL     1       2.428   7.514  19.612  0.00  0.00    +0.000 NA
ATOM      5  C   UNL     1       2.807   6.225  19.592  0.00  0.00    +0.000 A 
ENDROOT
BRANCH   5   6
ATOM      6  C   UNL     1       4.003   5.814  18.841  0.00  0.00    +0.000 A 
ATOM      7  C   UNL     1       5.158   5.370  19.499  0.00  0.00    +0.000 A 
ATOM      8  C   UNL     1       6.293   4.973  18.784  0.00  0.00    +0.000 A 
ATOM      9  C   UNL     1       6.302   5.051  17.393  0.00  0.00    +0.000 A 
ATOM     10 CL   UNL     1       7.736   4.548  16.571  0.00  0.00    +0.000 Cl
ATOM     11  C   UNL     1       5.174   5.532  16.719  0.00  0.00    +0.000 A 
ATOM     12 CL   UNL     1       5.128   5.691  15.000  0.00  0.00    +0.000 Cl
ATOM     13  C   UNL     1       4.032   5.910  17.442  0.00  0.00    +0.000 A 
ENDBRANCH   5   6
BRANCH   3  14
ATOM     14  C   UNL     1       0.882   8.823  20.938  0.00  0.00    +0.000 A 
ATOM     15  C   UNL     1       0.387   8.975  22.241  0.00  0.00    +0.000 A 
ATOM     16  C   UNL     1      -0.127  10.207  22.654  0.00  0.00    +0.000 A 
ATOM     17  C   UNL     1      -0.189  11.291  21.766  0.00  0.00    +0.000 A 
ATOM     18  C   UNL     1       0.289  11.121  20.455  0.00  0.00    +0.000 A 
ATOM     19  C   UNL     1       0.843   9.904  20.048  0.00  0.00    +0.000 A 
BRANCH  17  20
ATOM     20  C   UNL     1      -0.750  12.622  22.205  0.00  0.00    +0.000 C 
ATOM     21  F   UNL     1       0.162  13.633  22.176  0.00  0.00    +0.000 F 
ATOM     22  F   UNL     1      -1.788  13.035  21.424  0.00  0.00    +0.000 F 
ATOM     23  F   UNL     1      -1.230  12.591  23.479  0.00  0.00    +0.000 F 
ENDBRANCH  17  20
ENDBRANCH   3  14
BRANCH   1  24
ATOM     24  C   UNL     1       1.762   3.930  20.411  0.00  0.00    +0.000 C 
BRANCH  24  28
ATOM     25  C   UNL     1       3.416   1.652  17.831  0.00  0.00    +0.000 C 
ATOM     26  N   UNL     1       3.145   2.368  19.065  0.00  0.00    +0.000 N 
ATOM     27  C   UNL     1       4.086   2.234  20.167  0.00  0.00    +0.000 C 
ATOM     28  C   UNL     1       2.032   3.209  19.093  0.00  0.00    +0.000 C 
ATOM     29  O   UNL     1       1.298   3.331  18.111  0.00  0.00    +0.000 OA
ENDBRANCH  24  28
ENDBRANCH   1  24
TORSDOF 5
ENDMDL
MODEL 4
REMARK VINA RESULT:      -8.0      0.603      1.293
REMARK  Name = 
REMARK  7 active torsions:
REMARK  status: ('A' for Active; 'I' for Inactive)
REMARK    1  A    between atoms: C_1  and  N_2
REMARK    2  A    between atoms: N_2  and  C_3
REMARK    3  A    between atoms: C_4  and  C_6
REMARK    4  A    between atoms: C_6  and  C_7
REMARK    5  A    between atoms: N_9  and  C_10
REMARK    6  A    between atoms: C_13  and  C_14
REMARK    7  A    between atoms: C_21  and  C_22
REMARK                            x       y       z     vdW  Elec       q    Type
REMARK                         _______ _______ _______ _____ _____    ______ ____
ROOT
ATOM      1  C   UNL     1       1.900   5.425  20.429  0.00  0.00    +0.000 A 
ATOM      2  C   UNL     1       1.073   6.347  21.039  0.00  0.00    +0.000 A 
ATOM      3  N   UNL     1       1.441   7.589  20.588  0.00  0.00    +0.000 N 
ATOM      4  N   UNL     1       2.422   7.509  19.661  0.00  0.00    +0.000 NA
ATOM      5  C   UNL     1       2.810   6.221  19.662  0.00  0.00    +0.000 A 
ENDROOT
BRANCH   5   6
ATOM      6  C   UNL     1       3.996   5.802  18.900  0.00  0.00    +0.000 A 
ATOM      7  C   UNL     1       5.165   5.384  19.547  0.00  0.00    +0.000 A 
ATOM      8  C   UNL     1       6.291   4.978  18.822  0.00  0.00    +0.000 A 
ATOM      9  C   UNL     1       6.275   5.022  17.430  0.00  0.00    +0.000 A 
ATOM     10 CL   UNL     1       7.699   4.511  16.595  0.00  0.00    +0.000 Cl
ATOM     11  C   UNL     1       5.132   5.479  16.765  0.00  0.00    +0.000 A 
ATOM     12 CL   UNL     1       5.054   5.596  15.044  0.00  0.00    +0.000 Cl
ATOM     13  C   UNL     1       3.999   5.864  17.499  0.00  0.00    +0.000 A 
ENDBRANCH   5   6
BRANCH   3  14
ATOM     14  C   UNL     1       0.890   8.836  20.984  0.00  0.00    +0.000 A 
ATOM     15  C   UNL     1       0.823   9.898  20.071  0.00  0.00    +0.000 A 
ATOM     16  C   UNL     1       0.254  11.114  20.455  0.00  0.00    +0.000 A 
ATOM     17  C   UNL     1      -0.222  11.303  21.761  0.00  0.00    +0.000 A 
ATOM     18  C   UNL     1      -0.127  10.239  22.676  0.00  0.00    +0.000 A 
ATOM     19  C   UNL     1       0.402   9.006  22.286  0.00  0.00    +0.000 A 
BRANCH  17  20
ATOM     20  C   UNL     1      -0.830  12.617  22.184  0.00  0.00    +0.000 C 
ATOM     21  F   UNL     1      -1.874  13.011  21.401  0.00  0.00    +0.000 F 
ATOM     22  F   UNL     1      -1.313  12.585  23.458  0.00  0.00    +0.000 F 
ATOM     23  F   UNL     1       0.066  13.643  22.149  0.00  0.00    +0.000 F 
ENDBRANCH  17  20
ENDBRANCH   3  14
BRANCH   1  24
ATOM     24  C   UNL     1       1.793   3.939  20.547  0.00  0.00    +0.000 C 
BRANCH  24  28
ATOM     25  C   UNL     1       3.442   1.616  18.003  0.00  0.00    +0.000 C 
ATOM     26  N   UNL     1       3.177   2.356  19.224  0.00  0.00    +0.000 N 
ATOM     27  C   UNL     1       4.127   2.253  20.321  0.00  0.00    +0.000 C 
ATOM     28  C   UNL     1       2.058   3.190  19.243  0.00  0.00    +0.000 C 
ATOM     29  O   UNL     1       1.315   3.286  18.264  0.00  0.00    +0.000 OA
ENDBRANCH  24  28
ENDBRANCH   1  24
TORSDOF 5
ENDMDL
MODEL 5
REMARK VINA RESULT:      -7.9      1.002      1.651
REMARK  Name = 
REMARK  7 active torsions:
REMARK  status: ('A' for Active; 'I' for Inactive)
REMARK    1  A    between atoms: C_1  and  N_2
REMARK    2  A    between atoms: N_2  and  C_3
REMARK    3  A    between atoms: C_4  and  C_6
REMARK    4  A    between atoms: C_6  and  C_7
REMARK    5  A    between atoms: N_9  and  C_10
REMARK    6  A    between atoms: C_13  and  C_14
REMARK    7  A    between atoms: C_21  and  C_22
REMARK                            x       y       z     vdW  Elec       q    Type
REMARK                         _______ _______ _______ _____ _____    ______ ____
ROOT
ATOM      1  C   UNL     1       1.738   5.358  20.111  0.00  0.00    +0.000 A 
ATOM      2  C   UNL     1       0.908   6.264  20.741  0.00  0.00    +0.000 A 
ATOM      3  N   UNL     1       1.367   7.521  20.436  0.00  0.00    +0.000 N 
ATOM      4  N   UNL     1       2.414   7.471  19.582  0.00  0.00    +0.000 NA
ATOM      5  C   UNL     1       2.741   6.170  19.493  0.00  0.00    +0.000 A 
ENDROOT
BRANCH   5   6
ATOM      6  C   UNL     1       3.964   5.758  18.787  0.00  0.00    +0.000 A 
ATOM      7  C   UNL     1       5.119   5.387  19.488  0.00  0.00    +0.000 A 
ATOM      8  C   UNL     1       6.280   4.989  18.816  0.00  0.00    +0.000 A 
ATOM      9  C   UNL     1       6.314   4.992  17.424  0.00  0.00    +0.000 A 
ATOM     10 CL   UNL     1       7.779   4.492  16.657  0.00  0.00    +0.000 Cl
ATOM     11  C   UNL     1       5.185   5.400  16.705  0.00  0.00    +0.000 A 
ATOM     12 CL   UNL     1       5.168   5.465  14.979  0.00  0.00    +0.000 Cl
ATOM     13  C   UNL     1       4.018   5.780  17.385  0.00  0.00    +0.000 A 
ENDBRANCH   5   6
BRANCH   3  14
ATOM     14  C   UNL     1       0.844   8.754  20.903  0.00  0.00    +0.000 A 
ATOM     15  C   UNL     1       0.865   9.886  20.075  0.00  0.00    +0.000 A 
ATOM     16  C   UNL     1       0.324  11.092  20.528  0.00  0.00    +0.000 A 
ATOM     17  C   UNL     1      -0.212  11.198  21.820  0.00  0.00    +0.000 A 
ATOM     18  C   UNL     1      -0.207  10.063  22.649  0.00  0.00    +0.000 A 
ATOM     19  C   UNL     1       0.295   8.843  22.189  0.00  0.00    +0.000 A 
BRANCH  17  20
ATOM     20  C   UNL     1      -0.792  12.500  22.316  0.00  0.00    +0.000 C 
ATOM     21  F   UNL     1      -1.821  12.963  21.553  0.00  0.00    +0.000 F 
ATOM     22  F   UNL     1      -1.282  12.405  23.583  0.00  0.00    +0.000 F 
ATOM     23  F   UNL     1       0.129  13.503  22.345  0.00  0.00    +0.000 F 
ENDBRANCH  17  20
ENDBRANCH   3  14
BRANCH   1  24
ATOM     24  C   UNL     1       1.554   3.875  20.083  0.00  0.00    +0.000 C 
BRANCH  24  28
ATOM     25  C   UNL     1       4.575   1.653  20.806  0.00  0.00    +0.000 C 
ATOM     26  N   UNL     1       3.540   2.384  20.095  0.00  0.00    +0.000 N 
ATOM     27  C   UNL     1       3.473   2.262  18.647  0.00  0.00    +0.000 C 
ATOM     28  C   UNL     1       2.617   3.101  20.858  0.00  0.00    +0.000 C 
ATOM     29  O   UNL     1       2.685   3.124  22.088  0.00  0.00    +0.000 OA
ENDBRANCH  24  28
ENDBRANCH   1  24
TORSDOF 5
ENDMDL
MODEL 6
REMARK VINA RESULT:      -7.9      1.019      1.992
REMARK  Name = 
REMARK  7 active torsions:
REMARK  status: ('A' for Active; 'I' for Inactive)
REMARK    1  A    between atoms: C_1  and  N_2
REMARK    2  A    between atoms: N_2  and  C_3
REMARK    3  A    between atoms: C_4  and  C_6
REMARK    4  A    between atoms: C_6  and  C_7
REMARK    5  A    between atoms: N_9  and  C_10
REMARK    6  A    between atoms: C_13  and  C_14
REMARK    7  A    between atoms: C_21  and  C_22
REMARK                            x       y       z     vdW  Elec       q    Type
REMARK                         _______ _______ _______ _____ _____    ______ ____
ROOT
ATOM      1  C   UNL     1       1.671   5.416  20.159  0.00  0.00    +0.000 A 
ATOM      2  C   UNL     1       0.845   6.332  20.778  0.00  0.00    +0.000 A 
ATOM      3  N   UNL     1       1.311   7.583  20.463  0.00  0.00    +0.000 N 
ATOM      4  N   UNL     1       2.360   7.521  19.611  0.00  0.00    +0.000 NA
ATOM      5  C   UNL     1       2.680   6.217  19.535  0.00  0.00    +0.000 A 
ENDROOT
BRANCH   5   6
ATOM      6  C   UNL     1       3.903   5.792  18.836  0.00  0.00    +0.000 A 
ATOM      7  C   UNL     1       5.040   5.383  19.544  0.00  0.00    +0.000 A 
ATOM      8  C   UNL     1       6.200   4.972  18.878  0.00  0.00    +0.000 A 
ATOM      9  C   UNL     1       6.252   5.002  17.486  0.00  0.00    +0.000 A 
ATOM     10 CL   UNL     1       7.715   4.485  16.727  0.00  0.00    +0.000 Cl
ATOM     11  C   UNL     1       5.141   5.449  16.762  0.00  0.00    +0.000 A 
ATOM     12 CL   UNL     1       5.147   5.547  15.038  0.00  0.00    +0.000 Cl
ATOM     13  C   UNL     1       3.974   5.840  17.436  0.00  0.00    +0.000 A 
ENDBRANCH   5   6
BRANCH   3  14
ATOM     14  C   UNL     1       0.793   8.824  20.917  0.00  0.00    +0.000 A 
ATOM     15  C   UNL     1       0.221   8.924  22.193  0.00  0.00    +0.000 A 
ATOM     16  C   UNL     1      -0.262  10.153  22.648  0.00  0.00    +0.000 A 
ATOM     17  C   UNL     1      -0.216  11.290  21.827  0.00  0.00    +0.000 A 
ATOM     18  C   UNL     1       0.338  11.173  20.541  0.00  0.00    +0.000 A 
ATOM     19  C   UNL     1       0.861   9.957  20.095  0.00  0.00    +0.000 A 
BRANCH  17  20
ATOM     20  C   UNL     1      -0.743  12.618  22.311  0.00  0.00    +0.000 C 
ATOM     21  F   UNL     1       0.198  13.603  22.330  0.00  0.00    +0.000 F 
ATOM     22  F   UNL     1      -1.760  13.091  21.537  0.00  0.00    +0.000 F 
ATOM     23  F   UNL     1      -1.237  12.553  23.579  0.00  0.00    +0.000 F 
ENDBRANCH  17  20
ENDBRANCH   3  14
BRANCH   1  24
ATOM     24  C   UNL     1       1.480   3.933  20.144  0.00  0.00    +0.000 C 
BRANCH  24  28
ATOM     25  C   UNL     1       4.499   1.692  20.813  0.00  0.00    +0.000 C 
ATOM     26  N   UNL     1       3.451   2.423  20.122  0.00  0.00    +0.000 N 
ATOM     27  C   UNL     1       3.342   2.283  18.678  0.00  0.00    +0.000 C 
ATOM     28  C   UNL     1       2.557   3.159  20.900  0.00  0.00    +0.000 C 
ATOM     29  O   UNL     1       2.660   3.198  22.128  0.00  0.00    +0.000 OA
ENDBRANCH  24  28
ENDBRANCH   1  24
TORSDOF 5
ENDMDL
MODEL 7
REMARK VINA RESULT:      -7.9      0.862      1.298
REMARK  Name = 
REMARK  7 active torsions:
REMARK  status: ('A' for Active; 'I' for Inactive)
REMARK    1  A    between atoms: C_1  and  N_2
REMARK    2  A    between atoms: N_2  and  C_3
REMARK    3  A    between atoms: C_4  and  C_6
REMARK    4  A    between atoms: C_6  and  C_7
REMARK    5  A    between atoms: N_9  and  C_10
REMARK    6  A    between atoms: C_13  and  C_14
REMARK    7  A    between atoms: C_21  and  C_22
REMARK                            x       y       z     vdW  Elec       q    Type
REMARK                         _______ _______ _______ _____ _____    ______ ____
ROOT
ATOM      1  C   UNL     1       1.797   5.217  20.049  0.00  0.00    +0.000 A 
ATOM      2  C   UNL     1       0.980   6.098  20.728  0.00  0.00    +0.000 A 
ATOM      3  N   UNL     1       1.365   7.368  20.379  0.00  0.00    +0.000 N 
ATOM      4  N   UNL     1       2.349   7.349  19.452  0.00  0.00    +0.000 NA
ATOM      5  C   UNL     1       2.720   6.061  19.351  0.00  0.00    +0.000 A 
ENDROOT
BRANCH   5   6
ATOM      6  C   UNL     1       3.905   5.688  18.563  0.00  0.00    +0.000 A 
ATOM      7  C   UNL     1       3.784   5.213  17.251  0.00  0.00    +0.000 A 
ATOM      8  C   UNL     1       4.912   4.865  16.498  0.00  0.00    +0.000 A 
ATOM      9  C   UNL     1       6.181   4.953  17.065  0.00  0.00    +0.000 A 
ATOM     10 CL   UNL     1       7.530   4.505  16.083  0.00  0.00    +0.000 Cl
ATOM     11  C   UNL     1       6.319   5.383  18.389  0.00  0.00    +0.000 A 
ATOM     12 CL   UNL     1       7.857   5.479  19.169  0.00  0.00    +0.000 Cl
ATOM     13  C   UNL     1       5.185   5.750  19.131  0.00  0.00    +0.000 A 
ENDBRANCH   5   6
BRANCH   3  14
ATOM     14  C   UNL     1       0.828   8.586  20.871  0.00  0.00    +0.000 A 
ATOM     15  C   UNL     1       0.623   9.667  20.002  0.00  0.00    +0.000 A 
ATOM     16  C   UNL     1       0.067  10.855  20.484  0.00  0.00    +0.000 A 
ATOM     17  C   UNL     1      -0.257  10.996  21.841  0.00  0.00    +0.000 A 
ATOM     18  C   UNL     1      -0.025   9.914  22.708  0.00  0.00    +0.000 A 
ATOM     19  C   UNL     1       0.491   8.709  22.226  0.00  0.00    +0.000 A 
BRANCH  17  20
ATOM     20  C   UNL     1      -0.850  12.280  22.368  0.00  0.00    +0.000 C 
ATOM     21  F   UNL     1      -1.375  12.163  23.620  0.00  0.00    +0.000 F 
ATOM     22  F   UNL     1       0.065  13.287  22.442  0.00  0.00    +0.000 F 
ATOM     23  F   UNL     1      -1.860  12.748  21.584  0.00  0.00    +0.000 F 
ENDBRANCH  17  20
ENDBRANCH   3  14
BRANCH   1  24
ATOM     24  C   UNL     1       1.671   3.728  20.048  0.00  0.00    +0.000 C 
BRANCH  24  28
ATOM     25  C   UNL     1       4.722   1.612  20.942  0.00  0.00    +0.000 C 
ATOM     26  N   UNL     1       3.689   2.287  20.175  0.00  0.00    +0.000 N 
ATOM     27  C   UNL     1       3.663   2.102  18.732  0.00  0.00    +0.000 C 
ATOM     28  C   UNL     1       2.731   3.013  20.882  0.00  0.00    +0.000 C 
ATOM     29  O   UNL     1       2.765   3.090  22.112  0.00  0.00    +0.000 OA
ENDBRANCH  24  28
ENDBRANCH   1  24
TORSDOF 5
ENDMDL
MODEL 8
REMARK VINA RESULT:      -7.7      1.319      1.735
REMARK  Name = 
REMARK  7 active torsions:
REMARK  status: ('A' for Active; 'I' for Inactive)
REMARK    1  A    between atoms: C_1  and  N_2
REMARK    2  A    between atoms: N_2  and  C_3
REMARK    3  A    between atoms: C_4  and  C_6
REMARK    4  A    between atoms: C_6  and  C_7
REMARK    5  A    between atoms: N_9  and  C_10
REMARK    6  A    between atoms: C_13  and  C_14
REMARK    7  A    between atoms: C_21  and  C_22
REMARK                            x       y       z     vdW  Elec       q    Type
REMARK                         _______ _______ _______ _____ _____    ______ ____
ROOT
ATOM      1  C   UNL     1       2.292   6.293  20.184  0.00  0.00    +0.000 A 
ATOM      2  C   UNL     1       1.488   7.307  20.662  0.00  0.00    +0.000 A 
ATOM      3  N   UNL     1       1.499   8.314  19.729  0.00  0.00    +0.000 N 
ATOM      4  N   UNL     1       2.219   7.969  18.638  0.00  0.00    +0.000 NA
ATOM      5  C   UNL     1       2.823   6.812  18.959  0.00  0.00    +0.000 A 
ENDROOT
BRANCH   5   6
ATOM      6  C   UNL     1       3.841   6.233  18.069  0.00  0.00    +0.000 A 
ATOM      7  C   UNL     1       3.580   5.078  17.321  0.00  0.00    +0.000 A 
ATOM      8  C   UNL     1       4.546   4.531  16.469  0.00  0.00    +0.000 A 
ATOM      9  C   UNL     1       5.808   5.115  16.383  0.00  0.00    +0.000 A 
ATOM     10 CL   UNL     1       6.956   4.388  15.315  0.00  0.00    +0.000 Cl
ATOM     11  C   UNL     1       6.103   6.243  17.155  0.00  0.00    +0.000 A 
ATOM     12 CL   UNL     1       7.657   6.996  17.127  0.00  0.00    +0.000 Cl
ATOM     13  C   UNL     1       5.122   6.798  17.992  0.00  0.00    +0.000 A 
ENDBRANCH   5   6
BRANCH   3  14
ATOM     14  C   UNL     1       0.844   9.569  19.824  0.00  0.00    +0.000 A 
ATOM     15  C   UNL     1       0.560  10.304  18.664  0.00  0.00    +0.000 A 
ATOM     16  C   UNL     1      -0.110  11.526  18.759  0.00  0.00    +0.000 A 
ATOM     17  C   UNL     1      -0.473  12.050  20.008  0.00  0.00    +0.000 A 
ATOM     18  C   UNL     1      -0.163  11.316  21.166  0.00  0.00    +0.000 A 
ATOM     19  C   UNL     1       0.470  10.073  21.076  0.00  0.00    +0.000 A 
BRANCH  17  20
ATOM     20  C   UNL     1      -1.191  13.373  20.116  0.00  0.00    +0.000 C 
ATOM     21  F   UNL     1      -0.955  14.026  21.289  0.00  0.00    +0.000 F 
ATOM     22  F   UNL     1      -0.835  14.243  19.129  0.00  0.00    +0.000 F 
ATOM     23  F   UNL     1      -2.544  13.242  20.030  0.00  0.00    +0.000 F 
ENDBRANCH  17  20
ENDBRANCH   3  14
BRANCH   1  24
ATOM     24  C   UNL     1       2.492   4.957  20.824  0.00  0.00    +0.000 C 
BRANCH  24  28
ATOM     25  C   UNL     1       1.930   1.614  19.064  0.00  0.00    +0.000 C 
ATOM     26  N   UNL     1       2.581   2.729  19.731  0.00  0.00    +0.000 N 
ATOM     27  C   UNL     1       4.026   2.693  19.895  0.00  0.00    +0.000 C 
ATOM     28  C   UNL     1       1.783   3.811  20.107  0.00  0.00    +0.000 C 
ATOM     29  O   UNL     1       0.570   3.816  19.892  0.00  0.00    +0.000 OA
ENDBRANCH  24  28
ENDBRANCH   1  24
TORSDOF 5
ENDMDL
MODEL 9
REMARK VINA RESULT:      -7.7      1.343      1.840
REMARK  Name = 
REMARK  7 active torsions:
REMARK  status: ('A' for Active; 'I' for Inactive)
REMARK    1  A    between atoms: C_1  and  N_2
REMARK    2  A    between atoms: N_2  and  C_3
REMARK    3  A    between atoms: C_4  and  C_6
REMARK    4  A    between atoms: C_6  and  C_7
REMARK    5  A    between atoms: N_9  and  C_10
REMARK    6  A    between atoms: C_13  and  C_14
REMARK    7  A    between atoms: C_21  and  C_22
REMARK                            x       y       z     vdW  Elec       q    Type
REMARK                         _______ _______ _______ _____ _____    ______ ____
ROOT
ATOM      1  C   UNL     1       2.287   6.323  20.174  0.00  0.00    +0.000 A 
ATOM      2  C   UNL     1       1.474   7.333  20.648  0.00  0.00    +0.000 A 
ATOM      3  N   UNL     1       1.489   8.341  19.717  0.00  0.00    +0.000 N 
ATOM      4  N   UNL     1       2.219   8.002  18.631  0.00  0.00    +0.000 NA
ATOM      5  C   UNL     1       2.826   6.847  18.955  0.00  0.00    +0.000 A 
ENDROOT
BRANCH   5   6
ATOM      6  C   UNL     1       3.854   6.274  18.072  0.00  0.00    +0.000 A 
ATOM      7  C   UNL     1       3.610   5.110  17.333  0.00  0.00    +0.000 A 
ATOM      8  C   UNL     1       4.585   4.569  16.488  0.00  0.00    +0.000 A 
ATOM      9  C   UNL     1       5.840   5.169  16.400  0.00  0.00    +0.000 A 
ATOM     10 CL   UNL     1       6.999   4.449  15.340  0.00  0.00    +0.000 Cl
ATOM     11  C   UNL     1       6.118   6.308  17.163  0.00  0.00    +0.000 A 
ATOM     12 CL   UNL     1       7.661   7.081  17.133  0.00  0.00    +0.000 Cl
ATOM     13  C   UNL     1       5.127   6.856  17.993  0.00  0.00    +0.000 A 
ENDBRANCH   5   6
BRANCH   3  14
ATOM     14  C   UNL     1       0.827   9.594  19.809  0.00  0.00    +0.000 A 
ATOM     15  C   UNL     1       0.118   9.932  20.970  0.00  0.00    +0.000 A 
ATOM     16  C   UNL     1      -0.507  11.177  21.069  0.00  0.00    +0.000 A 
ATOM     17  C   UNL     1      -0.467  12.086  20.001  0.00  0.00    +0.000 A 
ATOM     18  C   UNL     1       0.227  11.727  18.833  0.00  0.00    +0.000 A 
ATOM     19  C   UNL     1       0.890  10.501  18.743  0.00  0.00    +0.000 A 
BRANCH  17  20
ATOM     20  C   UNL     1      -1.148  13.430  20.100  0.00  0.00    +0.000 C 
ATOM     21  F   UNL     1      -0.784  14.297  19.114  0.00  0.00    +0.000 F 
ATOM     22  F   UNL     1      -2.505  13.335  20.029  0.00  0.00    +0.000 F 
ATOM     23  F   UNL     1      -0.878  14.067  21.273  0.00  0.00    +0.000 F 
ENDBRANCH  17  20
ENDBRANCH   3  14
BRANCH   1  24
ATOM     24  C   UNL     1       2.488   4.987  20.814  0.00  0.00    +0.000 C 
BRANCH  24  28
ATOM     25  C   UNL     1       1.897   1.636  19.080  0.00  0.00    +0.000 C 
ATOM     26  N   UNL     1       2.557   2.749  19.740  0.00  0.00    +0.000 N 
ATOM     27  C   UNL     1       4.001   2.698  19.911  0.00  0.00    +0.000 C 
ATOM     28  C   UNL     1       1.770   3.843  20.103  0.00  0.00    +0.000 C 
ATOM     29  O   UNL     1       0.558   3.859  19.882  0.00  0.00    +0.000 OA
ENDBRANCH  24  28
ENDBRANCH   1  24
TORSDOF 5
ENDMDL
