MODEL 1
REMARK VINA RESULT:      -7.9      0.000      0.000
REMARK  Name = 
REMARK  10 active torsions:
REMARK  status: ('A' for Active; 'I' for Inactive)
REMARK    1  A    between atoms: C_1  and  C_2
REMARK    2  A    between atoms: C_2  and  C_3
REMARK    3  A    between atoms: C_3  and  C_4
REMARK    4  A    between atoms: C_4  and  C_5
REMARK    5  A    between atoms: C_6  and  C_7
REMARK    6  A    between atoms: N_16  and  C_17
REMARK    7  A    between atoms: C_17  and  C_18
REMARK    8  A    between atoms: C_18  and  C_19
REMARK    9  A    between atoms: C_24  and  O_25
REMARK   10  A    between atoms: O_25  and  C_26
REMARK                            x       y       z     vdW  Elec       q    Type
REMARK                         _______ _______ _______ _____ _____    ______ ____
ROOT
ATOM      1  C   UNL     1       2.407   6.210  19.699  0.00  0.00    +0.000 A 
ATOM      2  C   UNL     1       2.186   7.562  19.435  0.00  0.00    +0.000 A 
ATOM      3  N   UNL     1       2.786   7.928  18.251  0.00  0.00    +0.000 NA
ATOM      4  C   UNL     1       3.403   6.856  17.821  0.00  0.00    +0.000 A 
ATOM      5  N   UNL     1       3.259   5.806  18.686  0.00  0.00    +0.000 N 
ENDROOT
BRANCH   2   6
ATOM      6  C   UNL     1       1.405   8.516  20.211  0.00  0.00    +0.000 A 
ATOM      7  C   UNL     1       0.682   9.553  19.609  0.00  0.00    +0.000 A 
ATOM      8  C   UNL     1      -0.073  10.443  20.379  0.00  0.00    +0.000 A 
ATOM      9  C   UNL     1      -0.135  10.283  21.758  0.00  0.00    +0.000 A 
ATOM     10 BR   UNL     1      -1.196  11.459  22.788  0.00  0.00    +0.000 Br
ATOM     11  C   UNL     1       0.562   9.249  22.379  0.00  0.00    +0.000 A 
ATOM     12  C   UNL     1       1.331   8.371  21.606  0.00  0.00    +0.000 A 
ENDBRANCH   2   6
BRANCH   1  13
ATOM     13  C   UNL     1       1.891   5.295  20.770  0.00  0.00    +0.000 C 
BRANCH  13  14
ATOM     14  C   UNL     1       0.789   4.371  20.247  0.00  0.00    +0.000 C 
BRANCH  14  16
ATOM     15  C   UNL     1       1.901   2.668  21.710  0.00  0.00    +0.000 C 
ATOM     16  C   UNL     1       1.167   2.900  20.400  0.00  0.00    +0.000 C 
ENDBRANCH  14  16
ENDBRANCH  13  14
ENDBRANCH   1  13
BRANCH   5  17
ATOM     17  C   UNL     1       3.858   4.488  18.526  0.00  0.00    +0.000 C 
BRANCH  17  18
ATOM     18  C   UNL     1       5.372   4.501  18.289  0.00  0.00    +0.000 C 
BRANCH  18  19
ATOM     19  C   UNL     1       5.866   4.576  16.862  0.00  0.00    +0.000 A 
ATOM     20  C   UNL     1       5.249   3.807  15.850  0.00  0.00    +0.000 A 
ATOM     21  C   UNL     1       5.707   3.821  14.530  0.00  0.00    +0.000 A 
ATOM     22  C   UNL     1       6.786   4.619  14.185  0.00  0.00    +0.000 A 
ATOM     23  C   UNL     1       7.411   5.387  15.164  0.00  0.00    +0.000 A 
ATOM     24  C   UNL     1       6.963   5.380  16.496  0.00  0.00    +0.000 A 
BRANCH  24  25
ATOM     25  O   UNL     1       7.779   6.101  17.328  0.00  0.00    +0.000 OA
ATOM     26  C   UNL     1       7.518   7.484  17.515  0.00  0.00    +0.000 C 
ENDBRANCH  24  25
ENDBRANCH  18  19
ENDBRANCH  17  18
ENDBRANCH   5  17
TORSDOF 8
ENDMDL
MODEL 2
REMARK VINA RESULT:      -7.7      0.853      1.325
REMARK  Name = 
REMARK  10 active torsions:
REMARK  status: ('A' for Active; 'I' for Inactive)
REMARK    1  A    between atoms: C_1  and  C_2
REMARK    2  A    between atoms: C_2  and  C_3
REMARK    3  A    between atoms: C_3  and  C_4
REMARK    4  A    between atoms: C_4  and  C_5
REMARK    5  A    between atoms: C_6  and  C_7
REMARK    6  A    between atoms: N_16  and  C_17
REMARK    7  A    between atoms: C_17  and  C_18
REMARK    8  A    between atoms: C_18  and  C_19
REMARK    9  A    between atoms: C_24  and  O_25
REMARK   10  A    between atoms: O_25  and  C_26
REMARK                            x       y       z     vdW  Elec       q    Type
REMARK                         _______ _______ _______ _____ _____    ______ ____
ROOT
ATOM      1  C   UNL     1       2.317   6.262  19.907  0.00  0.00    +0.000 A 
ATOM      2  C   UNL     1       2.031   7.600  19.635  0.00  0.00    +0.000 A 
ATOM      3  N   UNL     1       2.606   7.985  18.446  0.00  0.00    +0.000 NA
ATOM      4  C   UNL     1       3.270   6.941  18.018  0.00  0.00    +0.000 A 
ATOM      5  N   UNL     1       3.180   5.891  18.891  0.00  0.00    +0.000 N 
ENDROOT
BRANCH   2   6
ATOM      6  C   UNL     1       1.211   8.521  20.410  0.00  0.00    +0.000 A 
ATOM      7  C   UNL     1       1.183   8.500  21.810  0.00  0.00    +0.000 A 
ATOM      8  C   UNL     1       0.399   9.408  22.527  0.00  0.00    +0.000 A 
ATOM      9  C   UNL     1      -0.342  10.369  21.848  0.00  0.00    +0.000 A 
ATOM     10 BR   UNL     1      -1.360  11.625  22.825  0.00  0.00    +0.000 Br
ATOM     11  C   UNL     1      -0.318  10.421  20.457  0.00  0.00    +0.000 A 
ATOM     12  C   UNL     1       0.454   9.498  19.742  0.00  0.00    +0.000 A 
ENDBRANCH   2   6
BRANCH   1  13
ATOM     13  C   UNL     1       1.850   5.330  20.986  0.00  0.00    +0.000 C 
BRANCH  13  14
ATOM     14  C   UNL     1       1.004   4.185  20.424  0.00  0.00    +0.000 C 
BRANCH  14  16
ATOM     15  C   UNL     1       2.646   2.628  21.501  0.00  0.00    +0.000 C 
ATOM     16  C   UNL     1       1.175   2.907  21.241  0.00  0.00    +0.000 C 
ENDBRANCH  14  16
ENDBRANCH  13  14
ENDBRANCH   1  13
BRANCH   5  17
ATOM     17  C   UNL     1       3.839   4.602  18.735  0.00  0.00    +0.000 C 
BRANCH  17  18
ATOM     18  C   UNL     1       3.840   4.055  17.303  0.00  0.00    +0.000 C 
BRANCH  18  19
ATOM     19  C   UNL     1       5.050   4.333  16.440  0.00  0.00    +0.000 A 
ATOM     20  C   UNL     1       4.939   4.336  15.031  0.00  0.00    +0.000 A 
ATOM     21  C   UNL     1       6.046   4.547  14.205  0.00  0.00    +0.000 A 
ATOM     22  C   UNL     1       7.291   4.777  14.768  0.00  0.00    +0.000 A 
ATOM     23  C   UNL     1       7.426   4.780  16.153  0.00  0.00    +0.000 A 
ATOM     24  C   UNL     1       6.323   4.565  16.997  0.00  0.00    +0.000 A 
BRANCH  24  25
ATOM     25  O   UNL     1       6.679   4.484  18.317  0.00  0.00    +0.000 OA
ATOM     26  C   UNL     1       7.522   5.487  18.864  0.00  0.00    +0.000 C 
ENDBRANCH  24  25
ENDBRANCH  18  19
ENDBRANCH  17  18
ENDBRANCH   5  17
TORSDOF 8
ENDMDL
MODEL 3
REMARK VINA RESULT:      -7.7      1.185      1.375
REMARK  Name = 
REMARK  10 active torsions:
REMARK  status: ('A' for Active; 'I' for Inactive)
REMARK    1  A    between atoms: C_1  and  C_2
REMARK    2  A    between atoms: C_2  and  C_3
REMARK    3  A    between atoms: C_3  and  C_4
REMARK    4  A    between atoms: C_4  and  C_5
REMARK    5  A    between atoms: C_6  and  C_7
REMARK    6  A    between atoms: N_16  and  C_17
REMARK    7  A    between atoms: C_17  and  C_18
REMARK    8  A    between atoms: C_18  and  C_19
REMARK    9  A    between atoms: C_24  and  O_25
REMARK   10  A    between atoms: O_25  and  C_26
REMARK                            x       y       z     vdW  Elec       q    Type
REMARK                         _______ _______ _______ _____ _____    ______ ____
ROOT
ATOM      1  C   UNL     1       2.521   6.668  19.525  0.00  0.00    +0.000 A 
ATOM      2  C   UNL     1       2.298   7.855  18.826  0.00  0.00    +0.000 A 
ATOM      3  N   UNL     1       3.157   7.953  17.755  0.00  0.00    +0.000 NA
ATOM      4  C   UNL     1       3.922   6.892  17.816  0.00  0.00    +0.000 A 
ATOM      5  N   UNL     1       3.622   6.112  18.899  0.00  0.00    +0.000 N 
ENDROOT
BRANCH   2   6
ATOM      6  C   UNL     1       1.294   8.878  19.084  0.00  0.00    +0.000 A 
ATOM      7  C   UNL     1       0.600   9.520  18.051  0.00  0.00    +0.000 A 
ATOM      8  C   UNL     1      -0.371  10.486  18.330  0.00  0.00    +0.000 A 
ATOM      9  C   UNL     1      -0.679  10.796  19.650  0.00  0.00    +0.000 A 
ATOM     10 BR   UNL     1      -2.027  12.066  20.021  0.00  0.00    +0.000 Br
ATOM     11  C   UNL     1      -0.014  10.159  20.695  0.00  0.00    +0.000 A 
ATOM     12  C   UNL     1       0.970   9.206  20.410  0.00  0.00    +0.000 A 
ENDBRANCH   2   6
BRANCH   1  13
ATOM     13  C   UNL     1       1.802   6.025  20.674  0.00  0.00    +0.000 C 
BRANCH  13  14
ATOM     14  C   UNL     1       0.978   4.816  20.226  0.00  0.00    +0.000 C 
BRANCH  14  16
ATOM     15  C   UNL     1       1.594   2.395  20.025  0.00  0.00    +0.000 C 
ATOM     16  C   UNL     1       1.376   3.553  20.985  0.00  0.00    +0.000 C 
ENDBRANCH  14  16
ENDBRANCH  13  14
ENDBRANCH   1  13
BRANCH   5  17
ATOM     17  C   UNL     1       4.315   4.889  19.279  0.00  0.00    +0.000 C 
BRANCH  17  18
ATOM     18  C   UNL     1       4.445   3.854  18.156  0.00  0.00    +0.000 C 
BRANCH  18  19
ATOM     19  C   UNL     1       5.337   4.191  16.982  0.00  0.00    +0.000 A 
ATOM     20  C   UNL     1       4.831   4.147  15.663  0.00  0.00    +0.000 A 
ATOM     21  C   UNL     1       5.640   4.411  14.555  0.00  0.00    +0.000 A 
ATOM     22  C   UNL     1       6.973   4.743  14.739  0.00  0.00    +0.000 A 
ATOM     23  C   UNL     1       7.494   4.795  16.028  0.00  0.00    +0.000 A 
ATOM     24  C   UNL     1       6.694   4.527  17.152  0.00  0.00    +0.000 A 
BRANCH  24  25
ATOM     25  O   UNL     1       7.415   4.508  18.317  0.00  0.00    +0.000 OA
ATOM     26  C   UNL     1       7.753   5.741  18.935  0.00  0.00    +0.000 C 
ENDBRANCH  24  25
ENDBRANCH  18  19
ENDBRANCH  17  18
ENDBRANCH   5  17
TORSDOF 8
ENDMDL
MODEL 4
REMARK VINA RESULT:      -7.6      2.204      4.118
REMARK  Name = 
REMARK  10 active torsions:
REMARK  status: ('A' for Active; 'I' for Inactive)
REMARK    1  A    between atoms: C_1  and  C_2
REMARK    2  A    between atoms: C_2  and  C_3
REMARK    3  A    between atoms: C_3  and  C_4
REMARK    4  A    between atoms: C_4  and  C_5
REMARK    5  A    between atoms: C_6  and  C_7
REMARK    6  A    between atoms: N_16  and  C_17
REMARK    7  A    between atoms: C_17  and  C_18
REMARK    8  A    between atoms: C_18  and  C_19
REMARK    9  A    between atoms: C_24  and  O_25
REMARK   10  A    between atoms: O_25  and  C_26
REMARK                            x       y       z     vdW  Elec       q    Type
REMARK                         _______ _______ _______ _____ _____    ______ ____
ROOT
ATOM      1  C   UNL     1       1.363   8.849  20.042  0.00  0.00    +0.000 A 
ATOM      2  C   UNL     1       0.992   9.954  19.275  0.00  0.00    +0.000 A 
ATOM      3  N   UNL     1       1.287   9.742  17.948  0.00  0.00    +0.000 NA
ATOM      4  C   UNL     1       1.868   8.570  17.897  0.00  0.00    +0.000 A 
ATOM      5  N   UNL     1       1.995   8.012  19.139  0.00  0.00    +0.000 N 
ENDROOT
BRANCH   2   6
ATOM      6  C   UNL     1       0.337  11.177  19.717  0.00  0.00    +0.000 A 
ATOM      7  C   UNL     1       1.018  12.174  20.428  0.00  0.00    +0.000 A 
ATOM      8  C   UNL     1       0.366  13.346  20.824  0.00  0.00    +0.000 A 
ATOM      9  C   UNL     1      -0.967  13.545  20.484  0.00  0.00    +0.000 A 
ATOM     10 BR   UNL     1      -1.827  15.152  20.979  0.00  0.00    +0.000 Br
ATOM     11  C   UNL     1      -1.661  12.576  19.763  0.00  0.00    +0.000 A 
ATOM     12  C   UNL     1      -1.010  11.396  19.385  0.00  0.00    +0.000 A 
ENDBRANCH   2   6
BRANCH   1  13
ATOM     13  C   UNL     1       1.165   8.514  21.491  0.00  0.00    +0.000 C 
BRANCH  13  14
ATOM     14  C   UNL     1      -0.261   8.822  21.957  0.00  0.00    +0.000 C 
BRANCH  14  16
ATOM     15  C   UNL     1      -1.211  10.822  23.129  0.00  0.00    +0.000 C 
ATOM     16  C   UNL     1      -0.267   9.638  23.247  0.00  0.00    +0.000 C 
ENDBRANCH  14  16
ENDBRANCH  13  14
ENDBRANCH   1  13
BRANCH   5  17
ATOM     17  C   UNL     1       2.636   6.738  19.433  0.00  0.00    +0.000 C 
BRANCH  17  18
ATOM     18  C   UNL     1       2.470   5.674  18.342  0.00  0.00    +0.000 C 
BRANCH  18  19
ATOM     19  C   UNL     1       3.677   5.330  17.499  0.00  0.00    +0.000 A 
ATOM     20  C   UNL     1       4.546   6.347  17.044  0.00  0.00    +0.000 A 
ATOM     21  C   UNL     1       5.646   6.067  16.229  0.00  0.00    +0.000 A 
ATOM     22  C   UNL     1       5.914   4.758  15.861  0.00  0.00    +0.000 A 
ATOM     23  C   UNL     1       5.074   3.738  16.297  0.00  0.00    +0.000 A 
ATOM     24  C   UNL     1       3.961   4.005  17.114  0.00  0.00    +0.000 A 
BRANCH  24  25
ATOM     25  O   UNL     1       3.193   2.892  17.334  0.00  0.00    +0.000 OA
ATOM     26  C   UNL     1       3.488   2.063  18.448  0.00  0.00    +0.000 C 
ENDBRANCH  24  25
ENDBRANCH  18  19
ENDBRANCH  17  18
ENDBRANCH   5  17
TORSDOF 8
ENDMDL
MODEL 5
REMARK VINA RESULT:      -7.5      3.130      5.276
REMARK  Name = 
REMARK  10 active torsions:
REMARK  status: ('A' for Active; 'I' for Inactive)
REMARK    1  A    between atoms: C_1  and  C_2
REMARK    2  A    between atoms: C_2  and  C_3
REMARK    3  A    between atoms: C_3  and  C_4
REMARK    4  A    between atoms: C_4  and  C_5
REMARK    5  A    between atoms: C_6  and  C_7
REMARK    6  A    between atoms: N_16  and  C_17
REMARK    7  A    between atoms: C_17  and  C_18
REMARK    8  A    between atoms: C_18  and  C_19
REMARK    9  A    between atoms: C_24  and  O_25
REMARK   10  A    between atoms: O_25  and  C_26
REMARK                            x       y       z     vdW  Elec       q    Type
REMARK                         _______ _______ _______ _____ _____    ______ ____
ROOT
ATOM      1  C   UNL     1       1.383   8.949  19.880  0.00  0.00    +0.000 A 
ATOM      2  C   UNL     1       0.869  10.031  19.163  0.00  0.00    +0.000 A 
ATOM      3  N   UNL     1       1.134   9.890  17.820  0.00  0.00    +0.000 NA
ATOM      4  C   UNL     1       1.833   8.788  17.710  0.00  0.00    +0.000 A 
ATOM      5  N   UNL     1       2.065   8.211  18.929  0.00  0.00    +0.000 N 
ENDROOT
BRANCH   2   6
ATOM      6  C   UNL     1       0.106  11.164  19.667  0.00  0.00    +0.000 A 
ATOM      7  C   UNL     1       0.704  12.206  20.386  0.00  0.00    +0.000 A 
ATOM      8  C   UNL     1      -0.051  13.291  20.843  0.00  0.00    +0.000 A 
ATOM      9  C   UNL     1      -1.409  13.357  20.555  0.00  0.00    +0.000 A 
ATOM     10 BR   UNL     1      -2.415  14.848  21.132  0.00  0.00    +0.000 Br
ATOM     11  C   UNL     1      -2.024  12.341  19.826  0.00  0.00    +0.000 A 
ATOM     12  C   UNL     1      -1.267  11.249  19.387  0.00  0.00    +0.000 A 
ENDBRANCH   2   6
BRANCH   1  13
ATOM     13  C   UNL     1       1.275   8.554  21.323  0.00  0.00    +0.000 C 
BRANCH  13  14
ATOM     14  C   UNL     1      -0.141   8.758  21.865  0.00  0.00    +0.000 C 
BRANCH  14  16
ATOM     15  C   UNL     1      -1.191  10.628  23.161  0.00  0.00    +0.000 C 
ATOM     16  C   UNL     1      -0.134   9.537  23.178  0.00  0.00    +0.000 C 
ENDBRANCH  14  16
ENDBRANCH  13  14
ENDBRANCH   1  13
BRANCH   5  17
ATOM     17  C   UNL     1       2.847   7.005  19.159  0.00  0.00    +0.000 C 
BRANCH  17  18
ATOM     18  C   UNL     1       2.225   5.723  18.591  0.00  0.00    +0.000 C 
BRANCH  18  19
ATOM     19  C   UNL     1       2.019   4.559  19.534  0.00  0.00    +0.000 A 
ATOM     20  C   UNL     1       2.187   4.727  20.926  0.00  0.00    +0.000 A 
ATOM     21  C   UNL     1       2.045   3.661  21.819  0.00  0.00    +0.000 A 
ATOM     22  C   UNL     1       1.716   2.403  21.342  0.00  0.00    +0.000 A 
ATOM     23  C   UNL     1       1.544   2.212  19.975  0.00  0.00    +0.000 A 
ATOM     24  C   UNL     1       1.687   3.273  19.064  0.00  0.00    +0.000 A 
BRANCH  24  25
ATOM     25  O   UNL     1       1.600   2.861  17.760  0.00  0.00    +0.000 OA
ATOM     26  C   UNL     1       2.788   2.487  17.078  0.00  0.00    +0.000 C 
ENDBRANCH  24  25
ENDBRANCH  18  19
ENDBRANCH  17  18
ENDBRANCH   5  17
TORSDOF 8
ENDMDL
MODEL 6
REMARK VINA RESULT:      -7.5      2.114      4.427
REMARK  Name = 
REMARK  10 active torsions:
REMARK  status: ('A' for Active; 'I' for Inactive)
REMARK    1  A    between atoms: C_1  and  C_2
REMARK    2  A    between atoms: C_2  and  C_3
REMARK    3  A    between atoms: C_3  and  C_4
REMARK    4  A    between atoms: C_4  and  C_5
REMARK    5  A    between atoms: C_6  and  C_7
REMARK    6  A    between atoms: N_16  and  C_17
REMARK    7  A    between atoms: C_17  and  C_18
REMARK    8  A    between atoms: C_18  and  C_19
REMARK    9  A    between atoms: C_24  and  O_25
REMARK   10  A    between atoms: O_25  and  C_26
REMARK                            x       y       z     vdW  Elec       q    Type
REMARK                         _______ _______ _______ _____ _____    ______ ____
ROOT
ATOM      1  C   UNL     1       1.084   8.993  19.883  0.00  0.00    +0.000 A 
ATOM      2  C   UNL     1       0.902  10.188  19.185  0.00  0.00    +0.000 A 
ATOM      3  N   UNL     1       1.538  10.137  17.965  0.00  0.00    +0.000 NA
ATOM      4  C   UNL     1       2.138   8.973  17.927  0.00  0.00    +0.000 A 
ATOM      5  N   UNL     1       1.948   8.266  19.083  0.00  0.00    +0.000 N 
ENDROOT
BRANCH   2   6
ATOM      6  C   UNL     1       0.127  11.355  19.583  0.00  0.00    +0.000 A 
ATOM      7  C   UNL     1      -1.256  11.436  19.384  0.00  0.00    +0.000 A 
ATOM      8  C   UNL     1      -1.977  12.562  19.793  0.00  0.00    +0.000 A 
ATOM      9  C   UNL     1      -1.321  13.606  20.435  0.00  0.00    +0.000 A 
ATOM     10 BR   UNL     1      -2.307  15.104  21.029  0.00  0.00    +0.000 Br
ATOM     11  C   UNL     1       0.052  13.542  20.660  0.00  0.00    +0.000 A 
ATOM     12  C   UNL     1       0.772  12.420  20.233  0.00  0.00    +0.000 A 
ENDBRANCH   2   6
BRANCH   1  13
ATOM     13  C   UNL     1       0.521   8.487  21.178  0.00  0.00    +0.000 C 
BRANCH  13  14
ATOM     14  C   UNL     1       1.042   9.284  22.376  0.00  0.00    +0.000 C 
BRANCH  14  16
ATOM     15  C   UNL     1      -0.965  10.641  23.016  0.00  0.00    +0.000 C 
ATOM     16  C   UNL     1      -0.048   9.501  23.423  0.00  0.00    +0.000 C 
ENDBRANCH  14  16
ENDBRANCH  13  14
ENDBRANCH   1  13
BRANCH   5  17
ATOM     17  C   UNL     1       2.518   6.960  19.379  0.00  0.00    +0.000 C 
BRANCH  17  18
ATOM     18  C   UNL     1       2.839   6.109  18.145  0.00  0.00    +0.000 C 
BRANCH  18  19
ATOM     19  C   UNL     1       2.743   4.606  18.276  0.00  0.00    +0.000 A 
ATOM     20  C   UNL     1       1.481   3.971  18.325  0.00  0.00    +0.000 A 
ATOM     21  C   UNL     1       1.358   2.589  18.489  0.00  0.00    +0.000 A 
ATOM     22  C   UNL     1       2.495   1.804  18.591  0.00  0.00    +0.000 A 
ATOM     23  C   UNL     1       3.749   2.405  18.545  0.00  0.00    +0.000 A 
ATOM     24  C   UNL     1       3.889   3.794  18.385  0.00  0.00    +0.000 A 
BRANCH  24  25
ATOM     25  O   UNL     1       5.192   4.206  18.486  0.00  0.00    +0.000 OA
ATOM     26  C   UNL     1       5.930   4.449  17.298  0.00  0.00    +0.000 C 
ENDBRANCH  24  25
ENDBRANCH  18  19
ENDBRANCH  17  18
ENDBRANCH   5  17
TORSDOF 8
ENDMDL
MODEL 7
REMARK VINA RESULT:      -7.5      3.163      5.249
REMARK  Name = 
REMARK  10 active torsions:
REMARK  status: ('A' for Active; 'I' for Inactive)
REMARK    1  A    between atoms: C_1  and  C_2
REMARK    2  A    between atoms: C_2  and  C_3
REMARK    3  A    between atoms: C_3  and  C_4
REMARK    4  A    between atoms: C_4  and  C_5
REMARK    5  A    between atoms: C_6  and  C_7
REMARK    6  A    between atoms: N_16  and  C_17
REMARK    7  A    between atoms: C_17  and  C_18
REMARK    8  A    between atoms: C_18  and  C_19
REMARK    9  A    between atoms: C_24  and  O_25
REMARK   10  A    between atoms: O_25  and  C_26
REMARK                            x       y       z     vdW  Elec       q    Type
REMARK                         _______ _______ _______ _____ _____    ______ ____
ROOT
ATOM      1  C   UNL     1       1.307   8.853  19.708  0.00  0.00    +0.000 A 
ATOM      2  C   UNL     1       0.969  10.017  19.016  0.00  0.00    +0.000 A 
ATOM      3  N   UNL     1       1.545  10.021  17.767  0.00  0.00    +0.000 NA
ATOM      4  C   UNL     1       2.259   8.925  17.703  0.00  0.00    +0.000 A 
ATOM      5  N   UNL     1       2.200   8.212  18.869  0.00  0.00    +0.000 N 
ENDROOT
BRANCH   2   6
ATOM      6  C   UNL     1       0.098  11.101  19.449  0.00  0.00    +0.000 A 
ATOM      7  C   UNL     1      -1.297  11.020  19.360  0.00  0.00    +0.000 A 
ATOM      8  C   UNL     1      -2.108  12.070  19.800  0.00  0.00    +0.000 A 
ATOM      9  C   UNL     1      -1.528  13.201  20.363  0.00  0.00    +0.000 A 
ATOM     10 BR   UNL     1      -2.631  14.597  21.000  0.00  0.00    +0.000 Br
ATOM     11  C   UNL     1      -0.144  13.300  20.478  0.00  0.00    +0.000 A 
ATOM     12  C   UNL     1       0.665  12.253  20.019  0.00  0.00    +0.000 A 
ENDBRANCH   2   6
BRANCH   1  13
ATOM     13  C   UNL     1       0.864   8.302  21.031  0.00  0.00    +0.000 C 
BRANCH  13  14
ATOM     14  C   UNL     1       1.087   9.302  22.168  0.00  0.00    +0.000 C 
BRANCH  14  16
ATOM     15  C   UNL     1      -0.843  10.645  23.035  0.00  0.00    +0.000 C 
ATOM     16  C   UNL     1      -0.095   9.327  23.135  0.00  0.00    +0.000 C 
ENDBRANCH  14  16
ENDBRANCH  13  14
ENDBRANCH   1  13
BRANCH   5  17
ATOM     17  C   UNL     1       2.916   6.973  19.140  0.00  0.00    +0.000 C 
BRANCH  17  18
ATOM     18  C   UNL     1       2.241   5.713  18.589  0.00  0.00    +0.000 C 
BRANCH  18  19
ATOM     19  C   UNL     1       2.019   4.555  19.537  0.00  0.00    +0.000 A 
ATOM     20  C   UNL     1       2.175   4.732  20.930  0.00  0.00    +0.000 A 
ATOM     21  C   UNL     1       2.020   3.673  21.829  0.00  0.00    +0.000 A 
ATOM     22  C   UNL     1       1.687   2.413  21.357  0.00  0.00    +0.000 A 
ATOM     23  C   UNL     1       1.527   2.214  19.989  0.00  0.00    +0.000 A 
ATOM     24  C   UNL     1       1.684   3.268  19.073  0.00  0.00    +0.000 A 
BRANCH  24  25
ATOM     25  O   UNL     1       1.607   2.848  17.771  0.00  0.00    +0.000 OA
ATOM     26  C   UNL     1       2.752   2.263  17.169  0.00  0.00    +0.000 C 
ENDBRANCH  24  25
ENDBRANCH  18  19
ENDBRANCH  17  18
ENDBRANCH   5  17
TORSDOF 8
ENDMDL
MODEL 8
REMARK VINA RESULT:      -7.4      0.901      2.017
REMARK  Name = 
REMARK  10 active torsions:
REMARK  status: ('A' for Active; 'I' for Inactive)
REMARK    1  A    between atoms: C_1  and  C_2
REMARK    2  A    between atoms: C_2  and  C_3
REMARK    3  A    between atoms: C_3  and  C_4
REMARK    4  A    between atoms: C_4  and  C_5
REMARK    5  A    between atoms: C_6  and  C_7
REMARK    6  A    between atoms: N_16  and  C_17
REMARK    7  A    between atoms: C_17  and  C_18
REMARK    8  A    between atoms: C_18  and  C_19
REMARK    9  A    between atoms: C_24  and  O_25
REMARK   10  A    between atoms: O_25  and  C_26
REMARK                            x       y       z     vdW  Elec       q    Type
REMARK                         _______ _______ _______ _____ _____    ______ ____
ROOT
ATOM      1  C   UNL     1       2.408   5.999  19.599  0.00  0.00    +0.000 A 
ATOM      2  C   UNL     1       2.202   7.340  19.270  0.00  0.00    +0.000 A 
ATOM      3  N   UNL     1       2.727   7.619  18.029  0.00  0.00    +0.000 NA
ATOM      4  C   UNL     1       3.284   6.506  17.622  0.00  0.00    +0.000 A 
ATOM      5  N   UNL     1       3.175   5.512  18.556  0.00  0.00    +0.000 N 
ENDROOT
BRANCH   2   6
ATOM      6  C   UNL     1       1.503   8.359  20.040  0.00  0.00    +0.000 A 
ATOM      7  C   UNL     1       1.004   9.528  19.452  0.00  0.00    +0.000 A 
ATOM      8  C   UNL     1       0.321  10.481  20.213  0.00  0.00    +0.000 A 
ATOM      9  C   UNL     1       0.103  10.256  21.567  0.00  0.00    +0.000 A 
ATOM     10 BR   UNL     1      -0.864  11.524  22.581  0.00  0.00    +0.000 Br
ATOM     11  C   UNL     1       0.574   9.094  22.173  0.00  0.00    +0.000 A 
ATOM     12  C   UNL     1       1.273   8.151  21.410  0.00  0.00    +0.000 A 
ENDBRANCH   2   6
BRANCH   1  13
ATOM     13  C   UNL     1       1.945   5.163  20.755  0.00  0.00    +0.000 C 
BRANCH  13  14
ATOM     14  C   UNL     1       0.789   4.239  20.364  0.00  0.00    +0.000 C 
BRANCH  14  16
ATOM     15  C   UNL     1       1.983   2.557  21.787  0.00  0.00    +0.000 C 
ATOM     16  C   UNL     1       1.166   2.768  20.524  0.00  0.00    +0.000 C 
ENDBRANCH  14  16
ENDBRANCH  13  14
ENDBRANCH   1  13
BRANCH   5  17
ATOM     17  C   UNL     1       3.728   4.171  18.433  0.00  0.00    +0.000 C 
BRANCH  17  18
ATOM     18  C   UNL     1       5.006   4.082  17.592  0.00  0.00    +0.000 C 
BRANCH  18  19
ATOM     19  C   UNL     1       6.118   5.064  17.888  0.00  0.00    +0.000 A 
ATOM     20  C   UNL     1       6.663   5.157  19.188  0.00  0.00    +0.000 A 
ATOM     21  C   UNL     1       7.661   6.082  19.504  0.00  0.00    +0.000 A 
ATOM     22  C   UNL     1       8.151   6.928  18.522  0.00  0.00    +0.000 A 
ATOM     23  C   UNL     1       7.632   6.855  17.234  0.00  0.00    +0.000 A 
ATOM     24  C   UNL     1       6.625   5.933  16.901  0.00  0.00    +0.000 A 
BRANCH  24  25
ATOM     25  O   UNL     1       6.162   6.098  15.623  0.00  0.00    +0.000 OA
ATOM     26  C   UNL     1       6.522   5.146  14.633  0.00  0.00    +0.000 C 
ENDBRANCH  24  25
ENDBRANCH  18  19
ENDBRANCH  17  18
ENDBRANCH   5  17
TORSDOF 8
ENDMDL
MODEL 9
REMARK VINA RESULT:      -7.4      3.420      6.628
REMARK  Name = 
REMARK  10 active torsions:
REMARK  status: ('A' for Active; 'I' for Inactive)
REMARK    1  A    between atoms: C_1  and  C_2
REMARK    2  A    between atoms: C_2  and  C_3
REMARK    3  A    between atoms: C_3  and  C_4
REMARK    4  A    between atoms: C_4  and  C_5
REMARK    5  A    between atoms: C_6  and  C_7
REMARK    6  A    between atoms: N_16  and  C_17
REMARK    7  A    between atoms: C_17  and  C_18
REMARK    8  A    between atoms: C_18  and  C_19
REMARK    9  A    between atoms: C_24  and  O_25
REMARK   10  A    between atoms: O_25  and  C_26
REMARK                            x       y       z     vdW  Elec       q    Type
REMARK                         _______ _______ _______ _____ _____    ______ ____
ROOT
ATOM      1  C   UNL     1       4.959   5.230  17.404  0.00  0.00    +0.000 A 
ATOM      2  C   UNL     1       6.283   5.577  17.136  0.00  0.00    +0.000 A 
ATOM      3  N   UNL     1       6.826   4.727  16.199  0.00  0.00    +0.000 NA
ATOM      4  C   UNL     1       5.890   3.851  15.932  0.00  0.00    +0.000 A 
ATOM      5  N   UNL     1       4.763   4.070  16.675  0.00  0.00    +0.000 N 
ENDROOT
BRANCH   2   6
ATOM      6  C   UNL     1       7.051   6.689  17.680  0.00  0.00    +0.000 A 
ATOM      7  C   UNL     1       7.928   6.534  18.760  0.00  0.00    +0.000 A 
ATOM      8  C   UNL     1       8.665   7.617  19.250  0.00  0.00    +0.000 A 
ATOM      9  C   UNL     1       8.552   8.861  18.640  0.00  0.00    +0.000 A 
ATOM     10 BR   UNL     1       9.587  10.309  19.274  0.00  0.00    +0.000 Br
ATOM     11  C   UNL     1       7.699   9.038  17.553  0.00  0.00    +0.000 A 
ATOM     12  C   UNL     1       6.950   7.955  17.078  0.00  0.00    +0.000 A 
ENDBRANCH   2   6
BRANCH   1  13
ATOM     13  C   UNL     1       3.895   5.881  18.237  0.00  0.00    +0.000 C 
BRANCH  13  14
ATOM     14  C   UNL     1       3.510   7.260  17.695  0.00  0.00    +0.000 C 
BRANCH  14  16
ATOM     15  C   UNL     1       1.848   9.126  17.880  0.00  0.00    +0.000 C 
ATOM     16  C   UNL     1       2.083   7.639  18.083  0.00  0.00    +0.000 C 
ENDBRANCH  14  16
ENDBRANCH  13  14
ENDBRANCH   1  13
BRANCH   5  17
ATOM     17  C   UNL     1       3.560   3.250  16.651  0.00  0.00    +0.000 C 
BRANCH  17  18
ATOM     18  C   UNL     1       3.501   2.173  17.741  0.00  0.00    +0.000 C 
BRANCH  18  19
ATOM     19  C   UNL     1       2.774   2.505  19.025  0.00  0.00    +0.000 A 
ATOM     20  C   UNL     1       1.406   2.857  19.003  0.00  0.00    +0.000 A 
ATOM     21  C   UNL     1       0.717   3.210  20.166  0.00  0.00    +0.000 A 
ATOM     22  C   UNL     1       1.376   3.204  21.385  0.00  0.00    +0.000 A 
ATOM     23  C   UNL     1       2.723   2.860  21.433  0.00  0.00    +0.000 A 
ATOM     24  C   UNL     1       3.431   2.506  20.271  0.00  0.00    +0.000 A 
BRANCH  24  25
ATOM     25  O   UNL     1       4.768   2.321  20.507  0.00  0.00    +0.000 OA
ATOM     26  C   UNL     1       5.215   1.053  20.962  0.00  0.00    +0.000 C 
ENDBRANCH  24  25
ENDBRANCH  18  19
ENDBRANCH  17  18
ENDBRANCH   5  17
TORSDOF 8
ENDMDL
