MODEL 1
REMARK VINA RESULT:      -7.5      0.000      0.000
REMARK  Name = 
REMARK  10 active torsions:
REMARK  status: ('A' for Active; 'I' for Inactive)
REMARK    1  A    between atoms: C_1  and  C_2
REMARK    2  A    between atoms: C_3  and  C_4
REMARK    3  A    between atoms: C_4  and  C_5
REMARK    4  A    between atoms: C_4  and  C_7
REMARK    5  A    between atoms: C_4  and  O_14
REMARK    6  A    between atoms: C_7  and  C_8
REMARK    7  A    between atoms: O_14  and  P_15
REMARK    8  A    between atoms: C_18  and  C_19
REMARK    9  A    between atoms: C_25  and  C_26
REMARK   10  A    between atoms: N_27  and  C_28
REMARK                            x       y       z     vdW  Elec       q    Type
REMARK                         _______ _______ _______ _____ _____    ______ ____
ROOT
ATOM      1  O   UNL     1       5.766   4.746  17.558  0.00  0.00    +0.000 OA
ENDROOT
BRANCH   1   2
ATOM      2  P   UNL     1       5.206   5.222  18.980  0.00  0.00    +0.000 P 
ATOM      3  O   UNL     1       6.168   5.136  20.121  0.00  0.00    +0.000 OA
ATOM      4  O   UNL     1       4.603   6.693  18.684  0.00  0.00    +0.000 OA
ATOM      5  C   UNL     1       3.215   6.571  18.248  0.00  0.00    +0.000 C 
ATOM      6  C   UNL     1       2.958   5.039  18.020  0.00  0.00    +0.000 C 
ATOM      7  C   UNL     1       1.538   4.625  17.669  0.00  0.00    +0.000 C 
ATOM      8  N   UNL     1       3.764   4.470  19.087  0.00  0.00    +0.000 NA
ATOM      9  C   UNL     1       3.486   3.277  19.817  0.00  0.00    +0.000 C 
BRANCH   5  10
ATOM     10  C   UNL     1       2.250   7.296  19.177  0.00  0.00    +0.000 A 
ATOM     11  C   UNL     1       1.879   6.816  20.443  0.00  0.00    +0.000 A 
ATOM     12  C   UNL     1       1.110   7.609  21.307  0.00  0.00    +0.000 A 
ATOM     13  C   UNL     1       0.683   8.877  20.913  0.00  0.00    +0.000 A 
ATOM     14  C   UNL     1       0.984   9.337  19.636  0.00  0.00    +0.000 A 
ATOM     15  C   UNL     1       1.754   8.552  18.779  0.00  0.00    +0.000 A 
ENDBRANCH   5  10
ENDBRANCH   1   2
BRANCH   1  16
ATOM     16  C   UNL     1       6.551   5.514  16.653  0.00  0.00    +0.000 C 
BRANCH  16  19
ATOM     17  C   UNL     1       8.373   8.669  18.156  0.00  0.00    +0.000 C 
ATOM     18  C   UNL     1       7.472   7.832  17.305  0.00  0.00    +0.000 C 
ATOM     19  C   UNL     1       7.427   6.498  17.402  0.00  0.00    +0.000 C 
ENDBRANCH  16  19
BRANCH  16  20
ATOM     20  C   UNL     1       5.697   6.285  15.701  0.00  0.00    +0.000 C 
ATOM     21  N   UNL     1       5.050   6.919  14.974  0.00  0.00    +0.000 NA
ENDBRANCH  16  20
BRANCH  16  22
ATOM     22  C   UNL     1       7.338   4.449  15.791  0.00  0.00    +0.000 C 
BRANCH  22  23
ATOM     23  C   UNL     1       7.043   4.306  14.299  0.00  0.00    +0.000 A 
ATOM     24  C   UNL     1       7.759   4.954  13.293  0.00  0.00    +0.000 A 
ATOM     25  C   UNL     1       7.376   4.871  11.952  0.00  0.00    +0.000 A 
ATOM     26  C   UNL     1       6.282   4.097  11.589  0.00  0.00    +0.000 A 
ATOM     27  C   UNL     1       5.588   3.391  12.566  0.00  0.00    +0.000 A 
ATOM     28  C   UNL     1       5.960   3.479  13.908  0.00  0.00    +0.000 A 
ENDBRANCH  22  23
ENDBRANCH  16  22
ENDBRANCH   1  16
TORSDOF 7
ENDMDL
MODEL 2
REMARK VINA RESULT:      -7.3      0.172      1.295
REMARK  Name = 
REMARK  10 active torsions:
REMARK  status: ('A' for Active; 'I' for Inactive)
REMARK    1  A    between atoms: C_1  and  C_2
REMARK    2  A    between atoms: C_3  and  C_4
REMARK    3  A    between atoms: C_4  and  C_5
REMARK    4  A    between atoms: C_4  and  C_7
REMARK    5  A    between atoms: C_4  and  O_14
REMARK    6  A    between atoms: C_7  and  C_8
REMARK    7  A    between atoms: O_14  and  P_15
REMARK    8  A    between atoms: C_18  and  C_19
REMARK    9  A    between atoms: C_25  and  C_26
REMARK   10  A    between atoms: N_27  and  C_28
REMARK                            x       y       z     vdW  Elec       q    Type
REMARK                         _______ _______ _______ _____ _____    ______ ____
ROOT
ATOM      1  O   UNL     1       5.669   4.766  17.535  0.00  0.00    +0.000 OA
ENDROOT
BRANCH   1   2
ATOM      2  P   UNL     1       5.161   5.243  18.976  0.00  0.00    +0.000 P 
ATOM      3  O   UNL     1       6.143   5.097  20.094  0.00  0.00    +0.000 OA
ATOM      4  O   UNL     1       4.616   6.743  18.716  0.00  0.00    +0.000 OA
ATOM      5  C   UNL     1       3.215   6.689  18.309  0.00  0.00    +0.000 C 
ATOM      6  C   UNL     1       2.886   5.174  18.064  0.00  0.00    +0.000 C 
ATOM      7  C   UNL     1       1.442   4.828  17.740  0.00  0.00    +0.000 C 
ATOM      8  N   UNL     1       3.690   4.554  19.105  0.00  0.00    +0.000 NA
ATOM      9  C   UNL     1       3.375   3.362  19.823  0.00  0.00    +0.000 C 
BRANCH   5  10
ATOM     10  C   UNL     1       2.303   7.441  19.270  0.00  0.00    +0.000 A 
ATOM     11  C   UNL     1       1.739   8.695  18.988  0.00  0.00    +0.000 A 
ATOM     12  C   UNL     1       0.786   9.256  19.850  0.00  0.00    +0.000 A 
ATOM     13  C   UNL     1       0.402   8.588  21.013  0.00  0.00    +0.000 A 
ATOM     14  C   UNL     1       1.004   7.378  21.341  0.00  0.00    +0.000 A 
ATOM     15  C   UNL     1       1.946   6.816  20.480  0.00  0.00    +0.000 A 
ENDBRANCH   5  10
ENDBRANCH   1   2
BRANCH   1  16
ATOM     16  C   UNL     1       6.468   5.512  16.625  0.00  0.00    +0.000 C 
BRANCH  16  19
ATOM     17  C   UNL     1       8.385   8.600  18.148  0.00  0.00    +0.000 C 
ATOM     18  C   UNL     1       7.443   7.799  17.308  0.00  0.00    +0.000 C 
ATOM     19  C   UNL     1       7.384   6.463  17.369  0.00  0.00    +0.000 C 
ENDBRANCH  16  19
BRANCH  16  20
ATOM     20  C   UNL     1       5.629   6.315  15.686  0.00  0.00    +0.000 C 
ATOM     21  N   UNL     1       4.975   6.969  14.985  0.00  0.00    +0.000 NA
ENDBRANCH  16  20
BRANCH  16  22
ATOM     22  C   UNL     1       7.210   4.425  15.750  0.00  0.00    +0.000 C 
BRANCH  22  23
ATOM     23  C   UNL     1       6.877   4.284  14.265  0.00  0.00    +0.000 A 
ATOM     24  C   UNL     1       5.831   3.508  13.767  0.00  0.00    +0.000 A 
ATOM     25  C   UNL     1       5.642   3.331  12.393  0.00  0.00    +0.000 A 
ATOM     26  C   UNL     1       6.482   3.966  11.489  0.00  0.00    +0.000 A 
ATOM     27  C   UNL     1       7.495   4.795  11.960  0.00  0.00    +0.000 A 
ATOM     28  C   UNL     1       7.694   4.968  13.329  0.00  0.00    +0.000 A 
ENDBRANCH  22  23
ENDBRANCH  16  22
ENDBRANCH   1  16
TORSDOF 7
ENDMDL
MODEL 3
REMARK VINA RESULT:      -6.9      1.427      7.135
REMARK  Name = 
REMARK  10 active torsions:
REMARK  status: ('A' for Active; 'I' for Inactive)
REMARK    1  A    between atoms: C_1  and  C_2
REMARK    2  A    between atoms: C_3  and  C_4
REMARK    3  A    between atoms: C_4  and  C_5
REMARK    4  A    between atoms: C_4  and  C_7
REMARK    5  A    between atoms: C_4  and  O_14
REMARK    6  A    between atoms: C_7  and  C_8
REMARK    7  A    between atoms: O_14  and  P_15
REMARK    8  A    between atoms: C_18  and  C_19
REMARK    9  A    between atoms: C_25  and  C_26
REMARK   10  A    between atoms: N_27  and  C_28
REMARK                            x       y       z     vdW  Elec       q    Type
REMARK                         _______ _______ _______ _____ _____    ______ ____
ROOT
ATOM      1  O   UNL     1       4.665   5.186  18.670  0.00  0.00    +0.000 OA
ENDROOT
BRANCH   1   2
ATOM      2  P   UNL     1       6.021   4.884  17.874  0.00  0.00    +0.000 P 
ATOM      3  O   UNL     1       7.168   4.399  18.702  0.00  0.00    +0.000 OA
ATOM      4  O   UNL     1       5.556   3.900  16.679  0.00  0.00    +0.000 OA
ATOM      5  C   UNL     1       5.131   4.695  15.531  0.00  0.00    +0.000 C 
ATOM      6  C   UNL     1       5.081   6.185  16.021  0.00  0.00    +0.000 C 
ATOM      7  C   UNL     1       4.775   7.243  14.974  0.00  0.00    +0.000 C 
ATOM      8  N   UNL     1       6.209   6.204  16.937  0.00  0.00    +0.000 NA
ATOM      9  C   UNL     1       7.071   7.310  17.199  0.00  0.00    +0.000 C 
BRANCH   5  10
ATOM     10  C   UNL     1       5.967   4.411  14.289  0.00  0.00    +0.000 A 
ATOM     11  C   UNL     1       5.576   3.526  13.273  0.00  0.00    +0.000 A 
ATOM     12  C   UNL     1       6.319   3.432  12.087  0.00  0.00    +0.000 A 
ATOM     13  C   UNL     1       7.470   4.200  11.909  0.00  0.00    +0.000 A 
ATOM     14  C   UNL     1       7.908   5.029  12.935  0.00  0.00    +0.000 A 
ATOM     15  C   UNL     1       7.165   5.128  14.112  0.00  0.00    +0.000 A 
ENDBRANCH   5  10
ENDBRANCH   1   2
BRANCH   1  16
ATOM     16  C   UNL     1       3.789   4.227  19.252  0.00  0.00    +0.000 C 
BRANCH  16  19
ATOM     17  C   UNL     1       5.233   0.961  20.921  0.00  0.00    +0.000 C 
ATOM     18  C   UNL     1       4.330   1.872  20.152  0.00  0.00    +0.000 C 
ATOM     19  C   UNL     1       4.571   3.183  20.023  0.00  0.00    +0.000 C 
ENDBRANCH  16  19
BRANCH  16  20
ATOM     20  C   UNL     1       2.976   3.525  18.215  0.00  0.00    +0.000 C 
ATOM     21  N   UNL     1       2.372   2.950  17.406  0.00  0.00    +0.000 NA
ENDBRANCH  16  20
BRANCH  16  22
ATOM     22  C   UNL     1       2.778   5.074  20.121  0.00  0.00    +0.000 C 
BRANCH  22  23
ATOM     23  C   UNL     1       2.314   6.446  19.632  0.00  0.00    +0.000 A 
ATOM     24  C   UNL     1       2.409   6.880  18.310  0.00  0.00    +0.000 A 
ATOM     25  C   UNL     1       2.068   8.184  17.943  0.00  0.00    +0.000 A 
ATOM     26  C   UNL     1       1.583   9.070  18.896  0.00  0.00    +0.000 A 
ATOM     27  C   UNL     1       1.421   8.642  20.209  0.00  0.00    +0.000 A 
ATOM     28  C   UNL     1       1.769   7.345  20.584  0.00  0.00    +0.000 A 
ENDBRANCH  22  23
ENDBRANCH  16  22
ENDBRANCH   1  16
TORSDOF 7
ENDMDL
MODEL 4
REMARK VINA RESULT:      -6.9      1.637      7.113
REMARK  Name = 
REMARK  10 active torsions:
REMARK  status: ('A' for Active; 'I' for Inactive)
REMARK    1  A    between atoms: C_1  and  C_2
REMARK    2  A    between atoms: C_3  and  C_4
REMARK    3  A    between atoms: C_4  and  C_5
REMARK    4  A    between atoms: C_4  and  C_7
REMARK    5  A    between atoms: C_4  and  O_14
REMARK    6  A    between atoms: C_7  and  C_8
REMARK    7  A    between atoms: O_14  and  P_15
REMARK    8  A    between atoms: C_18  and  C_19
REMARK    9  A    between atoms: C_25  and  C_26
REMARK   10  A    between atoms: N_27  and  C_28
REMARK                            x       y       z     vdW  Elec       q    Type
REMARK                         _______ _______ _______ _____ _____    ______ ____
ROOT
ATOM      1  O   UNL     1       4.045   5.424  19.702  0.00  0.00    +0.000 OA
ENDROOT
BRANCH   1   2
ATOM      2  P   UNL     1       5.021   4.427  18.916  0.00  0.00    +0.000 P 
ATOM      3  O   UNL     1       5.264   3.104  19.569  0.00  0.00    +0.000 OA
ATOM      4  O   UNL     1       4.394   4.367  17.428  0.00  0.00    +0.000 OA
ATOM      5  C   UNL     1       4.950   5.449  16.621  0.00  0.00    +0.000 C 
ATOM      6  C   UNL     1       5.752   6.368  17.609  0.00  0.00    +0.000 C 
ATOM      7  C   UNL     1       6.535   7.517  16.997  0.00  0.00    +0.000 C 
ATOM      8  N   UNL     1       6.288   5.374  18.524  0.00  0.00    +0.000 NA
ATOM      9  C   UNL     1       7.540   5.435  19.205  0.00  0.00    +0.000 C 
BRANCH   5  10
ATOM     10  C   UNL     1       5.704   4.934  15.402  0.00  0.00    +0.000 A 
ATOM     11  C   UNL     1       5.157   4.039  14.469  0.00  0.00    +0.000 A 
ATOM     12  C   UNL     1       5.850   3.730  13.289  0.00  0.00    +0.000 A 
ATOM     13  C   UNL     1       7.103   4.288  13.037  0.00  0.00    +0.000 A 
ATOM     14  C   UNL     1       7.688   5.120  13.984  0.00  0.00    +0.000 A 
ATOM     15  C   UNL     1       6.996   5.434  15.153  0.00  0.00    +0.000 A 
ENDBRANCH   5  10
ENDBRANCH   1   2
BRANCH   1  16
ATOM     16  C   UNL     1       2.667   5.215  19.989  0.00  0.00    +0.000 C 
BRANCH  16  19
ATOM     17  C   UNL     1       1.383   2.127  22.076  0.00  0.00    +0.000 C 
ATOM     18  C   UNL     1       1.385   3.305  21.154  0.00  0.00    +0.000 C 
ATOM     19  C   UNL     1       2.485   4.030  20.917  0.00  0.00    +0.000 C 
ENDBRANCH  16  19
BRANCH  16  20
ATOM     20  C   UNL     1       1.880   4.956  18.747  0.00  0.00    +0.000 C 
ATOM     21  N   UNL     1       1.302   4.745  17.761  0.00  0.00    +0.000 NA
ENDBRANCH  16  20
BRANCH  16  22
ATOM     22  C   UNL     1       2.157   6.593  20.567  0.00  0.00    +0.000 C 
BRANCH  22  23
ATOM     23  C   UNL     1       1.927   7.777  19.628  0.00  0.00    +0.000 A 
ATOM     24  C   UNL     1       2.500   7.895  18.362  0.00  0.00    +0.000 A 
ATOM     25  C   UNL     1       2.340   9.051  17.593  0.00  0.00    +0.000 A 
ATOM     26  C   UNL     1       1.564  10.100  18.067  0.00  0.00    +0.000 A 
ATOM     27  C   UNL     1       0.932   9.981  19.301  0.00  0.00    +0.000 A 
ATOM     28  C   UNL     1       1.096   8.834  20.077  0.00  0.00    +0.000 A 
ENDBRANCH  22  23
ENDBRANCH  16  22
ENDBRANCH   1  16
TORSDOF 7
ENDMDL
MODEL 5
REMARK VINA RESULT:      -6.6      1.654      7.102
REMARK  Name = 
REMARK  10 active torsions:
REMARK  status: ('A' for Active; 'I' for Inactive)
REMARK    1  A    between atoms: C_1  and  C_2
REMARK    2  A    between atoms: C_3  and  C_4
REMARK    3  A    between atoms: C_4  and  C_5
REMARK    4  A    between atoms: C_4  and  C_7
REMARK    5  A    between atoms: C_4  and  O_14
REMARK    6  A    between atoms: C_7  and  C_8
REMARK    7  A    between atoms: O_14  and  P_15
REMARK    8  A    between atoms: C_18  and  C_19
REMARK    9  A    between atoms: C_25  and  C_26
REMARK   10  A    between atoms: N_27  and  C_28
REMARK                            x       y       z     vdW  Elec       q    Type
REMARK                         _______ _______ _______ _____ _____    ______ ____
ROOT
ATOM      1  O   UNL     1       3.933   5.330  19.635  0.00  0.00    +0.000 OA
ENDROOT
BRANCH   1   2
ATOM      2  P   UNL     1       4.973   4.429  18.817  0.00  0.00    +0.000 P 
ATOM      3  O   UNL     1       5.292   3.096  19.416  0.00  0.00    +0.000 OA
ATOM      4  O   UNL     1       4.360   4.394  17.321  0.00  0.00    +0.000 OA
ATOM      5  C   UNL     1       4.855   5.540  16.565  0.00  0.00    +0.000 C 
ATOM      6  C   UNL     1       5.593   6.463  17.598  0.00  0.00    +0.000 C 
ATOM      7  C   UNL     1       6.309   7.683  17.041  0.00  0.00    +0.000 C 
ATOM      8  N   UNL     1       6.183   5.466  18.475  0.00  0.00    +0.000 NA
ATOM      9  C   UNL     1       7.424   5.573  19.169  0.00  0.00    +0.000 C 
BRANCH   5  10
ATOM     10  C   UNL     1       5.646   5.124  15.332  0.00  0.00    +0.000 A 
ATOM     11  C   UNL     1       6.997   5.445  15.129  0.00  0.00    +0.000 A 
ATOM     12  C   UNL     1       7.704   4.897  14.049  0.00  0.00    +0.000 A 
ATOM     13  C   UNL     1       7.069   4.044  13.146  0.00  0.00    +0.000 A 
ATOM     14  C   UNL     1       5.714   3.773  13.295  0.00  0.00    +0.000 A 
ATOM     15  C   UNL     1       5.012   4.311  14.374  0.00  0.00    +0.000 A 
ENDBRANCH   5  10
ENDBRANCH   1   2
BRANCH   1  16
ATOM     16  C   UNL     1       2.574   5.017  19.916  0.00  0.00    +0.000 C 
BRANCH  16  19
ATOM     17  C   UNL     1       1.465   1.993  22.189  0.00  0.00    +0.000 C 
ATOM     18  C   UNL     1       1.394   3.238  21.363  0.00  0.00    +0.000 C 
ATOM     19  C   UNL     1       2.478   3.794  20.806  0.00  0.00    +0.000 C 
ENDBRANCH  16  19
BRANCH  16  20
ATOM     20  C   UNL     1       1.802   4.744  18.668  0.00  0.00    +0.000 C 
ATOM     21  N   UNL     1       1.197   4.571  17.691  0.00  0.00    +0.000 NA
ENDBRANCH  16  20
BRANCH  16  22
ATOM     22  C   UNL     1       1.972   6.338  20.538  0.00  0.00    +0.000 C 
BRANCH  22  23
ATOM     23  C   UNL     1       1.900   7.613  19.699  0.00  0.00    +0.000 A 
ATOM     24  C   UNL     1       1.250   8.780  20.101  0.00  0.00    +0.000 A 
ATOM     25  C   UNL     1       1.124   9.878  19.245  0.00  0.00    +0.000 A 
ATOM     26  C   UNL     1       1.688   9.840  17.978  0.00  0.00    +0.000 A 
ATOM     27  C   UNL     1       2.395   8.711  17.576  0.00  0.00    +0.000 A 
ATOM     28  C   UNL     1       2.515   7.608  18.422  0.00  0.00    +0.000 A 
ENDBRANCH  22  23
ENDBRANCH  16  22
ENDBRANCH   1  16
TORSDOF 7
ENDMDL
MODEL 6
REMARK VINA RESULT:      -6.3      1.434      7.171
REMARK  Name = 
REMARK  10 active torsions:
REMARK  status: ('A' for Active; 'I' for Inactive)
REMARK    1  A    between atoms: C_1  and  C_2
REMARK    2  A    between atoms: C_3  and  C_4
REMARK    3  A    between atoms: C_4  and  C_5
REMARK    4  A    between atoms: C_4  and  C_7
REMARK    5  A    between atoms: C_4  and  O_14
REMARK    6  A    between atoms: C_7  and  C_8
REMARK    7  A    between atoms: O_14  and  P_15
REMARK    8  A    between atoms: C_18  and  C_19
REMARK    9  A    between atoms: C_25  and  C_26
REMARK   10  A    between atoms: N_27  and  C_28
REMARK                            x       y       z     vdW  Elec       q    Type
REMARK                         _______ _______ _______ _____ _____    ______ ____
ROOT
ATOM      1  O   UNL     1       4.755   5.069  18.790  0.00  0.00    +0.000 OA
ENDROOT
BRANCH   1   2
ATOM      2  P   UNL     1       6.049   4.752  17.903  0.00  0.00    +0.000 P 
ATOM      3  O   UNL     1       7.203   4.139  18.630  0.00  0.00    +0.000 OA
ATOM      4  O   UNL     1       5.467   3.892  16.665  0.00  0.00    +0.000 OA
ATOM      5  C   UNL     1       5.037   4.796  15.603  0.00  0.00    +0.000 C 
ATOM      6  C   UNL     1       5.102   6.244  16.205  0.00  0.00    +0.000 C 
ATOM      7  C   UNL     1       4.811   7.397  15.257  0.00  0.00    +0.000 C 
ATOM      8  N   UNL     1       6.272   6.128  17.058  0.00  0.00    +0.000 NA
ATOM      9  C   UNL     1       7.212   7.159  17.355  0.00  0.00    +0.000 C 
BRANCH   5  10
ATOM     10  C   UNL     1       5.793   4.562  14.301  0.00  0.00    +0.000 A 
ATOM     11  C   UNL     1       7.067   5.087  14.036  0.00  0.00    +0.000 A 
ATOM     12  C   UNL     1       7.768   4.703  12.883  0.00  0.00    +0.000 A 
ATOM     13  C   UNL     1       7.199   3.813  11.971  0.00  0.00    +0.000 A 
ATOM     14  C   UNL     1       5.910   3.341  12.186  0.00  0.00    +0.000 A 
ATOM     15  C   UNL     1       5.216   3.716  13.336  0.00  0.00    +0.000 A 
ENDBRANCH   5  10
ENDBRANCH   1   2
BRANCH   1  16
ATOM     16  C   UNL     1       3.555   4.307  18.846  0.00  0.00    +0.000 C 
BRANCH  16  19
ATOM     17  C   UNL     1       2.005   2.940  22.203  0.00  0.00    +0.000 C 
ATOM     18  C   UNL     1       2.185   3.229  20.747  0.00  0.00    +0.000 C 
ATOM     19  C   UNL     1       3.206   3.959  20.280  0.00  0.00    +0.000 C 
ENDBRANCH  16  19
BRANCH  16  20
ATOM     20  C   UNL     1       3.675   3.034  18.076  0.00  0.00    +0.000 C 
ATOM     21  N   UNL     1       3.733   2.031  17.492  0.00  0.00    +0.000 NA
ENDBRANCH  16  20
BRANCH  16  22
ATOM     22  C   UNL     1       2.478   5.188  18.098  0.00  0.00    +0.000 C 
BRANCH  22  23
ATOM     23  C   UNL     1       2.171   6.601  18.590  0.00  0.00    +0.000 A 
ATOM     24  C   UNL     1       1.954   6.935  19.927  0.00  0.00    +0.000 A 
ATOM     25  C   UNL     1       1.570   8.225  20.305  0.00  0.00    +0.000 A 
ATOM     26  C   UNL     1       1.437   9.219  19.346  0.00  0.00    +0.000 A 
ATOM     27  C   UNL     1       1.708   8.927  18.014  0.00  0.00    +0.000 A 
ATOM     28  C   UNL     1       2.081   7.639  17.629  0.00  0.00    +0.000 A 
ENDBRANCH  22  23
ENDBRANCH  16  22
ENDBRANCH   1  16
TORSDOF 7
ENDMDL
MODEL 7
REMARK VINA RESULT:      -6.2      8.589     11.306
REMARK  Name = 
REMARK  10 active torsions:
REMARK  status: ('A' for Active; 'I' for Inactive)
REMARK    1  A    between atoms: C_1  and  C_2
REMARK    2  A    between atoms: C_3  and  C_4
REMARK    3  A    between atoms: C_4  and  C_5
REMARK    4  A    between atoms: C_4  and  C_7
REMARK    5  A    between atoms: C_4  and  O_14
REMARK    6  A    between atoms: C_7  and  C_8
REMARK    7  A    between atoms: O_14  and  P_15
REMARK    8  A    between atoms: C_18  and  C_19
REMARK    9  A    between atoms: C_25  and  C_26
REMARK   10  A    between atoms: N_27  and  C_28
REMARK                            x       y       z     vdW  Elec       q    Type
REMARK                         _______ _______ _______ _____ _____    ______ ____
ROOT
ATOM      1  O   UNL     1       0.321  13.218  21.276  0.00  0.00    +0.000 OA
ENDROOT
BRANCH   1   2
ATOM      2  P   UNL     1       1.295  13.917  20.215  0.00  0.00    +0.000 P 
ATOM      3  O   UNL     1       2.435  13.081  19.727  0.00  0.00    +0.000 OA
ATOM      4  O   UNL     1       0.291  14.463  19.072  0.00  0.00    +0.000 OA
ATOM      5  C   UNL     1      -0.175  15.800  19.431  0.00  0.00    +0.000 C 
ATOM      6  C   UNL     1       0.311  16.055  20.901  0.00  0.00    +0.000 C 
ATOM      7  C   UNL     1       0.053  17.436  21.480  0.00  0.00    +0.000 C 
ATOM      8  N   UNL     1       1.595  15.374  20.881  0.00  0.00    +0.000 NA
ATOM      9  C   UNL     1       2.764  15.745  21.609  0.00  0.00    +0.000 C 
BRANCH   5  10
ATOM     10  C   UNL     1       0.209  16.846  18.392  0.00  0.00    +0.000 A 
ATOM     11  C   UNL     1       1.504  16.986  17.870  0.00  0.00    +0.000 A 
ATOM     12  C   UNL     1       1.750  17.864  16.805  0.00  0.00    +0.000 A 
ATOM     13  C   UNL     1       0.716  18.630  16.265  0.00  0.00    +0.000 A 
ATOM     14  C   UNL     1      -0.556  18.554  16.818  0.00  0.00    +0.000 A 
ATOM     15  C   UNL     1      -0.803  17.674  17.872  0.00  0.00    +0.000 A 
ENDBRANCH   5  10
ENDBRANCH   1   2
BRANCH   1  16
ATOM     16  C   UNL     1      -0.378  11.990  21.109  0.00  0.00    +0.000 C 
BRANCH  16  19
ATOM     17  C   UNL     1      -3.391  12.255  23.637  0.00  0.00    +0.000 C 
ATOM     18  C   UNL     1      -1.993  12.182  23.110  0.00  0.00    +0.000 C 
ATOM     19  C   UNL     1      -1.723  12.039  21.806  0.00  0.00    +0.000 C 
ENDBRANCH  16  19
BRANCH  16  20
ATOM     20  C   UNL     1       0.392  10.839  21.666  0.00  0.00    +0.000 C 
ATOM     21  N   UNL     1       0.958   9.919  22.093  0.00  0.00    +0.000 NA
ENDBRANCH  16  20
BRANCH  16  22
ATOM     22  C   UNL     1      -0.449  11.771  19.546  0.00  0.00    +0.000 C 
BRANCH  22  23
ATOM     23  C   UNL     1      -1.776  11.393  18.888  0.00  0.00    +0.000 A 
ATOM     24  C   UNL     1      -2.948  12.141  19.001  0.00  0.00    +0.000 A 
ATOM     25  C   UNL     1      -4.158  11.689  18.466  0.00  0.00    +0.000 A 
ATOM     26  C   UNL     1      -4.204  10.489  17.769  0.00  0.00    +0.000 A 
ATOM     27  C   UNL     1      -3.036   9.755  17.590  0.00  0.00    +0.000 A 
ATOM     28  C   UNL     1      -1.828  10.196  18.130  0.00  0.00    +0.000 A 
ENDBRANCH  22  23
ENDBRANCH  16  22
ENDBRANCH   1  16
TORSDOF 7
ENDMDL
MODEL 8
REMARK VINA RESULT:      -6.1      1.419      7.118
REMARK  Name = 
REMARK  10 active torsions:
REMARK  status: ('A' for Active; 'I' for Inactive)
REMARK    1  A    between atoms: C_1  and  C_2
REMARK    2  A    between atoms: C_3  and  C_4
REMARK    3  A    between atoms: C_4  and  C_5
REMARK    4  A    between atoms: C_4  and  C_7
REMARK    5  A    between atoms: C_4  and  O_14
REMARK    6  A    between atoms: C_7  and  C_8
REMARK    7  A    between atoms: O_14  and  P_15
REMARK    8  A    between atoms: C_18  and  C_19
REMARK    9  A    between atoms: C_25  and  C_26
REMARK   10  A    between atoms: N_27  and  C_28
REMARK                            x       y       z     vdW  Elec       q    Type
REMARK                         _______ _______ _______ _____ _____    ______ ____
ROOT
ATOM      1  O   UNL     1       4.799   5.097  18.806  0.00  0.00    +0.000 OA
ENDROOT
BRANCH   1   2
ATOM      2  P   UNL     1       6.123   4.785  17.963  0.00  0.00    +0.000 P 
ATOM      3  O   UNL     1       7.276   4.236  18.742  0.00  0.00    +0.000 OA
ATOM      4  O   UNL     1       5.598   3.858  16.748  0.00  0.00    +0.000 OA
ATOM      5  C   UNL     1       5.168   4.706  15.640  0.00  0.00    +0.000 C 
ATOM      6  C   UNL     1       5.176   6.178  16.184  0.00  0.00    +0.000 C 
ATOM      7  C   UNL     1       4.876   7.283  15.183  0.00  0.00    +0.000 C 
ATOM      8  N   UNL     1       6.327   6.132  17.069  0.00  0.00    +0.000 NA
ATOM      9  C   UNL     1       7.229   7.202  17.346  0.00  0.00    +0.000 C 
BRANCH   5  10
ATOM     10  C   UNL     1       5.963   4.443  14.367  0.00  0.00    +0.000 A 
ATOM     11  C   UNL     1       5.527   3.593  13.339  0.00  0.00    +0.000 A 
ATOM     12  C   UNL     1       6.233   3.519  12.129  0.00  0.00    +0.000 A 
ATOM     13  C   UNL     1       7.393   4.272  11.939  0.00  0.00    +0.000 A 
ATOM     14  C   UNL     1       7.874   5.065  12.974  0.00  0.00    +0.000 A 
ATOM     15  C   UNL     1       7.168   5.144  14.174  0.00  0.00    +0.000 A 
ENDBRANCH   5  10
ENDBRANCH   1   2
BRANCH   1  16
ATOM     16  C   UNL     1       3.609   4.318  18.841  0.00  0.00    +0.000 C 
BRANCH  16  19
ATOM     17  C   UNL     1       2.051   2.937  22.188  0.00  0.00    +0.000 C 
ATOM     18  C   UNL     1       2.307   3.138  20.728  0.00  0.00    +0.000 C 
ATOM     19  C   UNL     1       3.202   4.023  20.271  0.00  0.00    +0.000 C 
ENDBRANCH  16  19
BRANCH  16  20
ATOM     20  C   UNL     1       3.783   3.017  18.130  0.00  0.00    +0.000 C 
ATOM     21  N   UNL     1       3.878   2.004  17.568  0.00  0.00    +0.000 NA
ENDBRANCH  16  20
BRANCH  16  22
ATOM     22  C   UNL     1       2.553   5.149  18.010  0.00  0.00    +0.000 C 
BRANCH  22  23
ATOM     23  C   UNL     1       2.170   6.559  18.455  0.00  0.00    +0.000 A 
ATOM     24  C   UNL     1       2.063   7.651  17.594  0.00  0.00    +0.000 A 
ATOM     25  C   UNL     1       1.815   8.940  18.074  0.00  0.00    +0.000 A 
ATOM     26  C   UNL     1       1.628   9.150  19.434  0.00  0.00    +0.000 A 
ATOM     27  C   UNL     1       1.669   8.068  20.307  0.00  0.00    +0.000 A 
ATOM     28  C   UNL     1       1.926   6.781  19.834  0.00  0.00    +0.000 A 
ENDBRANCH  22  23
ENDBRANCH  16  22
ENDBRANCH   1  16
TORSDOF 7
ENDMDL
MODEL 9
REMARK VINA RESULT:      -6.1      6.394     11.969
REMARK  Name = 
REMARK  10 active torsions:
REMARK  status: ('A' for Active; 'I' for Inactive)
REMARK    1  A    between atoms: C_1  and  C_2
REMARK    2  A    between atoms: C_3  and  C_4
REMARK    3  A    between atoms: C_4  and  C_5
REMARK    4  A    between atoms: C_4  and  C_7
REMARK    5  A    between atoms: C_4  and  O_14
REMARK    6  A    between atoms: C_7  and  C_8
REMARK    7  A    between atoms: O_14  and  P_15
REMARK    8  A    between atoms: C_18  and  C_19
REMARK    9  A    between atoms: C_25  and  C_26
REMARK   10  A    between atoms: N_27  and  C_28
REMARK                            x       y       z     vdW  Elec       q    Type
REMARK                         _______ _______ _______ _____ _____    ______ ____
ROOT
ATOM      1  O   UNL     1      -1.104  12.808  21.781  0.00  0.00    +0.000 OA
ENDROOT
BRANCH   1   2
ATOM      2  P   UNL     1       0.302  12.490  21.084  0.00  0.00    +0.000 P 
ATOM      3  O   UNL     1       1.401  13.466  21.361  0.00  0.00    +0.000 OA
ATOM      4  O   UNL     1       0.605  10.960  21.506  0.00  0.00    +0.000 OA
ATOM      5  C   UNL     1      -0.008  10.057  20.537  0.00  0.00    +0.000 C 
ATOM      6  C   UNL     1      -0.911  10.950  19.614  0.00  0.00    +0.000 C 
ATOM      7  C   UNL     1      -1.579  10.262  18.434  0.00  0.00    +0.000 C 
ATOM      8  N   UNL     1      -0.108  12.159  19.542  0.00  0.00    +0.000 NA
ATOM      9  C   UNL     1      -0.011  13.049  18.432  0.00  0.00    +0.000 C 
BRANCH   5  10
ATOM     10  C   UNL     1       1.016   9.170  19.841  0.00  0.00    +0.000 A 
ATOM     11  C   UNL     1       1.548   8.002  20.409  0.00  0.00    +0.000 A 
ATOM     12  C   UNL     1       2.367   7.152  19.650  0.00  0.00    +0.000 A 
ATOM     13  C   UNL     1       2.685   7.468  18.329  0.00  0.00    +0.000 A 
ATOM     14  C   UNL     1       2.223   8.656  17.777  0.00  0.00    +0.000 A 
ATOM     15  C   UNL     1       1.402   9.498  18.528  0.00  0.00    +0.000 A 
ENDBRANCH   5  10
ENDBRANCH   1   2
BRANCH   1  16
ATOM     16  C   UNL     1      -1.893  13.980  21.610  0.00  0.00    +0.000 C 
BRANCH  16  19
ATOM     17  C   UNL     1      -4.872  12.586  19.438  0.00  0.00    +0.000 C 
ATOM     18  C   UNL     1      -3.775  12.651  20.453  0.00  0.00    +0.000 C 
ATOM     19  C   UNL     1      -3.007  13.736  20.612  0.00  0.00    +0.000 C 
ENDBRANCH  16  19
BRANCH  16  20
ATOM     20  C   UNL     1      -1.073  15.127  21.119  0.00  0.00    +0.000 C 
ATOM     21  N   UNL     1      -0.410  15.993  20.720  0.00  0.00    +0.000 NA
ENDBRANCH  16  20
BRANCH  16  22
ATOM     22  C   UNL     1      -2.377  14.360  23.064  0.00  0.00    +0.000 C 
BRANCH  22  23
ATOM     23  C   UNL     1      -3.733  13.869  23.570  0.00  0.00    +0.000 A 
ATOM     24  C   UNL     1      -3.937  12.641  24.197  0.00  0.00    +0.000 A 
ATOM     25  C   UNL     1      -5.218  12.199  24.541  0.00  0.00    +0.000 A 
ATOM     26  C   UNL     1      -6.320  13.007  24.296  0.00  0.00    +0.000 A 
ATOM     27  C   UNL     1      -6.136  14.263  23.728  0.00  0.00    +0.000 A 
ATOM     28  C   UNL     1      -4.862  14.704  23.373  0.00  0.00    +0.000 A 
ENDBRANCH  22  23
ENDBRANCH  16  22
ENDBRANCH   1  16
TORSDOF 7
ENDMDL
