MODEL 1
REMARK VINA RESULT:      -7.0      0.000      0.000
REMARK  Name = 
REMARK  7 active torsions:
REMARK  status: ('A' for Active; 'I' for Inactive)
REMARK    1  A    between atoms: C_1  and  C_2
REMARK    2  A    between atoms: C_2  and  C_3
REMARK    3  A    between atoms: C_3  and  C_13
REMARK    4  A    between atoms: N_4  and  C_5
REMARK    5  A    between atoms: C_5  and  C_6
REMARK    6  A    between atoms: C_6  and  C_7
REMARK    7  A    between atoms: C_14  and  O_15
REMARK                            x       y       z     vdW  Elec       q    Type
REMARK                         _______ _______ _______ _____ _____    ______ ____
ROOT
ATOM      1  C   UNL     1       4.153   5.128  17.580  0.00  0.00    +0.000 C 
ATOM      2  N   UNL     1       4.072   3.976  16.973  0.00  0.00    +0.000 NA
ENDROOT
BRANCH   1   3
ATOM      3  C   UNL     1       5.521   5.745  17.739  0.00  0.00    +0.000 C 
ATOM      4  C   UNL     1       6.149   6.606  16.926  0.00  0.00    +0.000 C 
ATOM      5  C   UNL     1       7.514   7.045  17.343  0.00  0.00    +0.000 C 
ATOM      6  C   UNL     1       7.718   6.387  18.694  0.00  0.00    +0.000 C 
ATOM      7  C   UNL     1       6.488   5.543  18.846  0.00  0.00    +0.000 C 
ATOM      8  O   UNL     1       6.318   4.791  19.798  0.00  0.00    +0.000 OA
BRANCH   4   9
ATOM      9  O   UNL     1       5.648   7.117  15.753  0.00  0.00    +0.000 OA
ATOM     10  H   UNL     1       6.293   7.785  15.432  0.00  0.00    +0.000 HD
ENDBRANCH   4   9
ENDBRANCH   1   3
BRANCH   1  12
ATOM     11  C   UNL     1       2.710   6.126  19.661  0.00  0.00    +0.000 C 
ATOM     12  C   UNL     1       3.015   5.982  18.184  0.00  0.00    +0.000 C 
ENDBRANCH   1  12
BRANCH   2  13
ATOM     13  C   UNL     1       2.754   3.348  16.823  0.00  0.00    +0.000 C 
BRANCH  13  14
ATOM     14  C   UNL     1       2.588   2.069  17.650  0.00  0.00    +0.000 C 
BRANCH  14  15
ATOM     15  C   UNL     1       2.332   2.429  19.104  0.00  0.00    +0.000 A 
ATOM     16  C   UNL     1       3.343   2.299  20.070  0.00  0.00    +0.000 A 
ATOM     17  C   UNL     1       3.080   2.571  21.417  0.00  0.00    +0.000 A 
ATOM     18  C   UNL     1       1.807   2.962  21.819  0.00  0.00    +0.000 A 
ATOM     19  C   UNL     1       0.791   3.086  20.873  0.00  0.00    +0.000 A 
ATOM     20  C   UNL     1       1.051   2.818  19.526  0.00  0.00    +0.000 A 
ENDBRANCH  14  15
ENDBRANCH  13  14
ENDBRANCH   2  13
TORSDOF 6
ENDMDL
MODEL 2
REMARK VINA RESULT:      -7.0      0.109      2.081
REMARK  Name = 
REMARK  7 active torsions:
REMARK  status: ('A' for Active; 'I' for Inactive)
REMARK    1  A    between atoms: C_1  and  C_2
REMARK    2  A    between atoms: C_2  and  C_3
REMARK    3  A    between atoms: C_3  and  C_13
REMARK    4  A    between atoms: N_4  and  C_5
REMARK    5  A    between atoms: C_5  and  C_6
REMARK    6  A    between atoms: C_6  and  C_7
REMARK    7  A    between atoms: C_14  and  O_15
REMARK                            x       y       z     vdW  Elec       q    Type
REMARK                         _______ _______ _______ _____ _____    ______ ____
ROOT
ATOM      1  C   UNL     1       4.168   5.098  17.605  0.00  0.00    +0.000 C 
ATOM      2  N   UNL     1       4.108   3.961  16.968  0.00  0.00    +0.000 NA
ENDROOT
BRANCH   1   3
ATOM      3  C   UNL     1       5.526   5.731  17.788  0.00  0.00    +0.000 C 
ATOM      4  C   UNL     1       6.407   5.546  18.779  0.00  0.00    +0.000 C 
ATOM      5  C   UNL     1       7.681   6.321  18.696  0.00  0.00    +0.000 C 
ATOM      6  C   UNL     1       7.583   7.054  17.372  0.00  0.00    +0.000 C 
ATOM      7  C   UNL     1       6.203   6.707  16.898  0.00  0.00    +0.000 C 
ATOM      8  O   UNL     1       5.719   7.178  15.876  0.00  0.00    +0.000 OA
BRANCH   4   9
ATOM      9  O   UNL     1       6.244   4.708  19.856  0.00  0.00    +0.000 OA
ATOM     10  H   UNL     1       5.280   4.667  20.046  0.00  0.00    +0.000 HD
ENDBRANCH   4   9
ENDBRANCH   1   3
BRANCH   1  12
ATOM     11  C   UNL     1       2.791   6.148  19.705  0.00  0.00    +0.000 C 
ATOM     12  C   UNL     1       3.014   5.919  18.224  0.00  0.00    +0.000 C 
ENDBRANCH   1  12
BRANCH   2  13
ATOM     13  C   UNL     1       2.801   3.317  16.795  0.00  0.00    +0.000 C 
BRANCH  13  14
ATOM     14  C   UNL     1       2.643   2.025  17.602  0.00  0.00    +0.000 C 
BRANCH  14  15
ATOM     15  C   UNL     1       2.310   2.362  19.047  0.00  0.00    +0.000 A 
ATOM     16  C   UNL     1       1.030   2.810  19.408  0.00  0.00    +0.000 A 
ATOM     17  C   UNL     1       0.750   3.178  20.729  0.00  0.00    +0.000 A 
ATOM     18  C   UNL     1       1.745   3.115  21.700  0.00  0.00    +0.000 A 
ATOM     19  C   UNL     1       3.023   2.681  21.354  0.00  0.00    +0.000 A 
ATOM     20  C   UNL     1       3.304   2.310  20.036  0.00  0.00    +0.000 A 
ENDBRANCH  14  15
ENDBRANCH  13  14
ENDBRANCH   2  13
TORSDOF 6
ENDMDL
MODEL 3
REMARK VINA RESULT:      -6.9      0.337      1.195
REMARK  Name = 
REMARK  7 active torsions:
REMARK  status: ('A' for Active; 'I' for Inactive)
REMARK    1  A    between atoms: C_1  and  C_2
REMARK    2  A    between atoms: C_2  and  C_3
REMARK    3  A    between atoms: C_3  and  C_13
REMARK    4  A    between atoms: N_4  and  C_5
REMARK    5  A    between atoms: C_5  and  C_6
REMARK    6  A    between atoms: C_6  and  C_7
REMARK    7  A    between atoms: C_14  and  O_15
REMARK                            x       y       z     vdW  Elec       q    Type
REMARK                         _______ _______ _______ _____ _____    ______ ____
ROOT
ATOM      1  C   UNL     1       4.205   5.145  17.666  0.00  0.00    +0.000 C 
ATOM      2  N   UNL     1       4.092   4.066  16.941  0.00  0.00    +0.000 NA
ENDROOT
BRANCH   1   3
ATOM      3  C   UNL     1       5.575   5.766  17.793  0.00  0.00    +0.000 C 
ATOM      4  C   UNL     1       6.186   6.618  16.959  0.00  0.00    +0.000 C 
ATOM      5  C   UNL     1       7.558   7.065  17.346  0.00  0.00    +0.000 C 
ATOM      6  C   UNL     1       7.787   6.423  18.701  0.00  0.00    +0.000 C 
ATOM      7  C   UNL     1       6.562   5.579  18.885  0.00  0.00    +0.000 C 
ATOM      8  O   UNL     1       6.410   4.839  19.849  0.00  0.00    +0.000 OA
BRANCH   4   9
ATOM      9  O   UNL     1       5.665   7.114  15.789  0.00  0.00    +0.000 OA
ATOM     10  H   UNL     1       6.009   6.554  15.059  0.00  0.00    +0.000 HD
ENDBRANCH   4   9
ENDBRANCH   1   3
BRANCH   1  12
ATOM     11  C   UNL     1       2.650   7.322  18.166  0.00  0.00    +0.000 C 
ATOM     12  C   UNL     1       3.107   5.904  18.443  0.00  0.00    +0.000 C 
ENDBRANCH   1  12
BRANCH   2  13
ATOM     13  C   UNL     1       2.773   3.433  16.818  0.00  0.00    +0.000 C 
BRANCH  13  14
ATOM     14  C   UNL     1       2.652   2.117  17.590  0.00  0.00    +0.000 C 
BRANCH  14  15
ATOM     15  C   UNL     1       2.325   2.406  19.047  0.00  0.00    +0.000 A 
ATOM     16  C   UNL     1       1.055   2.867  19.425  0.00  0.00    +0.000 A 
ATOM     17  C   UNL     1       0.782   3.191  20.759  0.00  0.00    +0.000 A 
ATOM     18  C   UNL     1       1.775   3.071  21.727  0.00  0.00    +0.000 A 
ATOM     19  C   UNL     1       3.043   2.623  21.364  0.00  0.00    +0.000 A 
ATOM     20  C   UNL     1       3.318   2.296  20.033  0.00  0.00    +0.000 A 
ENDBRANCH  14  15
ENDBRANCH  13  14
ENDBRANCH   2  13
TORSDOF 6
ENDMDL
MODEL 4
REMARK VINA RESULT:      -6.7      0.414      1.827
REMARK  Name = 
REMARK  7 active torsions:
REMARK  status: ('A' for Active; 'I' for Inactive)
REMARK    1  A    between atoms: C_1  and  C_2
REMARK    2  A    between atoms: C_2  and  C_3
REMARK    3  A    between atoms: C_3  and  C_13
REMARK    4  A    between atoms: N_4  and  C_5
REMARK    5  A    between atoms: C_5  and  C_6
REMARK    6  A    between atoms: C_6  and  C_7
REMARK    7  A    between atoms: C_14  and  O_15
REMARK                            x       y       z     vdW  Elec       q    Type
REMARK                         _______ _______ _______ _____ _____    ______ ____
ROOT
ATOM      1  C   UNL     1       4.288   4.993  17.606  0.00  0.00    +0.000 C 
ATOM      2  N   UNL     1       4.289   3.839  16.997  0.00  0.00    +0.000 NA
ENDROOT
BRANCH   1   3
ATOM      3  C   UNL     1       5.612   5.696  17.784  0.00  0.00    +0.000 C 
ATOM      4  C   UNL     1       6.498   5.567  18.780  0.00  0.00    +0.000 C 
ATOM      5  C   UNL     1       7.732   6.405  18.690  0.00  0.00    +0.000 C 
ATOM      6  C   UNL     1       7.601   7.115  17.356  0.00  0.00    +0.000 C 
ATOM      7  C   UNL     1       6.241   6.693  16.883  0.00  0.00    +0.000 C 
ATOM      8  O   UNL     1       5.738   7.127  15.854  0.00  0.00    +0.000 OA
BRANCH   4   9
ATOM      9  O   UNL     1       6.374   4.736  19.866  0.00  0.00    +0.000 OA
ATOM     10  H   UNL     1       5.413   4.595  20.013  0.00  0.00    +0.000 HD
ENDBRANCH   4   9
ENDBRANCH   1   3
BRANCH   1  12
ATOM     11  C   UNL     1       2.883   7.269  18.110  0.00  0.00    +0.000 C 
ATOM     12  C   UNL     1       3.090   5.771  18.195  0.00  0.00    +0.000 C 
ENDBRANCH   1  12
BRANCH   2  13
ATOM     13  C   UNL     1       3.016   3.128  16.829  0.00  0.00    +0.000 C 
BRANCH  13  14
ATOM     14  C   UNL     1       2.867   1.915  17.750  0.00  0.00    +0.000 C 
BRANCH  14  15
ATOM     15  C   UNL     1       2.412   2.370  19.128  0.00  0.00    +0.000 A 
ATOM     16  C   UNL     1       3.273   2.298  20.234  0.00  0.00    +0.000 A 
ATOM     17  C   UNL     1       2.826   2.659  21.510  0.00  0.00    +0.000 A 
ATOM     18  C   UNL     1       1.515   3.084  21.699  0.00  0.00    +0.000 A 
ATOM     19  C   UNL     1       0.646   3.151  20.613  0.00  0.00    +0.000 A 
ATOM     20  C   UNL     1       1.090   2.793  19.336  0.00  0.00    +0.000 A 
ENDBRANCH  14  15
ENDBRANCH  13  14
ENDBRANCH   2  13
TORSDOF 6
ENDMDL
MODEL 5
REMARK VINA RESULT:      -6.6      2.093      5.656
REMARK  Name = 
REMARK  7 active torsions:
REMARK  status: ('A' for Active; 'I' for Inactive)
REMARK    1  A    between atoms: C_1  and  C_2
REMARK    2  A    between atoms: C_2  and  C_3
REMARK    3  A    between atoms: C_3  and  C_13
REMARK    4  A    between atoms: N_4  and  C_5
REMARK    5  A    between atoms: C_5  and  C_6
REMARK    6  A    between atoms: C_6  and  C_7
REMARK    7  A    between atoms: C_14  and  O_15
REMARK                            x       y       z     vdW  Elec       q    Type
REMARK                         _______ _______ _______ _____ _____    ______ ____
ROOT
ATOM      1  C   UNL     1       3.712   4.326  18.479  0.00  0.00    +0.000 C 
ATOM      2  N   UNL     1       4.068   3.615  17.443  0.00  0.00    +0.000 NA
ENDROOT
BRANCH   1   3
ATOM      3  C   UNL     1       3.162   3.594  19.678  0.00  0.00    +0.000 C 
ATOM      4  C   UNL     1       3.734   2.620  20.398  0.00  0.00    +0.000 C 
ATOM      5  C   UNL     1       2.940   2.076  21.540  0.00  0.00    +0.000 C 
ATOM      6  C   UNL     1       1.687   2.932  21.559  0.00  0.00    +0.000 C 
ATOM      7  C   UNL     1       1.851   3.796  20.345  0.00  0.00    +0.000 C 
ATOM      8  O   UNL     1       0.990   4.585  19.977  0.00  0.00    +0.000 OA
BRANCH   4   9
ATOM      9  O   UNL     1       4.980   2.084  20.180  0.00  0.00    +0.000 OA
ATOM     10  H   UNL     1       5.098   1.354  20.828  0.00  0.00    +0.000 HD
ENDBRANCH   4   9
ENDBRANCH   1   3
BRANCH   1  12
ATOM     11  C   UNL     1       2.779   6.854  18.093  0.00  0.00    +0.000 C 
ATOM     12  C   UNL     1       3.771   5.859  18.661  0.00  0.00    +0.000 C 
ENDBRANCH   1  12
BRANCH   2  13
ATOM     13  C   UNL     1       4.588   4.306  16.258  0.00  0.00    +0.000 C 
BRANCH  13  14
ATOM     14  C   UNL     1       6.110   4.212  16.114  0.00  0.00    +0.000 C 
BRANCH  14  15
ATOM     15  C   UNL     1       6.775   5.230  17.026  0.00  0.00    +0.000 A 
ATOM     16  C   UNL     1       6.869   6.580  16.655  0.00  0.00    +0.000 A 
ATOM     17  C   UNL     1       7.539   7.499  17.471  0.00  0.00    +0.000 A 
ATOM     18  C   UNL     1       8.132   7.080  18.658  0.00  0.00    +0.000 A 
ATOM     19  C   UNL     1       8.055   5.741  19.034  0.00  0.00    +0.000 A 
ATOM     20  C   UNL     1       7.384   4.822  18.223  0.00  0.00    +0.000 A 
ENDBRANCH  14  15
ENDBRANCH  13  14
ENDBRANCH   2  13
TORSDOF 6
ENDMDL
MODEL 6
REMARK VINA RESULT:      -6.5      1.956      5.541
REMARK  Name = 
REMARK  7 active torsions:
REMARK  status: ('A' for Active; 'I' for Inactive)
REMARK    1  A    between atoms: C_1  and  C_2
REMARK    2  A    between atoms: C_2  and  C_3
REMARK    3  A    between atoms: C_3  and  C_13
REMARK    4  A    between atoms: N_4  and  C_5
REMARK    5  A    between atoms: C_5  and  C_6
REMARK    6  A    between atoms: C_6  and  C_7
REMARK    7  A    between atoms: C_14  and  O_15
REMARK                            x       y       z     vdW  Elec       q    Type
REMARK                         _______ _______ _______ _____ _____    ______ ____
ROOT
ATOM      1  C   UNL     1       3.566   4.063  18.034  0.00  0.00    +0.000 C 
ATOM      2  N   UNL     1       4.358   3.369  17.264  0.00  0.00    +0.000 NA
ENDROOT
BRANCH   1   3
ATOM      3  C   UNL     1       3.106   3.430  19.325  0.00  0.00    +0.000 C 
ATOM      4  C   UNL     1       3.804   2.665  20.175  0.00  0.00    +0.000 C 
ATOM      5  C   UNL     1       3.076   2.169  21.381  0.00  0.00    +0.000 C 
ATOM      6  C   UNL     1       1.707   2.815  21.278  0.00  0.00    +0.000 C 
ATOM      7  C   UNL     1       1.765   3.517  19.955  0.00  0.00    +0.000 C 
ATOM      8  O   UNL     1       0.802   4.105  19.478  0.00  0.00    +0.000 OA
BRANCH   4   9
ATOM      9  O   UNL     1       5.122   2.303  20.036  0.00  0.00    +0.000 OA
ATOM     10  H   UNL     1       5.648   2.900  20.612  0.00  0.00    +0.000 HD
ENDBRANCH   4   9
ENDBRANCH   1   3
BRANCH   1  12
ATOM     11  C   UNL     1       3.235   6.677  18.719  0.00  0.00    +0.000 C 
ATOM     12  C   UNL     1       3.007   5.486  17.810  0.00  0.00    +0.000 C 
ENDBRANCH   1  12
BRANCH   2  13
ATOM     13  C   UNL     1       4.803   3.957  15.995  0.00  0.00    +0.000 C 
BRANCH  13  14
ATOM     14  C   UNL     1       6.325   3.978  15.831  0.00  0.00    +0.000 C 
BRANCH  14  15
ATOM     15  C   UNL     1       6.928   5.008  16.772  0.00  0.00    +0.000 A 
ATOM     16  C   UNL     1       7.528   4.619  17.980  0.00  0.00    +0.000 A 
ATOM     17  C   UNL     1       8.024   5.578  18.871  0.00  0.00    +0.000 A 
ATOM     18  C   UNL     1       7.917   6.933  18.573  0.00  0.00    +0.000 A 
ATOM     19  C   UNL     1       7.315   7.334  17.382  0.00  0.00    +0.000 A 
ATOM     20  C   UNL     1       6.822   6.378  16.489  0.00  0.00    +0.000 A 
ENDBRANCH  14  15
ENDBRANCH  13  14
ENDBRANCH   2  13
TORSDOF 6
ENDMDL
MODEL 7
REMARK VINA RESULT:      -6.5      1.454      2.349
REMARK  Name = 
REMARK  7 active torsions:
REMARK  status: ('A' for Active; 'I' for Inactive)
REMARK    1  A    between atoms: C_1  and  C_2
REMARK    2  A    between atoms: C_2  and  C_3
REMARK    3  A    between atoms: C_3  and  C_13
REMARK    4  A    between atoms: N_4  and  C_5
REMARK    5  A    between atoms: C_5  and  C_6
REMARK    6  A    between atoms: C_6  and  C_7
REMARK    7  A    between atoms: C_14  and  O_15
REMARK                            x       y       z     vdW  Elec       q    Type
REMARK                         _______ _______ _______ _____ _____    ______ ____
ROOT
ATOM      1  C   UNL     1       5.531   4.331  16.719  0.00  0.00    +0.000 C 
ATOM      2  N   UNL     1       4.477   4.011  17.420  0.00  0.00    +0.000 NA
ENDROOT
BRANCH   1   3
ATOM      3  C   UNL     1       6.350   5.512  17.179  0.00  0.00    +0.000 C 
ATOM      4  C   UNL     1       6.235   6.798  16.821  0.00  0.00    +0.000 C 
ATOM      5  C   UNL     1       7.200   7.754  17.443  0.00  0.00    +0.000 C 
ATOM      6  C   UNL     1       7.996   6.899  18.411  0.00  0.00    +0.000 C 
ATOM      7  C   UNL     1       7.475   5.518  18.147  0.00  0.00    +0.000 C 
ATOM      8  O   UNL     1       7.934   4.525  18.696  0.00  0.00    +0.000 OA
BRANCH   4   9
ATOM      9  O   UNL     1       5.313   7.310  15.941  0.00  0.00    +0.000 OA
ATOM     10  H   UNL     1       5.206   6.652  15.219  0.00  0.00    +0.000 HD
ENDBRANCH   4   9
ENDBRANCH   1   3
BRANCH   1  12
ATOM     11  C   UNL     1       5.788   4.092  14.019  0.00  0.00    +0.000 C 
ATOM     12  C   UNL     1       6.079   3.657  15.441  0.00  0.00    +0.000 C 
ENDBRANCH   1  12
BRANCH   2  13
ATOM     13  C   UNL     1       3.654   2.878  16.981  0.00  0.00    +0.000 C 
BRANCH  13  14
ATOM     14  C   UNL     1       3.551   1.759  18.020  0.00  0.00    +0.000 C 
BRANCH  14  15
ATOM     15  C   UNL     1       2.738   2.239  19.212  0.00  0.00    +0.000 A 
ATOM     16  C   UNL     1       1.403   2.645  19.059  0.00  0.00    +0.000 A 
ATOM     17  C   UNL     1       0.681   3.146  20.149  0.00  0.00    +0.000 A 
ATOM     18  C   UNL     1       1.285   3.258  21.398  0.00  0.00    +0.000 A 
ATOM     19  C   UNL     1       2.612   2.868  21.562  0.00  0.00    +0.000 A 
ATOM     20  C   UNL     1       3.334   2.364  20.476  0.00  0.00    +0.000 A 
ENDBRANCH  14  15
ENDBRANCH  13  14
ENDBRANCH   2  13
TORSDOF 6
ENDMDL
MODEL 8
REMARK VINA RESULT:      -6.5      1.466      2.107
REMARK  Name = 
REMARK  7 active torsions:
REMARK  status: ('A' for Active; 'I' for Inactive)
REMARK    1  A    between atoms: C_1  and  C_2
REMARK    2  A    between atoms: C_2  and  C_3
REMARK    3  A    between atoms: C_3  and  C_13
REMARK    4  A    between atoms: N_4  and  C_5
REMARK    5  A    between atoms: C_5  and  C_6
REMARK    6  A    between atoms: C_6  and  C_7
REMARK    7  A    between atoms: C_14  and  O_15
REMARK                            x       y       z     vdW  Elec       q    Type
REMARK                         _______ _______ _______ _____ _____    ______ ____
ROOT
ATOM      1  C   UNL     1       5.588   4.338  16.714  0.00  0.00    +0.000 C 
ATOM      2  N   UNL     1       4.544   3.995  17.418  0.00  0.00    +0.000 NA
ENDROOT
BRANCH   1   3
ATOM      3  C   UNL     1       6.397   5.522  17.186  0.00  0.00    +0.000 C 
ATOM      4  C   UNL     1       6.283   6.807  16.828  0.00  0.00    +0.000 C 
ATOM      5  C   UNL     1       7.235   7.766  17.464  0.00  0.00    +0.000 C 
ATOM      6  C   UNL     1       8.020   6.914  18.443  0.00  0.00    +0.000 C 
ATOM      7  C   UNL     1       7.507   5.531  18.170  0.00  0.00    +0.000 C 
ATOM      8  O   UNL     1       7.962   4.539  18.726  0.00  0.00    +0.000 OA
BRANCH   4   9
ATOM      9  O   UNL     1       5.371   7.317  15.935  0.00  0.00    +0.000 OA
ATOM     10  H   UNL     1       4.838   7.986  16.418  0.00  0.00    +0.000 HD
ENDBRANCH   4   9
ENDBRANCH   1   3
BRANCH   1  12
ATOM     11  C   UNL     1       5.814   4.136  14.009  0.00  0.00    +0.000 C 
ATOM     12  C   UNL     1       6.134   3.691  15.422  0.00  0.00    +0.000 C 
ENDBRANCH   1  12
BRANCH   2  13
ATOM     13  C   UNL     1       3.732   2.859  16.968  0.00  0.00    +0.000 C 
BRANCH  13  14
ATOM     14  C   UNL     1       3.557   1.772  18.032  0.00  0.00    +0.000 C 
BRANCH  14  15
ATOM     15  C   UNL     1       2.774   2.329  19.210  0.00  0.00    +0.000 A 
ATOM     16  C   UNL     1       3.347   2.399  20.490  0.00  0.00    +0.000 A 
ATOM     17  C   UNL     1       2.599   2.854  21.582  0.00  0.00    +0.000 A 
ATOM     18  C   UNL     1       1.270   3.231  21.413  0.00  0.00    +0.000 A 
ATOM     19  C   UNL     1       0.686   3.158  20.151  0.00  0.00    +0.000 A 
ATOM     20  C   UNL     1       1.431   2.707  19.058  0.00  0.00    +0.000 A 
ENDBRANCH  14  15
ENDBRANCH  13  14
ENDBRANCH   2  13
TORSDOF 6
ENDMDL
MODEL 9
REMARK VINA RESULT:      -6.4      2.025      5.558
REMARK  Name = 
REMARK  7 active torsions:
REMARK  status: ('A' for Active; 'I' for Inactive)
REMARK    1  A    between atoms: C_1  and  C_2
REMARK    2  A    between atoms: C_2  and  C_3
REMARK    3  A    between atoms: C_3  and  C_13
REMARK    4  A    between atoms: N_4  and  C_5
REMARK    5  A    between atoms: C_5  and  C_6
REMARK    6  A    between atoms: C_6  and  C_7
REMARK    7  A    between atoms: C_14  and  O_15
REMARK                            x       y       z     vdW  Elec       q    Type
REMARK                         _______ _______ _______ _____ _____    ______ ____
ROOT
ATOM      1  C   UNL     1       3.239   4.419  18.000  0.00  0.00    +0.000 C 
ATOM      2  N   UNL     1       4.111   3.715  17.333  0.00  0.00    +0.000 NA
ENDROOT
BRANCH   1   3
ATOM      3  C   UNL     1       2.638   3.803  19.240  0.00  0.00    +0.000 C 
ATOM      4  C   UNL     1       2.189   2.554  19.419  0.00  0.00    +0.000 C 
ATOM      5  C   UNL     1       1.637   2.227  20.767  0.00  0.00    +0.000 C 
ATOM      6  C   UNL     1       1.862   3.491  21.576  0.00  0.00    +0.000 C 
ATOM      7  C   UNL     1       2.414   4.446  20.559  0.00  0.00    +0.000 C 
ATOM      8  O   UNL     1       2.659   5.617  20.820  0.00  0.00    +0.000 OA
BRANCH   4   9
ATOM      9  O   UNL     1       2.194   1.553  18.477  0.00  0.00    +0.000 OA
ATOM     10  H   UNL     1       2.871   0.898  18.756  0.00  0.00    +0.000 HD
ENDBRANCH   4   9
ENDBRANCH   1   3
BRANCH   1  12
ATOM     11  C   UNL     1       3.514   7.118  17.780  0.00  0.00    +0.000 C 
ATOM     12  C   UNL     1       2.708   5.838  17.695  0.00  0.00    +0.000 C 
ENDBRANCH   1  12
BRANCH   2  13
ATOM     13  C   UNL     1       4.695   4.285  16.113  0.00  0.00    +0.000 C 
BRANCH  13  14
ATOM     14  C   UNL     1       6.214   4.112  16.023  0.00  0.00    +0.000 C 
BRANCH  14  15
ATOM     15  C   UNL     1       6.899   5.114  16.938  0.00  0.00    +0.000 A 
ATOM     16  C   UNL     1       7.445   4.714  18.168  0.00  0.00    +0.000 A 
ATOM     17  C   UNL     1       8.018   5.653  19.033  0.00  0.00    +0.000 A 
ATOM     18  C   UNL     1       8.042   7.001  18.688  0.00  0.00    +0.000 A 
ATOM     19  C   UNL     1       7.495   7.414  17.475  0.00  0.00    +0.000 A 
ATOM     20  C   UNL     1       6.925   6.478  16.608  0.00  0.00    +0.000 A 
ENDBRANCH  14  15
ENDBRANCH  13  14
ENDBRANCH   2  13
TORSDOF 6
ENDMDL
