MODEL 1
REMARK VINA RESULT:      -7.9      0.000      0.000
REMARK  Name = 
REMARK  5 active torsions:
REMARK  status: ('A' for Active; 'I' for Inactive)
REMARK    1  A    between atoms: C_2  and  C_3
REMARK    2  A    between atoms: C_15  and  C_16
REMARK    3  A    between atoms: C_16  and  O_17
REMARK    4  A    between atoms: O_17  and  C_18
REMARK    5  A    between atoms: C_18  and  C_19
REMARK                            x       y       z     vdW  Elec       q    Type
REMARK                         _______ _______ _______ _____ _____    ______ ____
ROOT
ATOM      1  O   UNL     1       5.428   3.414  19.769  0.00  0.00    +0.000 OA
ATOM      2  C   UNL     1       4.484   4.083  19.366  0.00  0.00    +0.000 C 
ATOM      3  N   UNL     1       4.623   5.282  18.671  0.00  0.00    +0.000 N 
ATOM      4  C   UNL     1       3.547   6.203  18.317  0.00  0.00    +0.000 C 
ATOM      5  C   UNL     1       4.152   7.254  17.394  0.00  0.00    +0.000 C 
ATOM      6  C   UNL     1       5.398   6.563  16.870  0.00  0.00    +0.000 C 
ATOM      7  O   UNL     1       4.971   5.706  15.800  0.00  0.00    +0.000 OA
ATOM      8  C   UNL     1       5.940   4.748  15.361  0.00  0.00    +0.000 C 
ATOM      9  C   UNL     1       6.485   3.914  16.526  0.00  0.00    +0.000 C 
ATOM     10  C   UNL     1       6.962   4.787  17.677  0.00  0.00    +0.000 C 
ATOM     11  C   UNL     1       5.889   5.780  18.109  0.00  0.00    +0.000 C 
ENDROOT
BRANCH   2  12
ATOM     12  C   UNL     1       3.118   3.532  19.552  0.00  0.00    +0.000 A 
ATOM     13  C   UNL     1       2.387   3.731  20.725  0.00  0.00    +0.000 A 
ATOM     14  C   UNL     1       1.064   3.329  20.758  0.00  0.00    +0.000 A 
ATOM     15  N   UNL     1       0.455   2.676  19.747  0.00  0.00    +0.000 NA
ATOM     16  C   UNL     1       1.210   2.413  18.654  0.00  0.00    +0.000 A 
ATOM     17  C   UNL     1       2.524   2.820  18.506  0.00  0.00    +0.000 A 
ATOM     18  F   UNL     1       3.171   2.552  17.364  0.00  0.00    +0.000 F 
ENDBRANCH   2  12
BRANCH   8  19
ATOM     19  C   UNL     1       7.027   5.415  14.504  0.00  0.00    +0.000 C 
BRANCH  19  20
ATOM     20  O   UNL     1       7.124   4.746  13.252  0.00  0.00    +0.000 OA
BRANCH  20  21
ATOM     21  C   UNL     1       6.330   3.568  13.205  0.00  0.00    +0.000 C 
BRANCH  21  22
ATOM     22  C   UNL     1       5.901   3.369  11.787  0.00  0.00    +0.000 C 
ATOM     23  C   UNL     1       5.451   2.015  11.306  0.00  0.00    +0.000 C 
ATOM     24  C   UNL     1       4.451   3.129  11.448  0.00  0.00    +0.000 C 
ENDBRANCH  21  22
ENDBRANCH  20  21
ENDBRANCH  19  20
ENDBRANCH   8  19
TORSDOF 5
ENDMDL
MODEL 2
REMARK VINA RESULT:      -7.5      2.349      3.336
REMARK  Name = 
REMARK  5 active torsions:
REMARK  status: ('A' for Active; 'I' for Inactive)
REMARK    1  A    between atoms: C_2  and  C_3
REMARK    2  A    between atoms: C_15  and  C_16
REMARK    3  A    between atoms: C_16  and  O_17
REMARK    4  A    between atoms: O_17  and  C_18
REMARK    5  A    between atoms: C_18  and  C_19
REMARK                            x       y       z     vdW  Elec       q    Type
REMARK                         _______ _______ _______ _____ _____    ______ ____
ROOT
ATOM      1  O   UNL     1       2.175   4.713  17.702  0.00  0.00    +0.000 OA
ATOM      2  C   UNL     1       2.966   5.420  18.315  0.00  0.00    +0.000 C 
ATOM      3  N   UNL     1       4.319   5.124  18.463  0.00  0.00    +0.000 N 
ATOM      4  C   UNL     1       5.268   5.831  19.317  0.00  0.00    +0.000 C 
ATOM      5  C   UNL     1       6.652   5.281  18.989  0.00  0.00    +0.000 C 
ATOM      6  C   UNL     1       6.455   4.678  17.610  0.00  0.00    +0.000 C 
ATOM      7  O   UNL     1       6.540   5.764  16.673  0.00  0.00    +0.000 OA
ATOM      8  C   UNL     1       6.095   5.463  15.346  0.00  0.00    +0.000 C 
ATOM      9  C   UNL     1       4.683   4.866  15.341  0.00  0.00    +0.000 C 
ATOM     10  C   UNL     1       4.554   3.701  16.311  0.00  0.00    +0.000 C 
ATOM     11  C   UNL     1       5.033   4.081  17.708  0.00  0.00    +0.000 C 
ENDROOT
BRANCH   2  12
ATOM     12  C   UNL     1       2.466   6.711  18.851  0.00  0.00    +0.000 A 
ATOM     13  C   UNL     1       2.399   7.867  18.069  0.00  0.00    +0.000 A 
ATOM     14  C   UNL     1       1.769   8.984  18.591  0.00  0.00    +0.000 A 
ATOM     15  N   UNL     1       1.287   9.052  19.848  0.00  0.00    +0.000 NA
ATOM     16  C   UNL     1       1.445   7.949  20.618  0.00  0.00    +0.000 A 
ATOM     17  C   UNL     1       2.012   6.768  20.172  0.00  0.00    +0.000 A 
ATOM     18  F   UNL     1       2.079   5.717  20.997  0.00  0.00    +0.000 F 
ENDBRANCH   2  12
BRANCH   8  19
ATOM     19  C   UNL     1       7.135   4.621  14.592  0.00  0.00    +0.000 C 
BRANCH  19  20
ATOM     20  O   UNL     1       7.490   5.275  13.380  0.00  0.00    +0.000 OA
BRANCH  20  21
ATOM     21  C   UNL     1       7.292   4.448  12.241  0.00  0.00    +0.000 C 
BRANCH  21  22
ATOM     22  C   UNL     1       6.258   3.429  12.597  0.00  0.00    +0.000 C 
ATOM     23  C   UNL     1       4.941   3.388  11.868  0.00  0.00    +0.000 C 
ATOM     24  C   UNL     1       5.946   2.289  11.661  0.00  0.00    +0.000 C 
ENDBRANCH  21  22
ENDBRANCH  20  21
ENDBRANCH  19  20
ENDBRANCH   8  19
TORSDOF 5
ENDMDL
MODEL 3
REMARK VINA RESULT:      -7.5      1.128      1.526
REMARK  Name = 
REMARK  5 active torsions:
REMARK  status: ('A' for Active; 'I' for Inactive)
REMARK    1  A    between atoms: C_2  and  C_3
REMARK    2  A    between atoms: C_15  and  C_16
REMARK    3  A    between atoms: C_16  and  O_17
REMARK    4  A    between atoms: O_17  and  C_18
REMARK    5  A    between atoms: C_18  and  C_19
REMARK                            x       y       z     vdW  Elec       q    Type
REMARK                         _______ _______ _______ _____ _____    ______ ____
ROOT
ATOM      1  O   UNL     1       5.440   3.611  19.535  0.00  0.00    +0.000 OA
ATOM      2  C   UNL     1       4.533   4.290  19.069  0.00  0.00    +0.000 C 
ATOM      3  N   UNL     1       4.735   5.426  18.289  0.00  0.00    +0.000 N 
ATOM      4  C   UNL     1       3.708   6.366  17.851  0.00  0.00    +0.000 C 
ATOM      5  C   UNL     1       4.372   7.315  16.861  0.00  0.00    +0.000 C 
ATOM      6  C   UNL     1       5.590   6.530  16.408  0.00  0.00    +0.000 C 
ATOM      7  O   UNL     1       5.134   5.615  15.399  0.00  0.00    +0.000 OA
ATOM      8  C   UNL     1       6.062   4.584  15.047  0.00  0.00    +0.000 C 
ATOM      9  C   UNL     1       6.555   3.815  16.279  0.00  0.00    +0.000 C 
ATOM     10  C   UNL     1       7.060   4.749  17.368  0.00  0.00    +0.000 C 
ATOM     11  C   UNL     1       6.030   5.821  17.709  0.00  0.00    +0.000 C 
ENDROOT
BRANCH   2  12
ATOM     12  C   UNL     1       3.141   3.818  19.276  0.00  0.00    +0.000 A 
ATOM     13  C   UNL     1       2.591   2.769  18.536  0.00  0.00    +0.000 A 
ATOM     14  C   UNL     1       1.349   2.280  18.900  0.00  0.00    +0.000 A 
ATOM     15  N   UNL     1       0.593   2.814  19.881  0.00  0.00    +0.000 NA
ATOM     16  C   UNL     1       1.108   3.888  20.525  0.00  0.00    +0.000 A 
ATOM     17  C   UNL     1       2.361   4.417  20.270  0.00  0.00    +0.000 A 
ATOM     18  F   UNL     1       2.799   5.452  20.997  0.00  0.00    +0.000 F 
ENDBRANCH   2  12
BRANCH   8  19
ATOM     19  C   UNL     1       7.188   5.132  14.159  0.00  0.00    +0.000 C 
BRANCH  19  20
ATOM     20  O   UNL     1       7.112   4.537  12.869  0.00  0.00    +0.000 OA
BRANCH  20  21
ATOM     21  C   UNL     1       6.167   3.476  12.818  0.00  0.00    +0.000 C 
BRANCH  21  22
ATOM     22  C   UNL     1       6.258   2.855  11.462  0.00  0.00    +0.000 C 
ATOM     23  C   UNL     1       7.372   1.898  11.131  0.00  0.00    +0.000 C 
ATOM     24  C   UNL     1       5.964   1.389  11.265  0.00  0.00    +0.000 C 
ENDBRANCH  21  22
ENDBRANCH  20  21
ENDBRANCH  19  20
ENDBRANCH   8  19
TORSDOF 5
ENDMDL
MODEL 4
REMARK VINA RESULT:      -7.3      2.194      3.013
REMARK  Name = 
REMARK  5 active torsions:
REMARK  status: ('A' for Active; 'I' for Inactive)
REMARK    1  A    between atoms: C_2  and  C_3
REMARK    2  A    between atoms: C_15  and  C_16
REMARK    3  A    between atoms: C_16  and  O_17
REMARK    4  A    between atoms: O_17  and  C_18
REMARK    5  A    between atoms: C_18  and  C_19
REMARK                            x       y       z     vdW  Elec       q    Type
REMARK                         _______ _______ _______ _____ _____    ______ ____
ROOT
ATOM      1  O   UNL     1       2.427   4.139  18.070  0.00  0.00    +0.000 OA
ATOM      2  C   UNL     1       3.141   4.979  18.604  0.00  0.00    +0.000 C 
ATOM      3  N   UNL     1       4.531   4.896  18.656  0.00  0.00    +0.000 N 
ATOM      4  C   UNL     1       5.418   5.769  19.419  0.00  0.00    +0.000 C 
ATOM      5  C   UNL     1       6.843   5.423  19.001  0.00  0.00    +0.000 C 
ATOM      6  C   UNL     1       6.644   4.749  17.656  0.00  0.00    +0.000 C 
ATOM      7  O   UNL     1       6.495   5.802  16.690  0.00  0.00    +0.000 OA
ATOM      8  C   UNL     1       6.009   5.389  15.408  0.00  0.00    +0.000 C 
ATOM      9  C   UNL     1       4.709   4.585  15.524  0.00  0.00    +0.000 C 
ATOM     10  C   UNL     1       4.829   3.450  16.529  0.00  0.00    +0.000 C 
ATOM     11  C   UNL     1       5.341   3.947  17.876  0.00  0.00    +0.000 C 
ENDROOT
BRANCH   2  12
ATOM     12  C   UNL     1       2.488   6.197  19.144  0.00  0.00    +0.000 A 
ATOM     13  C   UNL     1       1.871   6.219  20.397  0.00  0.00    +0.000 A 
ATOM     14  C   UNL     1       1.433   7.431  20.899  0.00  0.00    +0.000 A 
ATOM     15  N   UNL     1       1.489   8.590  20.212  0.00  0.00    +0.000 NA
ATOM     16  C   UNL     1       2.008   8.529  18.963  0.00  0.00    +0.000 A 
ATOM     17  C   UNL     1       2.521   7.376  18.394  0.00  0.00    +0.000 A 
ATOM     18  F   UNL     1       3.058   7.430  17.169  0.00  0.00    +0.000 F 
ENDBRANCH   2  12
BRANCH   8  19
ATOM     19  C   UNL     1       7.110   4.689  14.599  0.00  0.00    +0.000 C 
BRANCH  19  20
ATOM     20  O   UNL     1       7.212   5.289  13.313  0.00  0.00    +0.000 OA
BRANCH  20  21
ATOM     21  C   UNL     1       7.205   4.327  12.265  0.00  0.00    +0.000 C 
BRANCH  21  22
ATOM     22  C   UNL     1       6.118   3.345  12.561  0.00  0.00    +0.000 C 
ATOM     23  C   UNL     1       4.810   3.405  11.820  0.00  0.00    +0.000 C 
ATOM     24  C   UNL     1       5.761   2.269  11.567  0.00  0.00    +0.000 C 
ENDBRANCH  21  22
ENDBRANCH  20  21
ENDBRANCH  19  20
ENDBRANCH   8  19
TORSDOF 5
ENDMDL
MODEL 5
REMARK VINA RESULT:      -6.9      2.532      6.746
REMARK  Name = 
REMARK  5 active torsions:
REMARK  status: ('A' for Active; 'I' for Inactive)
REMARK    1  A    between atoms: C_2  and  C_3
REMARK    2  A    between atoms: C_15  and  C_16
REMARK    3  A    between atoms: C_16  and  O_17
REMARK    4  A    between atoms: O_17  and  C_18
REMARK    5  A    between atoms: C_18  and  C_19
REMARK                            x       y       z     vdW  Elec       q    Type
REMARK                         _______ _______ _______ _____ _____    ______ ____
ROOT
ATOM      1  O   UNL     1       5.212   6.883  14.780  0.00  0.00    +0.000 OA
ATOM      2  C   UNL     1       5.883   5.901  15.072  0.00  0.00    +0.000 C 
ATOM      3  N   UNL     1       6.393   5.660  16.345  0.00  0.00    +0.000 N 
ATOM      4  C   UNL     1       7.334   4.605  16.712  0.00  0.00    +0.000 C 
ATOM      5  C   UNL     1       7.433   4.612  18.233  0.00  0.00    +0.000 C 
ATOM      6  C   UNL     1       6.153   5.313  18.649  0.00  0.00    +0.000 C 
ATOM      7  O   UNL     1       5.113   4.324  18.608  0.00  0.00    +0.000 OA
ATOM      8  C   UNL     1       3.779   4.837  18.683  0.00  0.00    +0.000 C 
ATOM      9  C   UNL     1       3.525   5.920  17.628  0.00  0.00    +0.000 C 
ATOM     10  C   UNL     1       4.599   6.997  17.648  0.00  0.00    +0.000 C 
ATOM     11  C   UNL     1       5.997   6.395  17.557  0.00  0.00    +0.000 C 
ENDROOT
BRANCH   2  12
ATOM     12  C   UNL     1       6.085   4.867  14.026  0.00  0.00    +0.000 A 
ATOM     13  C   UNL     1       5.122   3.895  13.743  0.00  0.00    +0.000 A 
ATOM     14  C   UNL     1       5.313   3.073  12.647  0.00  0.00    +0.000 A 
ATOM     15  N   UNL     1       6.421   3.096  11.878  0.00  0.00    +0.000 NA
ATOM     16  C   UNL     1       7.381   3.985  12.226  0.00  0.00    +0.000 A 
ATOM     17  C   UNL     1       7.261   4.884  13.271  0.00  0.00    +0.000 A 
ATOM     18  F   UNL     1       8.248   5.757  13.504  0.00  0.00    +0.000 F 
ENDBRANCH   2  12
BRANCH   8  19
ATOM     19  C   UNL     1       3.430   5.264  20.117  0.00  0.00    +0.000 C 
BRANCH  19  20
ATOM     20  O   UNL     1       2.099   4.865  20.423  0.00  0.00    +0.000 OA
BRANCH  20  21
ATOM     21  C   UNL     1       2.058   3.729  21.277  0.00  0.00    +0.000 C 
BRANCH  21  22
ATOM     22  C   UNL     1       1.229   2.686  20.600  0.00  0.00    +0.000 C 
ATOM     23  C   UNL     1       0.668   2.927  19.224  0.00  0.00    +0.000 C 
ATOM     24  C   UNL     1       1.769   1.922  19.417  0.00  0.00    +0.000 C 
ENDBRANCH  21  22
ENDBRANCH  20  21
ENDBRANCH  19  20
ENDBRANCH   8  19
TORSDOF 5
ENDMDL
MODEL 6
REMARK VINA RESULT:      -6.3      3.126      5.311
REMARK  Name = 
REMARK  5 active torsions:
REMARK  status: ('A' for Active; 'I' for Inactive)
REMARK    1  A    between atoms: C_2  and  C_3
REMARK    2  A    between atoms: C_15  and  C_16
REMARK    3  A    between atoms: C_16  and  O_17
REMARK    4  A    between atoms: O_17  and  C_18
REMARK    5  A    between atoms: C_18  and  C_19
REMARK                            x       y       z     vdW  Elec       q    Type
REMARK                         _______ _______ _______ _____ _____    ______ ____
ROOT
ATOM      1  O   UNL     1       2.061   6.188  17.707  0.00  0.00    +0.000 OA
ATOM      2  C   UNL     1       2.604   5.107  17.896  0.00  0.00    +0.000 C 
ATOM      3  N   UNL     1       3.740   4.678  17.214  0.00  0.00    +0.000 N 
ATOM      4  C   UNL     1       4.327   3.343  17.271  0.00  0.00    +0.000 C 
ATOM      5  C   UNL     1       5.658   3.415  16.531  0.00  0.00    +0.000 C 
ATOM      6  C   UNL     1       5.978   4.898  16.559  0.00  0.00    +0.000 C 
ATOM      7  O   UNL     1       6.551   5.169  17.848  0.00  0.00    +0.000 OA
ATOM      8  C   UNL     1       6.656   6.554  18.191  0.00  0.00    +0.000 C 
ATOM      9  C   UNL     1       5.314   7.281  18.043  0.00  0.00    +0.000 C 
ATOM     10  C   UNL     1       4.679   7.032  16.683  0.00  0.00    +0.000 C 
ATOM     11  C   UNL     1       4.585   5.542  16.374  0.00  0.00    +0.000 C 
ENDROOT
BRANCH   2  12
ATOM     12  C   UNL     1       2.067   4.245  18.980  0.00  0.00    +0.000 A 
ATOM     13  C   UNL     1       1.187   3.190  18.727  0.00  0.00    +0.000 A 
ATOM     14  C   UNL     1       0.864   2.334  19.764  0.00  0.00    +0.000 A 
ATOM     15  N   UNL     1       1.283   2.505  21.034  0.00  0.00    +0.000 NA
ATOM     16  C   UNL     1       2.063   3.586  21.274  0.00  0.00    +0.000 A 
ATOM     17  C   UNL     1       2.483   4.469  20.295  0.00  0.00    +0.000 A 
ATOM     18  F   UNL     1       3.294   5.482  20.627  0.00  0.00    +0.000 F 
ENDBRANCH   2  12
BRANCH   8  19
ATOM     19  C   UNL     1       7.818   7.223  17.443  0.00  0.00    +0.000 C 
BRANCH  19  20
ATOM     20  O   UNL     1       8.453   8.169  18.295  0.00  0.00    +0.000 OA
BRANCH  20  21
ATOM     21  C   UNL     1       8.199   9.510  17.899  0.00  0.00    +0.000 C 
BRANCH  21  22
ATOM     22  C   UNL     1       9.142  10.390  18.654  0.00  0.00    +0.000 C 
ATOM     23  C   UNL     1      10.259  11.104  17.942  0.00  0.00    +0.000 C 
ATOM     24  C   UNL     1       9.098  11.888  18.486  0.00  0.00    +0.000 C 
ENDBRANCH  21  22
ENDBRANCH  20  21
ENDBRANCH  19  20
ENDBRANCH   8  19
TORSDOF 5
ENDMDL
MODEL 7
REMARK VINA RESULT:      -6.3      2.199      2.983
REMARK  Name = 
REMARK  5 active torsions:
REMARK  status: ('A' for Active; 'I' for Inactive)
REMARK    1  A    between atoms: C_2  and  C_3
REMARK    2  A    between atoms: C_15  and  C_16
REMARK    3  A    between atoms: C_16  and  O_17
REMARK    4  A    between atoms: O_17  and  C_18
REMARK    5  A    between atoms: C_18  and  C_19
REMARK                            x       y       z     vdW  Elec       q    Type
REMARK                         _______ _______ _______ _____ _____    ______ ____
ROOT
ATOM      1  O   UNL     1       2.956   3.975  18.389  0.00  0.00    +0.000 OA
ATOM      2  C   UNL     1       3.648   4.918  18.752  0.00  0.00    +0.000 C 
ATOM      3  N   UNL     1       5.032   4.965  18.609  0.00  0.00    +0.000 N 
ATOM      4  C   UNL     1       5.924   5.976  19.172  0.00  0.00    +0.000 C 
ATOM      5  C   UNL     1       7.305   5.725  18.578  0.00  0.00    +0.000 C 
ATOM      6  C   UNL     1       6.992   4.925  17.327  0.00  0.00    +0.000 C 
ATOM      7  O   UNL     1       6.607   5.874  16.320  0.00  0.00    +0.000 OA
ATOM      8  C   UNL     1       5.994   5.312  15.155  0.00  0.00    +0.000 C 
ATOM      9  C   UNL     1       4.810   4.407  15.514  0.00  0.00    +0.000 C 
ATOM     10  C   UNL     1       5.180   3.377  16.569  0.00  0.00    +0.000 C 
ATOM     11  C   UNL     1       5.820   4.030  17.789  0.00  0.00    +0.000 C 
ENDROOT
BRANCH   2  12
ATOM     12  C   UNL     1       2.956   6.115  19.294  0.00  0.00    +0.000 A 
ATOM     13  C   UNL     1       2.899   7.323  18.595  0.00  0.00    +0.000 A 
ATOM     14  C   UNL     1       2.097   8.337  19.089  0.00  0.00    +0.000 A 
ATOM     15  N   UNL     1       1.428   8.260  20.258  0.00  0.00    +0.000 NA
ATOM     16  C   UNL     1       1.570   7.113  20.962  0.00  0.00    +0.000 A 
ATOM     17  C   UNL     1       2.306   6.023  20.528  0.00  0.00    +0.000 A 
ATOM     18  F   UNL     1       2.345   4.915  21.277  0.00  0.00    +0.000 F 
ENDBRANCH   2  12
BRANCH   8  19
ATOM     19  C   UNL     1       7.038   4.647  14.246  0.00  0.00    +0.000 C 
BRANCH  19  20
ATOM     20  O   UNL     1       6.453   3.533  13.583  0.00  0.00    +0.000 OA
BRANCH  20  21
ATOM     21  C   UNL     1       6.129   3.819  12.228  0.00  0.00    +0.000 C 
BRANCH  21  22
ATOM     22  C   UNL     1       4.717   3.386  12.001  0.00  0.00    +0.000 C 
ATOM     23  C   UNL     1       4.024   3.689  10.699  0.00  0.00    +0.000 C 
ATOM     24  C   UNL     1       4.400   2.272  11.035  0.00  0.00    +0.000 C 
ENDBRANCH  21  22
ENDBRANCH  20  21
ENDBRANCH  19  20
ENDBRANCH   8  19
TORSDOF 5
ENDMDL
MODEL 8
REMARK VINA RESULT:      -6.2      2.955      5.152
REMARK  Name = 
REMARK  5 active torsions:
REMARK  status: ('A' for Active; 'I' for Inactive)
REMARK    1  A    between atoms: C_2  and  C_3
REMARK    2  A    between atoms: C_15  and  C_16
REMARK    3  A    between atoms: C_16  and  O_17
REMARK    4  A    between atoms: O_17  and  C_18
REMARK    5  A    between atoms: C_18  and  C_19
REMARK                            x       y       z     vdW  Elec       q    Type
REMARK                         _______ _______ _______ _____ _____    ______ ____
ROOT
ATOM      1  O   UNL     1       2.112   6.298  18.058  0.00  0.00    +0.000 OA
ATOM      2  C   UNL     1       2.668   5.211  18.161  0.00  0.00    +0.000 C 
ATOM      3  N   UNL     1       3.714   4.793  17.343  0.00  0.00    +0.000 N 
ATOM      4  C   UNL     1       4.298   3.455  17.304  0.00  0.00    +0.000 C 
ATOM      5  C   UNL     1       5.534   3.539  16.416  0.00  0.00    +0.000 C 
ATOM      6  C   UNL     1       5.862   5.021  16.436  0.00  0.00    +0.000 C 
ATOM      7  O   UNL     1       6.583   5.263  17.654  0.00  0.00    +0.000 OA
ATOM      8  C   UNL     1       6.733   6.642  18.010  0.00  0.00    +0.000 C 
ATOM      9  C   UNL     1       5.387   7.375  18.033  0.00  0.00    +0.000 C 
ATOM     10  C   UNL     1       4.597   7.155  16.752  0.00  0.00    +0.000 C 
ATOM     11  C   UNL     1       4.460   5.672  16.427  0.00  0.00    +0.000 C 
ENDROOT
BRANCH   2  12
ATOM     12  C   UNL     1       2.257   4.329  19.283  0.00  0.00    +0.000 A 
ATOM     13  C   UNL     1       2.765   4.481  20.575  0.00  0.00    +0.000 A 
ATOM     14  C   UNL     1       2.211   3.730  21.597  0.00  0.00    +0.000 A 
ATOM     15  N   UNL     1       1.261   2.792  21.406  0.00  0.00    +0.000 NA
ATOM     16  C   UNL     1       0.848   2.599  20.132  0.00  0.00    +0.000 A 
ATOM     17  C   UNL     1       1.302   3.335  19.051  0.00  0.00    +0.000 A 
ATOM     18  F   UNL     1       0.795   3.099  17.834  0.00  0.00    +0.000 F 
ENDBRANCH   2  12
BRANCH   8  19
ATOM     19  C   UNL     1       7.804   7.322  17.144  0.00  0.00    +0.000 C 
BRANCH  19  20
ATOM     20  O   UNL     1       7.787   8.725  17.380  0.00  0.00    +0.000 OA
BRANCH  20  21
ATOM     21  C   UNL     1       8.534   9.089  18.533  0.00  0.00    +0.000 C 
BRANCH  21  22
ATOM     22  C   UNL     1       9.315  10.318  18.196  0.00  0.00    +0.000 C 
ATOM     23  C   UNL     1       8.611  11.620  17.921  0.00  0.00    +0.000 C 
ATOM     24  C   UNL     1       9.419  11.457  19.178  0.00  0.00    +0.000 C 
ENDBRANCH  21  22
ENDBRANCH  20  21
ENDBRANCH  19  20
ENDBRANCH   8  19
TORSDOF 5
ENDMDL
MODEL 9
REMARK VINA RESULT:      -6.0      3.301      4.730
REMARK  Name = 
REMARK  5 active torsions:
REMARK  status: ('A' for Active; 'I' for Inactive)
REMARK    1  A    between atoms: C_2  and  C_3
REMARK    2  A    between atoms: C_15  and  C_16
REMARK    3  A    between atoms: C_16  and  O_17
REMARK    4  A    between atoms: O_17  and  C_18
REMARK    5  A    between atoms: C_18  and  C_19
REMARK                            x       y       z     vdW  Elec       q    Type
REMARK                         _______ _______ _______ _____ _____    ______ ____
ROOT
ATOM      1  O   UNL     1       2.295   8.267  17.392  0.00  0.00    +0.000 OA
ATOM      2  C   UNL     1       2.137   7.697  18.464  0.00  0.00    +0.000 C 
ATOM      3  N   UNL     1       2.472   6.364  18.690  0.00  0.00    +0.000 N 
ATOM      4  C   UNL     1       2.153   5.585  19.883  0.00  0.00    +0.000 C 
ATOM      5  C   UNL     1       2.898   4.262  19.759  0.00  0.00    +0.000 C 
ATOM      6  C   UNL     1       3.997   4.588  18.764  0.00  0.00    +0.000 C 
ATOM      7  O   UNL     1       5.042   5.235  19.508  0.00  0.00    +0.000 OA
ATOM      8  C   UNL     1       6.042   5.884  18.716  0.00  0.00    +0.000 C 
ATOM      9  C   UNL     1       5.426   6.859  17.705  0.00  0.00    +0.000 C 
ATOM     10  C   UNL     1       4.323   6.207  16.886  0.00  0.00    +0.000 C 
ATOM     11  C   UNL     1       3.282   5.539  17.779  0.00  0.00    +0.000 C 
ENDROOT
BRANCH   2  12
ATOM     12  C   UNL     1       1.643   8.502  19.609  0.00  0.00    +0.000 A 
ATOM     13  C   UNL     1       1.743   8.060  20.930  0.00  0.00    +0.000 A 
ATOM     14  C   UNL     1       1.413   8.936  21.949  0.00  0.00    +0.000 A 
ATOM     15  N   UNL     1       0.915  10.172  21.741  0.00  0.00    +0.000 NA
ATOM     16  C   UNL     1       0.741  10.545  20.451  0.00  0.00    +0.000 A 
ATOM     17  C   UNL     1       1.090   9.762  19.365  0.00  0.00    +0.000 A 
ATOM     18  F   UNL     1       0.922  10.243  18.126  0.00  0.00    +0.000 F 
ENDBRANCH   2  12
BRANCH   8  19
ATOM     19  C   UNL     1       7.005   4.862  18.094  0.00  0.00    +0.000 C 
BRANCH  19  20
ATOM     20  O   UNL     1       7.347   5.269  16.775  0.00  0.00    +0.000 OA
BRANCH  20  21
ATOM     21  C   UNL     1       7.154   4.231  15.822  0.00  0.00    +0.000 C 
BRANCH  21  22
ATOM     22  C   UNL     1       6.573   4.850  14.592  0.00  0.00    +0.000 C 
ATOM     23  C   UNL     1       6.954   4.343  13.227  0.00  0.00    +0.000 C 
ATOM     24  C   UNL     1       5.567   4.101  13.754  0.00  0.00    +0.000 C 
ENDBRANCH  21  22
ENDBRANCH  20  21
ENDBRANCH  19  20
ENDBRANCH   8  19
TORSDOF 5
ENDMDL
