MODEL 1
REMARK VINA RESULT:      -7.6      0.000      0.000
REMARK  Name = 
REMARK  8 active torsions:
REMARK  status: ('A' for Active; 'I' for Inactive)
REMARK    1  A    between atoms: C_1  and  C_2
REMARK    2  A    between atoms: C_5  and  C_6
REMARK    3  A    between atoms: C_6  and  C_8
REMARK    4  A    between atoms: C_8  and  N_9
REMARK    5  A    between atoms: C_8  and  N_17
REMARK    6  A    between atoms: C_10  and  C_12
REMARK    7  A    between atoms: N_17  and  C_18
REMARK    8  A    between atoms: C_22  and  C_23
REMARK                            x       y       z     vdW  Elec       q    Type
REMARK                         _______ _______ _______ _____ _____    ______ ____
ROOT
ATOM      1  C   UNL     1       6.577   6.545  17.207  0.00  0.00    +0.000 C 
ENDROOT
BRANCH   1   2
ATOM      2  N   UNL     1       7.130   7.860  17.371  0.00  0.00    +0.000 N 
ATOM      3  C   UNL     1       8.110   8.106  18.307  0.00  0.00    +0.000 C 
ATOM      4  O   UNL     1       8.526   7.240  19.073  0.00  0.00    +0.000 OA
ATOM      5  H   UNL     1       6.874   8.589  16.718  0.00  0.00    +0.000 HD
BRANCH   3   6
ATOM      6  C   UNL     1       8.650   9.449  18.309  0.00  0.00    +0.000 A 
ATOM      7  C   UNL     1       8.320  10.543  17.528  0.00  0.00    +0.000 A 
ATOM      8  C   UNL     1       9.078  11.634  18.012  0.00  0.00    +0.000 A 
ATOM      9  C   UNL     1       9.835  11.139  19.048  0.00  0.00    +0.000 A 
ATOM     10  O   UNL     1       9.599   9.812  19.226  0.00  0.00    +0.000 OA
ENDBRANCH   3   6
ENDBRANCH   1   2
BRANCH   1  11
ATOM     11  C   UNL     1       5.636   6.485  15.977  0.00  0.00    +0.000 C 
ATOM     12  O   UNL     1       4.598   7.147  15.900  0.00  0.00    +0.000 OA
BRANCH  11  17
ATOM     13  C   UNL     1       6.651   2.778  11.634  0.00  0.00    +0.000 C 
ATOM     14  C   UNL     1       6.422   3.643  12.840  0.00  0.00    +0.000 A 
ATOM     15  C   UNL     1       5.190   3.625  13.504  0.00  0.00    +0.000 A 
ATOM     16  C   UNL     1       4.937   4.507  14.560  0.00  0.00    +0.000 A 
ATOM     17  C   UNL     1       5.912   5.429  14.954  0.00  0.00    +0.000 A 
ATOM     18  C   UNL     1       7.167   5.410  14.333  0.00  0.00    +0.000 A 
ATOM     19  C   UNL     1       7.414   4.530  13.275  0.00  0.00    +0.000 A 
ENDBRANCH  11  17
ENDBRANCH   1  11
BRANCH   1  20
ATOM     20  N   UNL     1       5.773   6.272  18.386  0.00  0.00    +0.000 N 
ATOM     21  H   UNL     1       6.039   6.796  19.216  0.00  0.00    +0.000 HD
BRANCH  20  22
ATOM     22  C   UNL     1       4.781   5.334  18.444  0.00  0.00    +0.000 A 
ATOM     23  S   UNL     1       5.089   3.660  18.178  0.00  0.00    +0.000 S 
ATOM     24  C   UNL     1       3.513   3.208  18.548  0.00  0.00    +0.000 A 
ATOM     25  C   UNL     1       2.696   4.290  18.792  0.00  0.00    +0.000 A 
ATOM     26  C   UNL     1       3.427   5.546  18.733  0.00  0.00    +0.000 A 
ATOM     27  C   UNL     1       1.223   4.102  19.037  0.00  0.00    +0.000 C 
ATOM     28  C   UNL     1       0.888   2.657  19.445  0.00  0.00    +0.000 C 
ATOM     29  C   UNL     1       1.586   1.630  18.546  0.00  0.00    +0.000 C 
ATOM     30  C   UNL     1       3.111   1.770  18.607  0.00  0.00    +0.000 C 
BRANCH  26  31
ATOM     31  C   UNL     1       2.806   6.859  18.949  0.00  0.00    +0.000 C 
ATOM     32  N   UNL     1       2.638   7.643  17.842  0.00  0.00    +0.000 N 
ATOM     33  O   UNL     1       2.380   7.247  20.030  0.00  0.00    +0.000 OA
ATOM     34  H   UNL     1       2.692   7.221  16.922  0.00  0.00    +0.000 HD
ATOM     35  H   UNL     1       2.051   8.457  17.963  0.00  0.00    +0.000 HD
ENDBRANCH  26  31
ENDBRANCH  20  22
ENDBRANCH   1  20
TORSDOF 7
ENDMDL
MODEL 2
REMARK VINA RESULT:      -7.3      6.253      8.432
REMARK  Name = 
REMARK  8 active torsions:
REMARK  status: ('A' for Active; 'I' for Inactive)
REMARK    1  A    between atoms: C_1  and  C_2
REMARK    2  A    between atoms: C_5  and  C_6
REMARK    3  A    between atoms: C_6  and  C_8
REMARK    4  A    between atoms: C_8  and  N_9
REMARK    5  A    between atoms: C_8  and  N_17
REMARK    6  A    between atoms: C_10  and  C_12
REMARK    7  A    between atoms: N_17  and  C_18
REMARK    8  A    between atoms: C_22  and  C_23
REMARK                            x       y       z     vdW  Elec       q    Type
REMARK                         _______ _______ _______ _____ _____    ______ ____
ROOT
ATOM      1  C   UNL     1       0.226  12.018  18.889  0.00  0.00    +0.000 C 
ENDROOT
BRANCH   1   2
ATOM      2  N   UNL     1       0.392  13.400  19.238  0.00  0.00    +0.000 N 
ATOM      3  C   UNL     1       1.485  14.117  18.803  0.00  0.00    +0.000 C 
ATOM      4  O   UNL     1       2.388  13.608  18.142  0.00  0.00    +0.000 OA
ATOM      5  H   UNL     1      -0.357  13.883  19.718  0.00  0.00    +0.000 HD
BRANCH   3   6
ATOM      6  C   UNL     1       1.488  15.523  19.143  0.00  0.00    +0.000 A 
ATOM      7  C   UNL     1       2.100  16.184  20.195  0.00  0.00    +0.000 A 
ATOM      8  C   UNL     1       1.868  17.565  19.999  0.00  0.00    +0.000 A 
ATOM      9  C   UNL     1       1.119  17.665  18.850  0.00  0.00    +0.000 A 
ATOM     10  O   UNL     1       0.865  16.433  18.332  0.00  0.00    +0.000 OA
ENDBRANCH   3   6
ENDBRANCH   1   2
BRANCH   1  11
ATOM     11  C   UNL     1      -1.214  11.534  19.194  0.00  0.00    +0.000 C 
ATOM     12  O   UNL     1      -1.631  11.366  20.342  0.00  0.00    +0.000 OA
BRANCH  11  17
ATOM     13  C   UNL     1      -4.064   9.988  14.385  0.00  0.00    +0.000 C 
ATOM     14  C   UNL     1      -3.404  10.308  15.695  0.00  0.00    +0.000 A 
ATOM     15  C   UNL     1      -3.923  11.305  16.528  0.00  0.00    +0.000 A 
ATOM     16  C   UNL     1      -3.250  11.680  17.696  0.00  0.00    +0.000 A 
ATOM     17  C   UNL     1      -2.040  11.068  18.036  0.00  0.00    +0.000 A 
ATOM     18  C   UNL     1      -1.547  10.027  17.239  0.00  0.00    +0.000 A 
ATOM     19  C   UNL     1      -2.221   9.659  16.070  0.00  0.00    +0.000 A 
ENDBRANCH  11  17
ENDBRANCH   1  11
BRANCH   1  20
ATOM     20  N   UNL     1       1.131  11.255  19.732  0.00  0.00    +0.000 N 
ATOM     21  H   UNL     1       1.605  11.797  20.451  0.00  0.00    +0.000 HD
BRANCH  20  22
ATOM     22  C   UNL     1       1.416   9.929  19.559  0.00  0.00    +0.000 A 
ATOM     23  S   UNL     1       2.025   9.312  18.071  0.00  0.00    +0.000 S 
ATOM     24  C   UNL     1       2.235   7.762  18.684  0.00  0.00    +0.000 A 
ATOM     25  C   UNL     1       1.777   7.638  19.978  0.00  0.00    +0.000 A 
ATOM     26  C   UNL     1       1.291   8.904  20.504  0.00  0.00    +0.000 A 
ATOM     27  C   UNL     1       1.777   6.301  20.669  0.00  0.00    +0.000 C 
ATOM     28  C   UNL     1       2.732   5.304  19.991  0.00  0.00    +0.000 C 
ATOM     29  C   UNL     1       2.575   5.304  18.466  0.00  0.00    +0.000 C 
ATOM     30  C   UNL     1       2.872   6.684  17.868  0.00  0.00    +0.000 C 
BRANCH  26  31
ATOM     31  C   UNL     1       0.742   9.064  21.857  0.00  0.00    +0.000 C 
ATOM     32  N   UNL     1      -0.587   8.785  22.011  0.00  0.00    +0.000 N 
ATOM     33  O   UNL     1       1.411   9.360  22.839  0.00  0.00    +0.000 OA
ATOM     34  H   UNL     1      -1.068   8.249  21.297  0.00  0.00    +0.000 HD
ATOM     35  H   UNL     1      -0.916   8.718  22.964  0.00  0.00    +0.000 HD
ENDBRANCH  26  31
ENDBRANCH  20  22
ENDBRANCH   1  20
TORSDOF 7
ENDMDL
MODEL 3
REMARK VINA RESULT:      -7.3      6.178      9.792
REMARK  Name = 
REMARK  8 active torsions:
REMARK  status: ('A' for Active; 'I' for Inactive)
REMARK    1  A    between atoms: C_1  and  C_2
REMARK    2  A    between atoms: C_5  and  C_6
REMARK    3  A    between atoms: C_6  and  C_8
REMARK    4  A    between atoms: C_8  and  N_9
REMARK    5  A    between atoms: C_8  and  N_17
REMARK    6  A    between atoms: C_10  and  C_12
REMARK    7  A    between atoms: N_17  and  C_18
REMARK    8  A    between atoms: C_22  and  C_23
REMARK                            x       y       z     vdW  Elec       q    Type
REMARK                         _______ _______ _______ _____ _____    ______ ____
ROOT
ATOM      1  C   UNL     1       1.295  10.301  18.606  0.00  0.00    +0.000 C 
ENDROOT
BRANCH   1   2
ATOM      2  N   UNL     1       0.140  10.317  17.754  0.00  0.00    +0.000 N 
ATOM      3  C   UNL     1      -1.121  10.521  18.270  0.00  0.00    +0.000 C 
ATOM      4  O   UNL     1      -1.330  10.651  19.473  0.00  0.00    +0.000 OA
ATOM      5  H   UNL     1       0.266  10.286  16.750  0.00  0.00    +0.000 HD
BRANCH   3   6
ATOM      6  C   UNL     1      -2.189  10.607  17.297  0.00  0.00    +0.000 A 
ATOM      7  C   UNL     1      -2.449   9.822  16.187  0.00  0.00    +0.000 A 
ATOM      8  C   UNL     1      -3.672  10.275  15.643  0.00  0.00    +0.000 A 
ATOM      9  C   UNL     1      -4.079  11.318  16.443  0.00  0.00    +0.000 A 
ATOM     10  O   UNL     1      -3.179  11.542  17.437  0.00  0.00    +0.000 OA
ENDBRANCH   3   6
ENDBRANCH   1   2
BRANCH   1  11
ATOM     11  C   UNL     1       1.329   9.020  19.477  0.00  0.00    +0.000 C 
ATOM     12  O   UNL     1       0.831   8.969  20.605  0.00  0.00    +0.000 OA
BRANCH  11  17
ATOM     13  C   UNL     1       4.983   4.773  17.979  0.00  0.00    +0.000 C 
ATOM     14  C   UNL     1       3.949   5.817  18.289  0.00  0.00    +0.000 A 
ATOM     15  C   UNL     1       3.805   6.940  17.468  0.00  0.00    +0.000 A 
ATOM     16  C   UNL     1       2.919   7.967  17.813  0.00  0.00    +0.000 A 
ATOM     17  C   UNL     1       2.177   7.886  18.995  0.00  0.00    +0.000 A 
ATOM     18  C   UNL     1       2.273   6.737  19.790  0.00  0.00    +0.000 A 
ATOM     19  C   UNL     1       3.162   5.715  19.444  0.00  0.00    +0.000 A 
ENDBRANCH  11  17
ENDBRANCH   1  11
BRANCH   1  20
ATOM     20  N   UNL     1       1.176  11.437  19.504  0.00  0.00    +0.000 N 
ATOM     21  H   UNL     1       0.773  11.224  20.413  0.00  0.00    +0.000 HD
BRANCH  20  22
ATOM     22  C   UNL     1       1.495  12.724  19.169  0.00  0.00    +0.000 A 
ATOM     23  S   UNL     1       2.952  13.118  18.339  0.00  0.00    +0.000 S 
ATOM     24  C   UNL     1       2.544  14.741  18.185  0.00  0.00    +0.000 A 
ATOM     25  C   UNL     1       1.361  15.051  18.821  0.00  0.00    +0.000 A 
ATOM     26  C   UNL     1       0.735  13.876  19.405  0.00  0.00    +0.000 A 
ATOM     27  C   UNL     1       0.876  16.474  18.891  0.00  0.00    +0.000 C 
ATOM     28  C   UNL     1       1.544  17.362  17.827  0.00  0.00    +0.000 C 
ATOM     29  C   UNL     1       3.060  17.141  17.763  0.00  0.00    +0.000 C 
ATOM     30  C   UNL     1       3.404  15.689  17.414  0.00  0.00    +0.000 C 
BRANCH  26  31
ATOM     31  C   UNL     1      -0.533  13.914  20.145  0.00  0.00    +0.000 C 
ATOM     32  N   UNL     1      -1.672  13.724  19.413  0.00  0.00    +0.000 N 
ATOM     33  O   UNL     1      -0.615  14.037  21.361  0.00  0.00    +0.000 OA
ATOM     34  H   UNL     1      -1.604  13.317  18.487  0.00  0.00    +0.000 HD
ATOM     35  H   UNL     1      -2.517  13.568  19.945  0.00  0.00    +0.000 HD
ENDBRANCH  26  31
ENDBRANCH  20  22
ENDBRANCH   1  20
TORSDOF 7
ENDMDL
MODEL 4
REMARK VINA RESULT:      -7.2      6.623      8.862
REMARK  Name = 
REMARK  8 active torsions:
REMARK  status: ('A' for Active; 'I' for Inactive)
REMARK    1  A    between atoms: C_1  and  C_2
REMARK    2  A    between atoms: C_5  and  C_6
REMARK    3  A    between atoms: C_6  and  C_8
REMARK    4  A    between atoms: C_8  and  N_9
REMARK    5  A    between atoms: C_8  and  N_17
REMARK    6  A    between atoms: C_10  and  C_12
REMARK    7  A    between atoms: N_17  and  C_18
REMARK    8  A    between atoms: C_22  and  C_23
REMARK                            x       y       z     vdW  Elec       q    Type
REMARK                         _______ _______ _______ _____ _____    ______ ____
ROOT
ATOM      1  C   UNL     1       0.705  10.894  19.101  0.00  0.00    +0.000 C 
ENDROOT
BRANCH   1   2
ATOM      2  N   UNL     1       1.451  12.079  19.416  0.00  0.00    +0.000 N 
ATOM      3  C   UNL     1       1.557  12.528  20.714  0.00  0.00    +0.000 C 
ATOM      4  O   UNL     1       0.991  11.974  21.653  0.00  0.00    +0.000 OA
ATOM      5  H   UNL     1       1.994  12.529  18.690  0.00  0.00    +0.000 HD
BRANCH   3   6
ATOM      6  C   UNL     1       2.412  13.679  20.910  0.00  0.00    +0.000 A 
ATOM      7  C   UNL     1       3.320  14.271  20.049  0.00  0.00    +0.000 A 
ATOM      8  C   UNL     1       3.809  15.425  20.703  0.00  0.00    +0.000 A 
ATOM      9  C   UNL     1       3.183  15.462  21.927  0.00  0.00    +0.000 A 
ATOM     10  O   UNL     1       2.348  14.398  22.073  0.00  0.00    +0.000 OA
ENDBRANCH   3   6
ENDBRANCH   1   2
BRANCH   1  11
ATOM     11  C   UNL     1       1.599   9.840  18.402  0.00  0.00    +0.000 C 
ATOM     12  O   UNL     1       1.993   9.967  17.240  0.00  0.00    +0.000 OA
BRANCH  11  17
ATOM     13  C   UNL     1       2.009   4.599  20.852  0.00  0.00    +0.000 C 
ATOM     14  C   UNL     1       2.012   5.987  20.280  0.00  0.00    +0.000 A 
ATOM     15  C   UNL     1       1.433   7.048  20.985  0.00  0.00    +0.000 A 
ATOM     16  C   UNL     1       1.337   8.319  20.409  0.00  0.00    +0.000 A 
ATOM     17  C   UNL     1       1.810   8.540  19.111  0.00  0.00    +0.000 A 
ATOM     18  C   UNL     1       2.444   7.497  18.425  0.00  0.00    +0.000 A 
ATOM     19  C   UNL     1       2.533   6.227  19.002  0.00  0.00    +0.000 A 
ENDBRANCH  11  17
ENDBRANCH   1  11
BRANCH   1  20
ATOM     20  N   UNL     1      -0.332  11.281  18.159  0.00  0.00    +0.000 N 
ATOM     21  H   UNL     1      -0.005  11.463  17.214  0.00  0.00    +0.000 HD
BRANCH  20  22
ATOM     22  C   UNL     1      -1.644  11.477  18.492  0.00  0.00    +0.000 A 
ATOM     23  S   UNL     1      -2.110  12.223  19.973  0.00  0.00    +0.000 S 
ATOM     24  C   UNL     1      -3.743  12.223  19.575  0.00  0.00    +0.000 A 
ATOM     25  C   UNL     1      -3.995  11.592  18.377  0.00  0.00    +0.000 A 
ATOM     26  C   UNL     1      -2.771  11.147  17.730  0.00  0.00    +0.000 A 
ATOM     27  C   UNL     1      -5.407  11.392  17.895  0.00  0.00    +0.000 C 
ATOM     28  C   UNL     1      -6.393  12.343  18.595  0.00  0.00    +0.000 C 
ATOM     29  C   UNL     1      -6.169  12.387  20.112  0.00  0.00    +0.000 C 
ATOM     30  C   UNL     1      -4.758  12.871  20.461  0.00  0.00    +0.000 C 
BRANCH  26  31
ATOM     31  C   UNL     1      -2.743  10.441  16.442  0.00  0.00    +0.000 C 
ATOM     32  N   UNL     1      -2.715  11.223  15.321  0.00  0.00    +0.000 N 
ATOM     33  O   UNL     1      -2.676   9.224  16.327  0.00  0.00    +0.000 OA
ATOM     34  H   UNL     1      -2.456  12.200  15.402  0.00  0.00    +0.000 HD
ATOM     35  H   UNL     1      -2.512  10.743  14.454  0.00  0.00    +0.000 HD
ENDBRANCH  26  31
ENDBRANCH  20  22
ENDBRANCH   1  20
TORSDOF 7
ENDMDL
MODEL 5
REMARK VINA RESULT:      -7.1      6.165      8.815
REMARK  Name = 
REMARK  8 active torsions:
REMARK  status: ('A' for Active; 'I' for Inactive)
REMARK    1  A    between atoms: C_1  and  C_2
REMARK    2  A    between atoms: C_5  and  C_6
REMARK    3  A    between atoms: C_6  and  C_8
REMARK    4  A    between atoms: C_8  and  N_9
REMARK    5  A    between atoms: C_8  and  N_17
REMARK    6  A    between atoms: C_10  and  C_12
REMARK    7  A    between atoms: N_17  and  C_18
REMARK    8  A    between atoms: C_22  and  C_23
REMARK                            x       y       z     vdW  Elec       q    Type
REMARK                         _______ _______ _______ _____ _____    ______ ____
ROOT
ATOM      1  C   UNL     1       0.293  11.847  19.083  0.00  0.00    +0.000 C 
ENDROOT
BRANCH   1   2
ATOM      2  N   UNL     1       0.801  13.181  18.932  0.00  0.00    +0.000 N 
ATOM      3  C   UNL     1       2.006  13.417  18.308  0.00  0.00    +0.000 C 
ATOM      4  O   UNL     1       2.724  12.509  17.894  0.00  0.00    +0.000 OA
ATOM      5  H   UNL     1       0.215  13.965  19.190  0.00  0.00    +0.000 HD
BRANCH   3   6
ATOM      6  C   UNL     1       2.360  14.809  18.136  0.00  0.00    +0.000 A 
ATOM      7  C   UNL     1       3.479  15.378  17.553  0.00  0.00    +0.000 A 
ATOM      8  C   UNL     1       3.275  16.777  17.556  0.00  0.00    +0.000 A 
ATOM      9  C   UNL     1       2.052  16.980  18.151  0.00  0.00    +0.000 A 
ATOM     10  O   UNL     1       1.495  15.796  18.525  0.00  0.00    +0.000 OA
ENDBRANCH   3   6
ENDBRANCH   1   2
BRANCH   1  11
ATOM     11  C   UNL     1      -0.963  11.827  19.990  0.00  0.00    +0.000 C 
ATOM     12  O   UNL     1      -0.899  11.671  21.212  0.00  0.00    +0.000 OA
BRANCH  11  17
ATOM     13  C   UNL     1      -6.299  11.366  17.764  0.00  0.00    +0.000 C 
ATOM     14  C   UNL     1      -4.895  11.577  18.252  0.00  0.00    +0.000 A 
ATOM     15  C   UNL     1      -3.827  10.892  17.661  0.00  0.00    +0.000 A 
ATOM     16  C   UNL     1      -2.533  11.003  18.183  0.00  0.00    +0.000 A 
ATOM     17  C   UNL     1      -2.297  11.792  19.313  0.00  0.00    +0.000 A 
ATOM     18  C   UNL     1      -3.350  12.527  19.870  0.00  0.00    +0.000 A 
ATOM     19  C   UNL     1      -4.642  12.410  19.349  0.00  0.00    +0.000 A 
ENDBRANCH  11  17
ENDBRANCH   1  11
BRANCH   1  20
ATOM     20  N   UNL     1       1.326  11.073  19.750  0.00  0.00    +0.000 N 
ATOM     21  H   UNL     1       1.974  11.618  20.313  0.00  0.00    +0.000 HD
BRANCH  20  22
ATOM     22  C   UNL     1       1.501   9.725  19.598  0.00  0.00    +0.000 A 
ATOM     23  S   UNL     1       1.980   9.029  18.097  0.00  0.00    +0.000 S 
ATOM     24  C   UNL     1       2.106   7.481  18.740  0.00  0.00    +0.000 A 
ATOM     25  C   UNL     1       1.712   7.423  20.059  0.00  0.00    +0.000 A 
ATOM     26  C   UNL     1       1.352   8.734  20.576  0.00  0.00    +0.000 A 
ATOM     27  C   UNL     1       1.649   6.106  20.785  0.00  0.00    +0.000 C 
ATOM     28  C   UNL     1       2.488   5.024  20.085  0.00  0.00    +0.000 C 
ATOM     29  C   UNL     1       2.249   5.001  18.571  0.00  0.00    +0.000 C 
ATOM     30  C   UNL     1       2.615   6.339  17.921  0.00  0.00    +0.000 C 
BRANCH  26  31
ATOM     31  C   UNL     1       0.891   8.966  21.951  0.00  0.00    +0.000 C 
ATOM     32  N   UNL     1      -0.430   8.721  22.200  0.00  0.00    +0.000 N 
ATOM     33  O   UNL     1       1.626   9.294  22.875  0.00  0.00    +0.000 OA
ATOM     34  H   UNL     1      -0.964   8.162  21.543  0.00  0.00    +0.000 HD
ATOM     35  H   UNL     1      -0.700   8.705  23.174  0.00  0.00    +0.000 HD
ENDBRANCH  26  31
ENDBRANCH  20  22
ENDBRANCH   1  20
TORSDOF 7
ENDMDL
MODEL 6
REMARK VINA RESULT:      -7.1      7.821     10.878
REMARK  Name = 
REMARK  8 active torsions:
REMARK  status: ('A' for Active; 'I' for Inactive)
REMARK    1  A    between atoms: C_1  and  C_2
REMARK    2  A    between atoms: C_5  and  C_6
REMARK    3  A    between atoms: C_6  and  C_8
REMARK    4  A    between atoms: C_8  and  N_9
REMARK    5  A    between atoms: C_8  and  N_17
REMARK    6  A    between atoms: C_10  and  C_12
REMARK    7  A    between atoms: N_17  and  C_18
REMARK    8  A    between atoms: C_22  and  C_23
REMARK                            x       y       z     vdW  Elec       q    Type
REMARK                         _______ _______ _______ _____ _____    ______ ____
ROOT
ATOM      1  C   UNL     1      -0.078  12.439  18.936  0.00  0.00    +0.000 C 
ENDROOT
BRANCH   1   2
ATOM      2  N   UNL     1       0.703  11.283  18.597  0.00  0.00    +0.000 N 
ATOM      3  C   UNL     1       0.818  10.223  19.469  0.00  0.00    +0.000 C 
ATOM      4  O   UNL     1       0.305  10.226  20.585  0.00  0.00    +0.000 OA
ATOM      5  H   UNL     1       1.086  11.201  17.664  0.00  0.00    +0.000 HD
BRANCH   3   6
ATOM      6  C   UNL     1       1.556   9.081  18.971  0.00  0.00    +0.000 A 
ATOM      7  C   UNL     1       2.136   8.866  17.733  0.00  0.00    +0.000 A 
ATOM      8  C   UNL     1       2.820   7.631  17.812  0.00  0.00    +0.000 A 
ATOM      9  C   UNL     1       2.606   7.160  19.086  0.00  0.00    +0.000 A 
ATOM     10  O   UNL     1       1.825   8.020  19.794  0.00  0.00    +0.000 OA
ENDBRANCH   3   6
ENDBRANCH   1   2
BRANCH   1  11
ATOM     11  C   UNL     1       0.772  13.483  19.703  0.00  0.00    +0.000 C 
ATOM     12  O   UNL     1       1.245  13.263  20.821  0.00  0.00    +0.000 OA
BRANCH  11  17
ATOM     13  C   UNL     1       0.853  18.630  17.033  0.00  0.00    +0.000 C 
ATOM     14  C   UNL     1       0.853  17.361  17.835  0.00  0.00    +0.000 A 
ATOM     15  C   UNL     1       2.052  16.697  18.115  0.00  0.00    +0.000 A 
ATOM     16  C   UNL     1       2.047  15.460  18.768  0.00  0.00    +0.000 A 
ATOM     17  C   UNL     1       0.836  14.865  19.136  0.00  0.00    +0.000 A 
ATOM     18  C   UNL     1      -0.363  15.553  18.912  0.00  0.00    +0.000 A 
ATOM     19  C   UNL     1      -0.354  16.788  18.256  0.00  0.00    +0.000 A 
ENDBRANCH  11  17
ENDBRANCH   1  11
BRANCH   1  20
ATOM     20  N   UNL     1      -1.133  11.992  19.830  0.00  0.00    +0.000 N 
ATOM     21  H   UNL     1      -0.809  11.553  20.688  0.00  0.00    +0.000 HD
BRANCH  20  22
ATOM     22  C   UNL     1      -2.468  12.062  19.545  0.00  0.00    +0.000 A 
ATOM     23  S   UNL     1      -3.594  12.797  20.622  0.00  0.00    +0.000 S 
ATOM     24  C   UNL     1      -4.882  12.621  19.556  0.00  0.00    +0.000 A 
ATOM     25  C   UNL     1      -4.532  11.936  18.413  0.00  0.00    +0.000 A 
ATOM     26  C   UNL     1      -3.117  11.600  18.394  0.00  0.00    +0.000 A 
ATOM     27  C   UNL     1      -5.568  11.581  17.381  0.00  0.00    +0.000 C 
ATOM     28  C   UNL     1      -6.833  12.446  17.517  0.00  0.00    +0.000 C 
ATOM     29  C   UNL     1      -7.302  12.553  18.973  0.00  0.00    +0.000 C 
ATOM     30  C   UNL     1      -6.230  13.187  19.866  0.00  0.00    +0.000 C 
BRANCH  26  31
ATOM     31  C   UNL     1      -2.471  10.866  17.298  0.00  0.00    +0.000 C 
ATOM     32  N   UNL     1      -2.423  11.499  16.087  0.00  0.00    +0.000 N 
ATOM     33  O   UNL     1      -1.928   9.776  17.428  0.00  0.00    +0.000 OA
ATOM     34  H   UNL     1      -2.579  12.500  16.043  0.00  0.00    +0.000 HD
ATOM     35  H   UNL     1      -1.824  11.076  15.392  0.00  0.00    +0.000 HD
ENDBRANCH  26  31
ENDBRANCH  20  22
ENDBRANCH   1  20
TORSDOF 7
ENDMDL
MODEL 7
REMARK VINA RESULT:      -7.1      7.422      9.597
REMARK  Name = 
REMARK  8 active torsions:
REMARK  status: ('A' for Active; 'I' for Inactive)
REMARK    1  A    between atoms: C_1  and  C_2
REMARK    2  A    between atoms: C_5  and  C_6
REMARK    3  A    between atoms: C_6  and  C_8
REMARK    4  A    between atoms: C_8  and  N_9
REMARK    5  A    between atoms: C_8  and  N_17
REMARK    6  A    between atoms: C_10  and  C_12
REMARK    7  A    between atoms: N_17  and  C_18
REMARK    8  A    between atoms: C_22  and  C_23
REMARK                            x       y       z     vdW  Elec       q    Type
REMARK                         _______ _______ _______ _____ _____    ______ ____
ROOT
ATOM      1  C   UNL     1      -0.376  12.153  19.661  0.00  0.00    +0.000 C 
ENDROOT
BRANCH   1   2
ATOM      2  N   UNL     1       0.642  13.047  19.187  0.00  0.00    +0.000 N 
ATOM      3  C   UNL     1       1.801  13.250  19.904  0.00  0.00    +0.000 C 
ATOM      4  O   UNL     1       2.004  12.721  20.995  0.00  0.00    +0.000 OA
ATOM      5  H   UNL     1       0.555  13.451  18.263  0.00  0.00    +0.000 HD
BRANCH   3   6
ATOM      6  C   UNL     1       2.786  14.102  19.274  0.00  0.00    +0.000 A 
ATOM      7  C   UNL     1       2.935  14.461  17.946  0.00  0.00    +0.000 A 
ATOM      8  C   UNL     1       3.996  15.394  17.891  0.00  0.00    +0.000 A 
ATOM      9  C   UNL     1       4.440  15.539  19.185  0.00  0.00    +0.000 A 
ATOM     10  O   UNL     1       3.728  14.747  20.030  0.00  0.00    +0.000 OA
ENDBRANCH   3   6
ENDBRANCH   1   2
BRANCH   1  11
ATOM     11  C   UNL     1      -0.490  10.904  18.751  0.00  0.00    +0.000 C 
ATOM     12  O   UNL     1      -1.448  10.715  17.998  0.00  0.00    +0.000 OA
BRANCH  11  17
ATOM     13  C   UNL     1       3.017   6.322  19.340  0.00  0.00    +0.000 C 
ATOM     14  C   UNL     1       2.208   7.582  19.226  0.00  0.00    +0.000 A 
ATOM     15  C   UNL     1       1.537   8.099  20.339  0.00  0.00    +0.000 A 
ATOM     16  C   UNL     1       0.696   9.210  20.212  0.00  0.00    +0.000 A 
ATOM     17  C   UNL     1       0.508   9.809  18.962  0.00  0.00    +0.000 A 
ATOM     18  C   UNL     1       1.224   9.333  17.857  0.00  0.00    +0.000 A 
ATOM     19  C   UNL     1       2.060   8.220  17.988  0.00  0.00    +0.000 A 
ENDBRANCH  11  17
ENDBRANCH   1  11
BRANCH   1  20
ATOM     20  N   UNL     1      -1.639  12.867  19.584  0.00  0.00    +0.000 N 
ATOM     21  H   UNL     1      -1.764  13.426  18.743  0.00  0.00    +0.000 HD
BRANCH  20  22
ATOM     22  C   UNL     1      -2.580  12.882  20.575  0.00  0.00    +0.000 A 
ATOM     23  S   UNL     1      -4.266  12.967  20.233  0.00  0.00    +0.000 S 
ATOM     24  C   UNL     1      -4.705  12.798  21.846  0.00  0.00    +0.000 A 
ATOM     25  C   UNL     1      -3.615  12.763  22.689  0.00  0.00    +0.000 A 
ATOM     26  C   UNL     1      -2.360  12.813  21.956  0.00  0.00    +0.000 A 
ATOM     27  C   UNL     1      -3.799  12.724  24.183  0.00  0.00    +0.000 C 
ATOM     28  C   UNL     1      -5.211  12.256  24.575  0.00  0.00    +0.000 C 
ATOM     29  C   UNL     1      -6.299  12.958  23.753  0.00  0.00    +0.000 C 
ATOM     30  C   UNL     1      -6.138  12.685  22.254  0.00  0.00    +0.000 C 
BRANCH  26  31
ATOM     31  C   UNL     1      -1.041  12.795  22.601  0.00  0.00    +0.000 C 
ATOM     32  N   UNL     1      -0.412  14.002  22.734  0.00  0.00    +0.000 N 
ATOM     33  O   UNL     1      -0.521  11.792  23.074  0.00  0.00    +0.000 OA
ATOM     34  H   UNL     1      -0.951  14.856  22.639  0.00  0.00    +0.000 HD
ATOM     35  H   UNL     1       0.400  14.011  23.335  0.00  0.00    +0.000 HD
ENDBRANCH  26  31
ENDBRANCH  20  22
ENDBRANCH   1  20
TORSDOF 7
ENDMDL
MODEL 8
REMARK VINA RESULT:      -7.0      6.622      8.854
REMARK  Name = 
REMARK  8 active torsions:
REMARK  status: ('A' for Active; 'I' for Inactive)
REMARK    1  A    between atoms: C_1  and  C_2
REMARK    2  A    between atoms: C_5  and  C_6
REMARK    3  A    between atoms: C_6  and  C_8
REMARK    4  A    between atoms: C_8  and  N_9
REMARK    5  A    between atoms: C_8  and  N_17
REMARK    6  A    between atoms: C_10  and  C_12
REMARK    7  A    between atoms: N_17  and  C_18
REMARK    8  A    between atoms: C_22  and  C_23
REMARK                            x       y       z     vdW  Elec       q    Type
REMARK                         _______ _______ _______ _____ _____    ______ ____
ROOT
ATOM      1  C   UNL     1       0.775  10.676  18.635  0.00  0.00    +0.000 C 
ENDROOT
BRANCH   1   2
ATOM      2  N   UNL     1       1.190  12.018  18.339  0.00  0.00    +0.000 N 
ATOM      3  C   UNL     1       1.721  12.829  19.318  0.00  0.00    +0.000 C 
ATOM      4  O   UNL     1       1.824  12.472  20.489  0.00  0.00    +0.000 OA
ATOM      5  H   UNL     1       1.192  12.335  17.378  0.00  0.00    +0.000 HD
BRANCH   3   6
ATOM      6  C   UNL     1       2.186  14.125  18.872  0.00  0.00    +0.000 A 
ATOM      7  C   UNL     1       3.378  14.485  18.267  0.00  0.00    +0.000 A 
ATOM      8  C   UNL     1       3.275  15.858  17.947  0.00  0.00    +0.000 A 
ATOM      9  C   UNL     1       2.036  16.259  18.387  0.00  0.00    +0.000 A 
ATOM     10  O   UNL     1       1.372  15.222  18.967  0.00  0.00    +0.000 OA
ENDBRANCH   3   6
ENDBRANCH   1   2
BRANCH   1  11
ATOM     11  C   UNL     1       1.850   9.650  18.199  0.00  0.00    +0.000 C 
ATOM     12  O   UNL     1       2.495   9.765  17.153  0.00  0.00    +0.000 OA
BRANCH  11  17
ATOM     13  C   UNL     1       1.809   4.550  20.959  0.00  0.00    +0.000 C 
ATOM     14  C   UNL     1       1.930   5.896  20.306  0.00  0.00    +0.000 A 
ATOM     15  C   UNL     1       1.432   7.040  20.939  0.00  0.00    +0.000 A 
ATOM     16  C   UNL     1       1.445   8.278  20.288  0.00  0.00    +0.000 A 
ATOM     17  C   UNL     1       1.948   8.382  18.986  0.00  0.00    +0.000 A 
ATOM     18  C   UNL     1       2.503   7.253  18.372  0.00  0.00    +0.000 A 
ATOM     19  C   UNL     1       2.483   6.016  19.025  0.00  0.00    +0.000 A 
ENDBRANCH  11  17
ENDBRANCH   1  11
BRANCH   1  20
ATOM     20  N   UNL     1      -0.420  10.418  17.849  0.00  0.00    +0.000 N 
ATOM     21  H   UNL     1      -0.266   9.879  17.001  0.00  0.00    +0.000 HD
BRANCH  20  22
ATOM     22  C   UNL     1      -1.661  10.909  18.145  0.00  0.00    +0.000 A 
ATOM     23  S   UNL     1      -2.043  11.551  19.697  0.00  0.00    +0.000 S 
ATOM     24  C   UNL     1      -3.582  12.037  19.229  0.00  0.00    +0.000 A 
ATOM     25  C   UNL     1      -3.886  11.659  17.939  0.00  0.00    +0.000 A 
ATOM     26  C   UNL     1      -2.767  10.994  17.291  0.00  0.00    +0.000 A 
ATOM     27  C   UNL     1      -5.257  11.906  17.368  0.00  0.00    +0.000 C 
ATOM     28  C   UNL     1      -6.021  12.984  18.155  0.00  0.00    +0.000 C 
ATOM     29  C   UNL     1      -5.922  12.768  19.670  0.00  0.00    +0.000 C 
ATOM     30  C   UNL     1      -4.468  12.810  20.152  0.00  0.00    +0.000 C 
BRANCH  26  31
ATOM     31  C   UNL     1      -2.813  10.481  15.916  0.00  0.00    +0.000 C 
ATOM     32  N   UNL     1      -2.896   9.124  15.774  0.00  0.00    +0.000 N 
ATOM     33  O   UNL     1      -2.848  11.192  14.919  0.00  0.00    +0.000 OA
ATOM     34  H   UNL     1      -3.180   8.558  16.566  0.00  0.00    +0.000 HD
ATOM     35  H   UNL     1      -3.110   8.790  14.845  0.00  0.00    +0.000 HD
ENDBRANCH  26  31
ENDBRANCH  20  22
ENDBRANCH   1  20
TORSDOF 7
ENDMDL
MODEL 9
REMARK VINA RESULT:      -7.0      6.705      8.892
REMARK  Name = 
REMARK  8 active torsions:
REMARK  status: ('A' for Active; 'I' for Inactive)
REMARK    1  A    between atoms: C_1  and  C_2
REMARK    2  A    between atoms: C_5  and  C_6
REMARK    3  A    between atoms: C_6  and  C_8
REMARK    4  A    between atoms: C_8  and  N_9
REMARK    5  A    between atoms: C_8  and  N_17
REMARK    6  A    between atoms: C_10  and  C_12
REMARK    7  A    between atoms: N_17  and  C_18
REMARK    8  A    between atoms: C_22  and  C_23
REMARK                            x       y       z     vdW  Elec       q    Type
REMARK                         _______ _______ _______ _____ _____    ______ ____
ROOT
ATOM      1  C   UNL     1       0.896  11.011  18.745  0.00  0.00    +0.000 C 
ENDROOT
BRANCH   1   2
ATOM      2  N   UNL     1       1.319  12.341  18.408  0.00  0.00    +0.000 N 
ATOM      3  C   UNL     1       1.900  13.162  19.349  0.00  0.00    +0.000 C 
ATOM      4  O   UNL     1       2.043  12.825  20.522  0.00  0.00    +0.000 OA
ATOM      5  H   UNL     1       1.289  12.639  17.441  0.00  0.00    +0.000 HD
BRANCH   3   6
ATOM      6  C   UNL     1       2.366  14.442  18.861  0.00  0.00    +0.000 A 
ATOM      7  C   UNL     1       2.141  15.717  19.348  0.00  0.00    +0.000 A 
ATOM      8  C   UNL     1       2.913  16.599  18.558  0.00  0.00    +0.000 A 
ATOM      9  C   UNL     1       3.553  15.813  17.628  0.00  0.00    +0.000 A 
ATOM     10  O   UNL     1       3.215  14.505  17.788  0.00  0.00    +0.000 OA
ENDBRANCH   3   6
ENDBRANCH   1   2
BRANCH   1  11
ATOM     11  C   UNL     1       1.887   9.954  18.198  0.00  0.00    +0.000 C 
ATOM     12  O   UNL     1       2.552  10.132  17.174  0.00  0.00    +0.000 OA
BRANCH  11  17
ATOM     13  C   UNL     1       2.234   4.871  20.969  0.00  0.00    +0.000 C 
ATOM     14  C   UNL     1       2.033   6.144  20.200  0.00  0.00    +0.000 A 
ATOM     15  C   UNL     1       2.479   6.255  18.878  0.00  0.00    +0.000 A 
ATOM     16  C   UNL     1       2.392   7.473  18.196  0.00  0.00    +0.000 A 
ATOM     17  C   UNL     1       1.867   8.600  18.835  0.00  0.00    +0.000 A 
ATOM     18  C   UNL     1       1.365   8.481  20.136  0.00  0.00    +0.000 A 
ATOM     19  C   UNL     1       1.458   7.263  20.817  0.00  0.00    +0.000 A 
ENDBRANCH  11  17
ENDBRANCH   1  11
BRANCH   1  20
ATOM     20  N   UNL     1      -0.383  10.793  18.090  0.00  0.00    +0.000 N 
ATOM     21  H   UNL     1      -0.328  10.317  17.194  0.00  0.00    +0.000 HD
BRANCH  20  22
ATOM     22  C   UNL     1      -1.582  11.245  18.566  0.00  0.00    +0.000 A 
ATOM     23  S   UNL     1      -1.737  11.949  20.131  0.00  0.00    +0.000 S 
ATOM     24  C   UNL     1      -3.355  12.344  19.903  0.00  0.00    +0.000 A 
ATOM     25  C   UNL     1      -3.846  11.888  18.699  0.00  0.00    +0.000 A 
ATOM     26  C   UNL     1      -2.815  11.239  17.904  0.00  0.00    +0.000 A 
ATOM     27  C   UNL     1      -5.302  12.047  18.352  0.00  0.00    +0.000 C 
ATOM     28  C   UNL     1      -5.981  13.130  19.208  0.00  0.00    +0.000 C 
ATOM     29  C   UNL     1      -5.625  12.996  20.693  0.00  0.00    +0.000 C 
ATOM     30  C   UNL     1      -4.115  13.124  20.926  0.00  0.00    +0.000 C 
BRANCH  26  31
ATOM     31  C   UNL     1      -3.059  10.655  16.579  0.00  0.00    +0.000 C 
ATOM     32  N   UNL     1      -3.298  11.536  15.561  0.00  0.00    +0.000 N 
ATOM     33  O   UNL     1      -2.993   9.457  16.333  0.00  0.00    +0.000 OA
ATOM     34  H   UNL     1      -3.049  12.512  15.679  0.00  0.00    +0.000 HD
ATOM     35  H   UNL     1      -3.282  11.147  14.628  0.00  0.00    +0.000 HD
ENDBRANCH  26  31
ENDBRANCH  20  22
ENDBRANCH   1  20
TORSDOF 7
ENDMDL
