MODEL 1
REMARK VINA RESULT:      -6.4      0.000      0.000
REMARK  Name = 
REMARK  10 active torsions:
REMARK  status: ('A' for Active; 'I' for Inactive)
REMARK    1  A    between atoms: C_1  and  N_2
REMARK    2  A    between atoms: N_2  and  C_3
REMARK    3  A    between atoms: N_2  and  C_9
REMARK    4  A    between atoms: C_3  and  C_4
REMARK    5  A    between atoms: C_9  and  C_10
REMARK    6  A    between atoms: C_17  and  O_19
REMARK    7  A    between atoms: O_19  and  C_20
REMARK    8  A    between atoms: C_20  and  C_21
REMARK    9  A    between atoms: C_20  and  C_22
REMARK   10  A    between atoms: C_20  and  C_23
REMARK                            x       y       z     vdW  Elec       q    Type
REMARK                         _______ _______ _______ _____ _____    ______ ____
ROOT
ATOM      1  C   UNL     1       1.296   9.192  19.011  0.00  0.00    +0.000 A 
ATOM      2  C   UNL     1       1.821   9.686  17.787  0.00  0.00    +0.000 A 
ATOM      3  N   UNL     1       2.748   8.884  17.252  0.00  0.00    +0.000 NA
ATOM      4  N   UNL     1       2.821   7.871  18.129  0.00  0.00    +0.000 N 
ATOM      5  C   UNL     1       1.987   8.008  19.203  0.00  0.00    +0.000 A 
ATOM      6  C   UNL     1       1.978   7.035  20.318  0.00  0.00    +0.000 C 
ATOM      7  N   UNL     1       2.671   5.818  19.908  0.00  0.00    +0.000 N 
ATOM      8  C   UNL     1       2.052   4.608  20.134  0.00  0.00    +0.000 C 
ATOM      9  O   UNL     1       0.946   4.561  20.679  0.00  0.00    +0.000 OA
ATOM     10  C   UNL     1       3.947   6.009  19.220  0.00  0.00    +0.000 C 
ATOM     11  C   UNL     1       3.717   6.748  17.905  0.00  0.00    +0.000 C 
ENDROOT
BRANCH   1  12
ATOM     12  C   UNL     1       0.275   9.851  19.895  0.00  0.00    +0.000 C 
BRANCH  12  14
ATOM     13  C   UNL     1      -1.713  10.753  18.893  0.00  0.00    +0.000 C 
ATOM     14  N   UNL     1      -0.317  11.049  19.247  0.00  0.00    +0.000 NA
BRANCH  14  15
ATOM     15  C   UNL     1      -0.240  12.201  20.188  0.00  0.00    +0.000 C 
BRANCH  15  16
ATOM     16  C   UNL     1       1.100  12.878  20.178  0.00  0.00    +0.000 A 
ATOM     17  C   UNL     1       1.860  13.243  19.089  0.00  0.00    +0.000 A 
ATOM     18  O   UNL     1       3.015  13.806  19.537  0.00  0.00    +0.000 OA
ATOM     19  C   UNL     1       2.903  13.752  20.892  0.00  0.00    +0.000 A 
ATOM     20  N   UNL     1       1.787  13.207  21.336  0.00  0.00    +0.000 NA
ENDBRANCH  15  16
ENDBRANCH  14  15
ENDBRANCH  12  14
ENDBRANCH   1  12
BRANCH   8  21
ATOM     21  O   UNL     1       2.762   3.517  19.733  0.00  0.00    +0.000 OA
BRANCH  21  22
ATOM     22  C   UNL     1       2.257   2.754  18.588  0.00  0.00    +0.000 C 
ATOM     23  C   UNL     1       1.907   3.692  17.425  0.00  0.00    +0.000 C 
ATOM     24  C   UNL     1       3.337   1.742  18.132  0.00  0.00    +0.000 C 
ATOM     25  C   UNL     1       1.023   1.938  18.991  0.00  0.00    +0.000 C 
ENDBRANCH  21  22
ENDBRANCH   8  21
TORSDOF 6
ENDMDL
MODEL 2
REMARK VINA RESULT:      -6.3      2.194      7.894
REMARK  Name = 
REMARK  10 active torsions:
REMARK  status: ('A' for Active; 'I' for Inactive)
REMARK    1  A    between atoms: C_1  and  N_2
REMARK    2  A    between atoms: N_2  and  C_3
REMARK    3  A    between atoms: N_2  and  C_9
REMARK    4  A    between atoms: C_3  and  C_4
REMARK    5  A    between atoms: C_9  and  C_10
REMARK    6  A    between atoms: C_17  and  O_19
REMARK    7  A    between atoms: O_19  and  C_20
REMARK    8  A    between atoms: C_20  and  C_21
REMARK    9  A    between atoms: C_20  and  C_22
REMARK   10  A    between atoms: C_20  and  C_23
REMARK                            x       y       z     vdW  Elec       q    Type
REMARK                         _______ _______ _______ _____ _____    ______ ____
ROOT
ATOM      1  C   UNL     1       3.086   6.844  18.919  0.00  0.00    +0.000 A 
ATOM      2  C   UNL     1       3.455   7.173  17.587  0.00  0.00    +0.000 A 
ATOM      3  N   UNL     1       2.888   8.301  17.148  0.00  0.00    +0.000 NA
ATOM      4  N   UNL     1       2.152   8.703  18.196  0.00  0.00    +0.000 N 
ATOM      5  C   UNL     1       2.223   7.866  19.275  0.00  0.00    +0.000 A 
ATOM      6  C   UNL     1       1.422   8.096  20.498  0.00  0.00    +0.000 C 
ATOM      7  N   UNL     1       0.899   9.458  20.490  0.00  0.00    +0.000 N 
ATOM      8  C   UNL     1       1.060  10.224  21.624  0.00  0.00    +0.000 C 
ATOM      9  O   UNL     1       1.621   9.761  22.620  0.00  0.00    +0.000 OA
ATOM     10  C   UNL     1       0.309   9.910  19.231  0.00  0.00    +0.000 C 
ATOM     11  C   UNL     1       1.375   9.931  18.141  0.00  0.00    +0.000 C 
ENDROOT
BRANCH   1  12
ATOM     12  C   UNL     1       3.502   5.635  19.707  0.00  0.00    +0.000 C 
BRANCH  12  14
ATOM     13  C   UNL     1       5.836   5.190  19.347  0.00  0.00    +0.000 C 
ATOM     14  N   UNL     1       4.473   4.800  18.955  0.00  0.00    +0.000 NA
BRANCH  14  15
ATOM     15  C   UNL     1       4.223   3.365  19.261  0.00  0.00    +0.000 C 
BRANCH  15  16
ATOM     16  C   UNL     1       2.782   2.974  19.102  0.00  0.00    +0.000 A 
ATOM     17  C   UNL     1       2.063   2.831  17.935  0.00  0.00    +0.000 A 
ATOM     18  O   UNL     1       0.785   2.489  18.254  0.00  0.00    +0.000 OA
ATOM     19  C   UNL     1       0.786   2.444  19.614  0.00  0.00    +0.000 A 
ATOM     20  N   UNL     1       1.944   2.727  20.178  0.00  0.00    +0.000 NA
ENDBRANCH  15  16
ENDBRANCH  14  15
ENDBRANCH  12  14
ENDBRANCH   1  12
BRANCH   8  21
ATOM     21  O   UNL     1       0.539  11.481  21.546  0.00  0.00    +0.000 OA
BRANCH  21  22
ATOM     22  C   UNL     1      -0.778  11.715  22.145  0.00  0.00    +0.000 C 
ATOM     23  C   UNL     1      -1.128  10.597  23.137  0.00  0.00    +0.000 C 
ATOM     24  C   UNL     1      -0.769  13.078  22.881  0.00  0.00    +0.000 C 
ATOM     25  C   UNL     1      -1.852  11.804  21.056  0.00  0.00    +0.000 C 
ENDBRANCH  21  22
ENDBRANCH   8  21
TORSDOF 6
ENDMDL
MODEL 3
REMARK VINA RESULT:      -6.3      0.726      1.138
REMARK  Name = 
REMARK  10 active torsions:
REMARK  status: ('A' for Active; 'I' for Inactive)
REMARK    1  A    between atoms: C_1  and  N_2
REMARK    2  A    between atoms: N_2  and  C_3
REMARK    3  A    between atoms: N_2  and  C_9
REMARK    4  A    between atoms: C_3  and  C_4
REMARK    5  A    between atoms: C_9  and  C_10
REMARK    6  A    between atoms: C_17  and  O_19
REMARK    7  A    between atoms: O_19  and  C_20
REMARK    8  A    between atoms: C_20  and  C_21
REMARK    9  A    between atoms: C_20  and  C_22
REMARK   10  A    between atoms: C_20  and  C_23
REMARK                            x       y       z     vdW  Elec       q    Type
REMARK                         _______ _______ _______ _____ _____    ______ ____
ROOT
ATOM      1  C   UNL     1       1.178   9.303  19.182  0.00  0.00    +0.000 A 
ATOM      2  C   UNL     1       1.623   9.840  17.944  0.00  0.00    +0.000 A 
ATOM      3  N   UNL     1       2.525   9.066  17.330  0.00  0.00    +0.000 NA
ATOM      4  N   UNL     1       2.663   8.029  18.170  0.00  0.00    +0.000 N 
ATOM      5  C   UNL     1       1.893   8.123  19.296  0.00  0.00    +0.000 A 
ATOM      6  C   UNL     1       1.963   7.118  20.379  0.00  0.00    +0.000 C 
ATOM      7  N   UNL     1       2.645   5.923  19.893  0.00  0.00    +0.000 N 
ATOM      8  C   UNL     1       2.054   4.699  20.118  0.00  0.00    +0.000 C 
ATOM      9  O   UNL     1       0.984   4.620  20.727  0.00  0.00    +0.000 OA
ATOM     10  C   UNL     1       3.874   6.151  19.135  0.00  0.00    +0.000 C 
ATOM     11  C   UNL     1       3.557   6.925  17.859  0.00  0.00    +0.000 C 
ENDROOT
BRANCH   1  12
ATOM     12  C   UNL     1       0.206   9.922  20.146  0.00  0.00    +0.000 C 
BRANCH  12  14
ATOM     13  C   UNL     1      -1.387  11.721  20.156  0.00  0.00    +0.000 C 
ATOM     14  N   UNL     1       0.012  11.369  19.872  0.00  0.00    +0.000 NA
BRANCH  14  15
ATOM     15  C   UNL     1       0.942  12.156  20.729  0.00  0.00    +0.000 C 
BRANCH  15  16
ATOM     16  C   UNL     1       1.802  13.103  19.944  0.00  0.00    +0.000 A 
ATOM     17  C   UNL     1       1.644  13.515  18.639  0.00  0.00    +0.000 A 
ATOM     18  O   UNL     1       2.665  14.358  18.323  0.00  0.00    +0.000 OA
ATOM     19  C   UNL     1       3.406  14.415  19.463  0.00  0.00    +0.000 A 
ATOM     20  N   UNL     1       2.948  13.688  20.463  0.00  0.00    +0.000 NA
ENDBRANCH  15  16
ENDBRANCH  14  15
ENDBRANCH  12  14
ENDBRANCH   1  12
BRANCH   8  21
ATOM     21  O   UNL     1       2.751   3.629  19.643  0.00  0.00    +0.000 OA
BRANCH  21  22
ATOM     22  C   UNL     1       2.161   2.861  18.542  0.00  0.00    +0.000 C 
ATOM     23  C   UNL     1       0.906   2.114  19.016  0.00  0.00    +0.000 C 
ATOM     24  C   UNL     1       1.787   3.826  17.390  0.00  0.00    +0.000 C 
ATOM     25  C   UNL     1       3.180   1.866  17.978  0.00  0.00    +0.000 C 
ENDBRANCH  21  22
ENDBRANCH   8  21
TORSDOF 6
ENDMDL
MODEL 4
REMARK VINA RESULT:      -6.2      2.279      7.819
REMARK  Name = 
REMARK  10 active torsions:
REMARK  status: ('A' for Active; 'I' for Inactive)
REMARK    1  A    between atoms: C_1  and  N_2
REMARK    2  A    between atoms: N_2  and  C_3
REMARK    3  A    between atoms: N_2  and  C_9
REMARK    4  A    between atoms: C_3  and  C_4
REMARK    5  A    between atoms: C_9  and  C_10
REMARK    6  A    between atoms: C_17  and  O_19
REMARK    7  A    between atoms: O_19  and  C_20
REMARK    8  A    between atoms: C_20  and  C_21
REMARK    9  A    between atoms: C_20  and  C_22
REMARK   10  A    between atoms: C_20  and  C_23
REMARK                            x       y       z     vdW  Elec       q    Type
REMARK                         _______ _______ _______ _____ _____    ______ ____
ROOT
ATOM      1  C   UNL     1       3.027   6.853  18.802  0.00  0.00    +0.000 A 
ATOM      2  C   UNL     1       3.474   7.245  17.512  0.00  0.00    +0.000 A 
ATOM      3  N   UNL     1       2.981   8.426  17.122  0.00  0.00    +0.000 NA
ATOM      4  N   UNL     1       2.218   8.799  18.161  0.00  0.00    +0.000 N 
ATOM      5  C   UNL     1       2.198   7.894  19.185  0.00  0.00    +0.000 A 
ATOM      6  C   UNL     1       1.354   8.087  20.385  0.00  0.00    +0.000 C 
ATOM      7  N   UNL     1       0.896   9.471  20.442  0.00  0.00    +0.000 N 
ATOM      8  C   UNL     1       1.040  10.156  21.629  0.00  0.00    +0.000 C 
ATOM      9  O   UNL     1       1.532   9.604  22.617  0.00  0.00    +0.000 OA
ATOM     10  C   UNL     1       0.388  10.029  19.191  0.00  0.00    +0.000 C 
ATOM     11  C   UNL     1       1.503  10.065  18.151  0.00  0.00    +0.000 C 
ENDROOT
BRANCH   1  12
ATOM     12  C   UNL     1       3.349   5.578  19.528  0.00  0.00    +0.000 C 
BRANCH  12  14
ATOM     13  C   UNL     1       5.523   4.607  19.205  0.00  0.00    +0.000 C 
ATOM     14  N   UNL     1       4.149   4.655  18.683  0.00  0.00    +0.000 NA
BRANCH  14  15
ATOM     15  C   UNL     1       3.523   3.305  18.708  0.00  0.00    +0.000 C 
BRANCH  15  16
ATOM     16  C   UNL     1       2.746   3.042  19.966  0.00  0.00    +0.000 A 
ATOM     17  C   UNL     1       3.218   2.590  21.178  0.00  0.00    +0.000 A 
ATOM     18  O   UNL     1       2.167   2.470  22.035  0.00  0.00    +0.000 OA
ATOM     19  C   UNL     1       1.094   2.853  21.292  0.00  0.00    +0.000 A 
ATOM     20  N   UNL     1       1.372   3.202  20.051  0.00  0.00    +0.000 NA
ENDBRANCH  15  16
ENDBRANCH  14  15
ENDBRANCH  12  14
ENDBRANCH   1  12
BRANCH   8  21
ATOM     21  O   UNL     1       0.584  11.440  21.610  0.00  0.00    +0.000 OA
BRANCH  21  22
ATOM     22  C   UNL     1      -0.736  11.706  22.188  0.00  0.00    +0.000 C 
ATOM     23  C   UNL     1      -0.741  13.050  22.929  0.00  0.00    +0.000 C 
ATOM     24  C   UNL     1      -1.793  11.735  21.056  0.00  0.00    +0.000 C 
ATOM     25  C   UNL     1      -1.139  10.579  23.145  0.00  0.00    +0.000 C 
ENDBRANCH  21  22
ENDBRANCH   8  21
TORSDOF 6
ENDMDL
MODEL 5
REMARK VINA RESULT:      -6.1      3.036      7.422
REMARK  Name = 
REMARK  10 active torsions:
REMARK  status: ('A' for Active; 'I' for Inactive)
REMARK    1  A    between atoms: C_1  and  N_2
REMARK    2  A    between atoms: N_2  and  C_3
REMARK    3  A    between atoms: N_2  and  C_9
REMARK    4  A    between atoms: C_3  and  C_4
REMARK    5  A    between atoms: C_9  and  C_10
REMARK    6  A    between atoms: C_17  and  O_19
REMARK    7  A    between atoms: O_19  and  C_20
REMARK    8  A    between atoms: C_20  and  C_21
REMARK    9  A    between atoms: C_20  and  C_22
REMARK   10  A    between atoms: C_20  and  C_23
REMARK                            x       y       z     vdW  Elec       q    Type
REMARK                         _______ _______ _______ _____ _____    ______ ____
ROOT
ATOM      1  C   UNL     1       2.987   6.401  18.789  0.00  0.00    +0.000 A 
ATOM      2  C   UNL     1       2.959   5.486  19.875  0.00  0.00    +0.000 A 
ATOM      3  N   UNL     1       2.241   5.926  20.914  0.00  0.00    +0.000 NA
ATOM      4  N   UNL     1       1.803   7.125  20.499  0.00  0.00    +0.000 N 
ATOM      5  C   UNL     1       2.227   7.464  19.244  0.00  0.00    +0.000 A 
ATOM      6  C   UNL     1       1.915   8.779  18.641  0.00  0.00    +0.000 C 
ATOM      7  N   UNL     1       0.847   9.422  19.399  0.00  0.00    +0.000 N 
ATOM      8  C   UNL     1      -0.224   9.940  18.705  0.00  0.00    +0.000 C 
ATOM      9  O   UNL     1      -0.268   9.870  17.474  0.00  0.00    +0.000 OA
ATOM     10  C   UNL     1       0.985   9.390  20.854  0.00  0.00    +0.000 C 
ATOM     11  C   UNL     1       0.949   7.945  21.343  0.00  0.00    +0.000 C 
ENDROOT
BRANCH   1  12
ATOM     12  C   UNL     1       3.724   6.248  17.488  0.00  0.00    +0.000 C 
BRANCH  12  14
ATOM     13  C   UNL     1       3.891   3.904  16.989  0.00  0.00    +0.000 C 
ATOM     14  N   UNL     1       4.625   5.067  17.507  0.00  0.00    +0.000 NA
BRANCH  14  15
ATOM     15  C   UNL     1       5.823   5.355  16.671  0.00  0.00    +0.000 C 
BRANCH  15  16
ATOM     16  C   UNL     1       6.797   6.281  17.340  0.00  0.00    +0.000 A 
ATOM     17  C   UNL     1       7.569   6.042  18.455  0.00  0.00    +0.000 A 
ATOM     18  O   UNL     1       8.290   7.163  18.731  0.00  0.00    +0.000 OA
ATOM     19  C   UNL     1       7.913   8.041  17.763  0.00  0.00    +0.000 A 
ATOM     20  N   UNL     1       7.025   7.578  16.906  0.00  0.00    +0.000 NA
ENDBRANCH  15  16
ENDBRANCH  14  15
ENDBRANCH  12  14
ENDBRANCH   1  12
BRANCH   8  21
ATOM     21  O   UNL     1      -1.177  10.532  19.477  0.00  0.00    +0.000 OA
BRANCH  21  22
ATOM     22  C   UNL     1      -1.702  11.830  19.043  0.00  0.00    +0.000 C 
ATOM     23  C   UNL     1      -0.572  12.718  18.505  0.00  0.00    +0.000 C 
ATOM     24  C   UNL     1      -2.760  11.609  17.934  0.00  0.00    +0.000 C 
ATOM     25  C   UNL     1      -2.414  12.534  20.204  0.00  0.00    +0.000 C 
ENDBRANCH  21  22
ENDBRANCH   8  21
TORSDOF 6
ENDMDL
MODEL 6
REMARK VINA RESULT:      -6.1      1.936      2.355
REMARK  Name = 
REMARK  10 active torsions:
REMARK  status: ('A' for Active; 'I' for Inactive)
REMARK    1  A    between atoms: C_1  and  N_2
REMARK    2  A    between atoms: N_2  and  C_3
REMARK    3  A    between atoms: N_2  and  C_9
REMARK    4  A    between atoms: C_3  and  C_4
REMARK    5  A    between atoms: C_9  and  C_10
REMARK    6  A    between atoms: C_17  and  O_19
REMARK    7  A    between atoms: O_19  and  C_20
REMARK    8  A    between atoms: C_20  and  C_21
REMARK    9  A    between atoms: C_20  and  C_22
REMARK   10  A    between atoms: C_20  and  C_23
REMARK                            x       y       z     vdW  Elec       q    Type
REMARK                         _______ _______ _______ _____ _____    ______ ____
ROOT
ATOM      1  C   UNL     1       1.255   9.313  19.129  0.00  0.00    +0.000 A 
ATOM      2  C   UNL     1       1.713   9.829  17.887  0.00  0.00    +0.000 A 
ATOM      3  N   UNL     1       2.602   9.033  17.283  0.00  0.00    +0.000 NA
ATOM      4  N   UNL     1       2.717   8.000  18.133  0.00  0.00    +0.000 N 
ATOM      5  C   UNL     1       1.946   8.120  19.256  0.00  0.00    +0.000 A 
ATOM      6  C   UNL     1       1.994   7.123  20.348  0.00  0.00    +0.000 C 
ATOM      7  N   UNL     1       2.653   5.911  19.874  0.00  0.00    +0.000 N 
ATOM      8  C   UNL     1       2.038   4.701  20.109  0.00  0.00    +0.000 C 
ATOM      9  O   UNL     1       0.965   4.649  20.716  0.00  0.00    +0.000 OA
ATOM     10  C   UNL     1       3.888   6.108  19.118  0.00  0.00    +0.000 C 
ATOM     11  C   UNL     1       3.590   6.877  17.835  0.00  0.00    +0.000 C 
ENDROOT
BRANCH   1  12
ATOM     12  C   UNL     1       0.292   9.959  20.084  0.00  0.00    +0.000 C 
BRANCH  12  14
ATOM     13  C   UNL     1      -1.158  11.706  19.296  0.00  0.00    +0.000 C 
ATOM     14  N   UNL     1       0.178  11.420  19.840  0.00  0.00    +0.000 NA
BRANCH  14  15
ATOM     15  C   UNL     1       0.397  12.147  21.120  0.00  0.00    +0.000 C 
BRANCH  15  16
ATOM     16  C   UNL     1      -0.790  12.090  22.038  0.00  0.00    +0.000 A 
ATOM     17  C   UNL     1      -1.160  11.071  22.887  0.00  0.00    +0.000 A 
ATOM     18  O   UNL     1      -2.315  11.427  23.513  0.00  0.00    +0.000 OA
ATOM     19  C   UNL     1      -2.597  12.657  23.005  0.00  0.00    +0.000 A 
ATOM     20  N   UNL     1      -1.730  13.106  22.120  0.00  0.00    +0.000 NA
ENDBRANCH  15  16
ENDBRANCH  14  15
ENDBRANCH  12  14
ENDBRANCH   1  12
BRANCH   8  21
ATOM     21  O   UNL     1       2.715   3.613  19.646  0.00  0.00    +0.000 OA
BRANCH  21  22
ATOM     22  C   UNL     1       2.132   2.870  18.525  0.00  0.00    +0.000 C 
ATOM     23  C   UNL     1       1.626   3.832  17.442  0.00  0.00    +0.000 C 
ATOM     24  C   UNL     1       3.203   1.928  17.924  0.00  0.00    +0.000 C 
ATOM     25  C   UNL     1       0.982   1.982  19.014  0.00  0.00    +0.000 C 
ENDBRANCH  21  22
ENDBRANCH   8  21
TORSDOF 6
ENDMDL
MODEL 7
REMARK VINA RESULT:      -6.1      2.403      8.037
REMARK  Name = 
REMARK  10 active torsions:
REMARK  status: ('A' for Active; 'I' for Inactive)
REMARK    1  A    between atoms: C_1  and  N_2
REMARK    2  A    between atoms: N_2  and  C_3
REMARK    3  A    between atoms: N_2  and  C_9
REMARK    4  A    between atoms: C_3  and  C_4
REMARK    5  A    between atoms: C_9  and  C_10
REMARK    6  A    between atoms: C_17  and  O_19
REMARK    7  A    between atoms: O_19  and  C_20
REMARK    8  A    between atoms: C_20  and  C_21
REMARK    9  A    between atoms: C_20  and  C_22
REMARK   10  A    between atoms: C_20  and  C_23
REMARK                            x       y       z     vdW  Elec       q    Type
REMARK                         _______ _______ _______ _____ _____    ______ ____
ROOT
ATOM      1  C   UNL     1       2.253   7.680  18.981  0.00  0.00    +0.000 A 
ATOM      2  C   UNL     1       2.789   8.135  17.747  0.00  0.00    +0.000 A 
ATOM      3  N   UNL     1       2.385   9.368  17.421  0.00  0.00    +0.000 NA
ATOM      4  N   UNL     1       1.588   9.710  18.446  0.00  0.00    +0.000 N 
ATOM      5  C   UNL     1       1.464   8.738  19.398  0.00  0.00    +0.000 A 
ATOM      6  C   UNL     1       0.568   8.895  20.566  0.00  0.00    +0.000 C 
ATOM      7  N   UNL     1       0.186  10.296  20.703  0.00  0.00    +0.000 N 
ATOM      8  C   UNL     1       0.304  10.885  21.942  0.00  0.00    +0.000 C 
ATOM      9  O   UNL     1       0.710  10.237  22.910  0.00  0.00    +0.000 OA
ATOM     10  C   UNL     1      -0.223  10.971  19.472  0.00  0.00    +0.000 C 
ATOM     11  C   UNL     1       0.947  11.014  18.494  0.00  0.00    +0.000 C 
ENDROOT
BRANCH   1  12
ATOM     12  C   UNL     1       2.464   6.339  19.626  0.00  0.00    +0.000 C 
BRANCH  12  14
ATOM     13  C   UNL     1       4.588   5.265  19.296  0.00  0.00    +0.000 C 
ATOM     14  N   UNL     1       3.234   5.425  18.745  0.00  0.00    +0.000 NA
BRANCH  14  15
ATOM     15  C   UNL     1       2.533   4.113  18.671  0.00  0.00    +0.000 C 
BRANCH  15  16
ATOM     16  C   UNL     1       2.346   3.472  20.015  0.00  0.00    +0.000 A 
ATOM     17  C   UNL     1       3.296   2.869  20.810  0.00  0.00    +0.000 A 
ATOM     18  O   UNL     1       2.688   2.400  21.933  0.00  0.00    +0.000 OA
ATOM     19  C   UNL     1       1.381   2.740  21.764  0.00  0.00    +0.000 A 
ATOM     20  N   UNL     1       1.112   3.376  20.641  0.00  0.00    +0.000 NA
ENDBRANCH  15  16
ENDBRANCH  14  15
ENDBRANCH  12  14
ENDBRANCH   1  12
BRANCH   8  21
ATOM     21  O   UNL     1      -0.078  12.192  21.996  0.00  0.00    +0.000 OA
BRANCH  21  22
ATOM     22  C   UNL     1      -1.405  12.496  22.540  0.00  0.00    +0.000 C 
ATOM     23  C   UNL     1      -1.958  11.296  23.321  0.00  0.00    +0.000 C 
ATOM     24  C   UNL     1      -1.303  13.724  23.478  0.00  0.00    +0.000 C 
ATOM     25  C   UNL     1      -2.371  12.876  21.412  0.00  0.00    +0.000 C 
ENDBRANCH  21  22
ENDBRANCH   8  21
TORSDOF 6
ENDMDL
MODEL 8
REMARK VINA RESULT:      -6.1      3.306      7.229
REMARK  Name = 
REMARK  10 active torsions:
REMARK  status: ('A' for Active; 'I' for Inactive)
REMARK    1  A    between atoms: C_1  and  N_2
REMARK    2  A    between atoms: N_2  and  C_3
REMARK    3  A    between atoms: N_2  and  C_9
REMARK    4  A    between atoms: C_3  and  C_4
REMARK    5  A    between atoms: C_9  and  C_10
REMARK    6  A    between atoms: C_17  and  O_19
REMARK    7  A    between atoms: O_19  and  C_20
REMARK    8  A    between atoms: C_20  and  C_21
REMARK    9  A    between atoms: C_20  and  C_22
REMARK   10  A    between atoms: C_20  and  C_23
REMARK                            x       y       z     vdW  Elec       q    Type
REMARK                         _______ _______ _______ _____ _____    ______ ____
ROOT
ATOM      1  C   UNL     1       3.749   4.757  17.295  0.00  0.00    +0.000 A 
ATOM      2  C   UNL     1       3.162   3.471  17.157  0.00  0.00    +0.000 A 
ATOM      3  N   UNL     1       2.225   3.220  18.077  0.00  0.00    +0.000 NA
ATOM      4  N   UNL     1       2.204   4.344  18.809  0.00  0.00    +0.000 N 
ATOM      5  C   UNL     1       3.100   5.290  18.396  0.00  0.00    +0.000 A 
ATOM      6  C   UNL     1       3.283   6.566  19.122  0.00  0.00    +0.000 C 
ATOM      7  N   UNL     1       2.164   6.773  20.035  0.00  0.00    +0.000 N 
ATOM      8  C   UNL     1       1.529   7.996  20.021  0.00  0.00    +0.000 C 
ATOM      9  O   UNL     1       1.909   8.892  19.264  0.00  0.00    +0.000 OA
ATOM     10  C   UNL     1       1.771   5.617  20.838  0.00  0.00    +0.000 C 
ATOM     11  C   UNL     1       1.284   4.496  19.926  0.00  0.00    +0.000 C 
ENDROOT
BRANCH   1  12
ATOM     12  C   UNL     1       4.852   5.349  16.464  0.00  0.00    +0.000 C 
BRANCH  12  14
ATOM     13  C   UNL     1       6.070   4.595  14.535  0.00  0.00    +0.000 C 
ATOM     14  N   UNL     1       5.765   4.300  15.943  0.00  0.00    +0.000 NA
BRANCH  14  15
ATOM     15  C   UNL     1       7.008   4.283  16.763  0.00  0.00    +0.000 C 
BRANCH  15  16
ATOM     16  C   UNL     1       7.378   5.638  17.293  0.00  0.00    +0.000 A 
ATOM     17  C   UNL     1       7.658   5.994  18.594  0.00  0.00    +0.000 A 
ATOM     18  O   UNL     1       7.921   7.329  18.630  0.00  0.00    +0.000 OA
ATOM     19  C   UNL     1       7.782   7.725  17.336  0.00  0.00    +0.000 A 
ATOM     20  N   UNL     1       7.457   6.766  16.492  0.00  0.00    +0.000 NA
ENDBRANCH  15  16
ENDBRANCH  14  15
ENDBRANCH  12  14
ENDBRANCH   1  12
BRANCH   8  21
ATOM     21  O   UNL     1       0.500   8.118  20.905  0.00  0.00    +0.000 OA
BRANCH  21  22
ATOM     22  C   UNL     1       0.517   9.261  21.823  0.00  0.00    +0.000 C 
ATOM     23  C   UNL     1       1.862   9.343  22.559  0.00  0.00    +0.000 C 
ATOM     24  C   UNL     1       0.284  10.565  21.022  0.00  0.00    +0.000 C 
ATOM     25  C   UNL     1      -0.627   9.149  22.837  0.00  0.00    +0.000 C 
ENDBRANCH  21  22
ENDBRANCH   8  21
TORSDOF 6
ENDMDL
MODEL 9
REMARK VINA RESULT:      -6.0      2.860      7.430
REMARK  Name = 
REMARK  10 active torsions:
REMARK  status: ('A' for Active; 'I' for Inactive)
REMARK    1  A    between atoms: C_1  and  N_2
REMARK    2  A    between atoms: N_2  and  C_3
REMARK    3  A    between atoms: N_2  and  C_9
REMARK    4  A    between atoms: C_3  and  C_4
REMARK    5  A    between atoms: C_9  and  C_10
REMARK    6  A    between atoms: C_17  and  O_19
REMARK    7  A    between atoms: O_19  and  C_20
REMARK    8  A    between atoms: C_20  and  C_21
REMARK    9  A    between atoms: C_20  and  C_22
REMARK   10  A    between atoms: C_20  and  C_23
REMARK                            x       y       z     vdW  Elec       q    Type
REMARK                         _______ _______ _______ _____ _____    ______ ____
ROOT
ATOM      1  C   UNL     1       2.787   5.717  18.774  0.00  0.00    +0.000 A 
ATOM      2  C   UNL     1       2.580   4.734  19.779  0.00  0.00    +0.000 A 
ATOM      3  N   UNL     1       1.950   5.211  20.858  0.00  0.00    +0.000 NA
ATOM      4  N   UNL     1       1.749   6.502  20.551  0.00  0.00    +0.000 N 
ATOM      5  C   UNL     1       2.238   6.862  19.326  0.00  0.00    +0.000 A 
ATOM      6  C   UNL     1       2.183   8.259  18.840  0.00  0.00    +0.000 C 
ATOM      7  N   UNL     1       1.251   9.024  19.660  0.00  0.00    +0.000 N 
ATOM      8  C   UNL     1       0.301   9.792  19.023  0.00  0.00    +0.000 C 
ATOM      9  O   UNL     1       0.254   9.837  17.791  0.00  0.00    +0.000 OA
ATOM     10  C   UNL     1       1.370   8.842  21.106  0.00  0.00    +0.000 C 
ATOM     11  C   UNL     1       1.059   7.393  21.470  0.00  0.00    +0.000 C 
ENDROOT
BRANCH   1  12
ATOM     12  C   UNL     1       3.492   5.540  17.459  0.00  0.00    +0.000 C 
BRANCH  12  14
ATOM     13  C   UNL     1       4.434   3.333  17.335  0.00  0.00    +0.000 C 
ATOM     14  N   UNL     1       4.737   4.746  17.610  0.00  0.00    +0.000 NA
BRANCH  14  15
ATOM     15  C   UNL     1       5.763   5.262  16.661  0.00  0.00    +0.000 C 
BRANCH  15  16
ATOM     16  C   UNL     1       6.744   6.195  17.310  0.00  0.00    +0.000 A 
ATOM     17  C   UNL     1       7.536   5.964  18.413  0.00  0.00    +0.000 A 
ATOM     18  O   UNL     1       8.257   7.089  18.672  0.00  0.00    +0.000 OA
ATOM     19  C   UNL     1       7.861   7.961  17.706  0.00  0.00    +0.000 A 
ATOM     20  N   UNL     1       6.960   7.491  16.866  0.00  0.00    +0.000 NA
ENDBRANCH  15  16
ENDBRANCH  14  15
ENDBRANCH  12  14
ENDBRANCH   1  12
BRANCH   8  21
ATOM     21  O   UNL     1      -0.529  10.485  19.852  0.00  0.00    +0.000 OA
BRANCH  21  22
ATOM     22  C   UNL     1      -0.274  11.916  20.037  0.00  0.00    +0.000 C 
ATOM     23  C   UNL     1      -1.201  12.751  19.144  0.00  0.00    +0.000 C 
ATOM     24  C   UNL     1      -0.510  12.289  21.522  0.00  0.00    +0.000 C 
ATOM     25  C   UNL     1       1.190  12.243  19.723  0.00  0.00    +0.000 C 
ENDBRANCH  21  22
ENDBRANCH   8  21
TORSDOF 6
ENDMDL
