MODEL 1
REMARK VINA RESULT:      -8.4      0.000      0.000
REMARK  Name = 
REMARK  9 active torsions:
REMARK  status: ('A' for Active; 'I' for Inactive)
REMARK    1  A    between atoms: C_1  and  C_2
REMARK    2  A    between atoms: N_4  and  C_5
REMARK    3  A    between atoms: C_8  and  O_9
REMARK    4  A    between atoms: O_9  and  C_10
REMARK    5  A    between atoms: C_10  and  C_11
REMARK    6  A    between atoms: C_11  and  C_12
REMARK    7  A    between atoms: C_12  and  N_13
REMARK    8  A    between atoms: N_16  and  C_17
REMARK    9  A    between atoms: C_21  and  C_22
REMARK                            x       y       z     vdW  Elec       q    Type
REMARK                         _______ _______ _______ _____ _____    ______ ____
ROOT
ATOM      1  N   UNL     1       7.734   5.849  17.549  0.00  0.00    +0.000 NA
ATOM      2  C   UNL     1       7.296   5.368  18.882  0.00  0.00    +0.000 C 
ATOM      3  C   UNL     1       5.806   5.633  19.163  0.00  0.00    +0.000 C 
ATOM      4  N   UNL     1       4.974   5.023  18.118  0.00  0.00    +0.000 N 
ATOM      5  C   UNL     1       5.376   5.271  16.719  0.00  0.00    +0.000 C 
ATOM      6  C   UNL     1       6.912   5.146  16.534  0.00  0.00    +0.000 C 
ENDROOT
BRANCH   4   7
ATOM      7  C   UNL     1       4.086   4.012  18.413  0.00  0.00    +0.000 A 
ATOM      8  C   UNL     1       3.894   2.943  17.534  0.00  0.00    +0.000 A 
ATOM      9  C   UNL     1       2.952   1.943  17.792  0.00  0.00    +0.000 A 
ATOM     10  C   UNL     1       2.179   1.993  18.949  0.00  0.00    +0.000 A 
ATOM     11  C   UNL     1       2.356   3.038  19.861  0.00  0.00    +0.000 A 
ATOM     12  C   UNL     1       3.314   4.027  19.582  0.00  0.00    +0.000 A 
BRANCH  11  13
ATOM     13  C   UNL     1       1.541   3.141  21.124  0.00  0.00    +0.000 C 
ATOM     14  F   UNL     1       1.210   1.936  21.664  0.00  0.00    +0.000 F 
ATOM     15  F   UNL     1       2.191   3.826  22.107  0.00  0.00    +0.000 F 
ATOM     16  F   UNL     1       0.364   3.800  20.929  0.00  0.00    +0.000 F 
ENDBRANCH  11  13
ENDBRANCH   4   7
BRANCH   1  17
ATOM     17  C   UNL     1       7.615   7.313  17.402  0.00  0.00    +0.000 C 
BRANCH  17  18
ATOM     18  C   UNL     1       8.323   8.092  18.512  0.00  0.00    +0.000 C 
BRANCH  18  19
ATOM     19  C   UNL     1       8.623   9.512  18.060  0.00  0.00    +0.000 C 
BRANCH  19  20
ATOM     20  O   UNL     1       9.422  10.153  19.050  0.00  0.00    +0.000 OA
BRANCH  20  24
ATOM     21  C   UNL     1      10.961  13.902  18.058  0.00  0.00    +0.000 A 
ATOM     22  C   UNL     1      11.706  12.950  18.756  0.00  0.00    +0.000 A 
ATOM     23  C   UNL     1      11.156  11.703  19.063  0.00  0.00    +0.000 A 
ATOM     24  C   UNL     1       9.852  11.401  18.692  0.00  0.00    +0.000 A 
ATOM     25  C   UNL     1       9.101  12.347  17.990  0.00  0.00    +0.000 A 
ATOM     26  C   UNL     1       9.649  13.596  17.685  0.00  0.00    +0.000 A 
BRANCH  21  30
ATOM     27  C   UNL     1      11.894  17.538  17.763  0.00  0.00    +0.000 C 
ATOM     28  C   UNL     1      11.336  16.330  18.466  0.00  0.00    +0.000 C 
ATOM     29  O   UNL     1      10.835  16.434  19.577  0.00  0.00    +0.000 OA
ATOM     30  N   UNL     1      11.462  15.174  17.714  0.00  0.00    +0.000 N 
ATOM     31  H   UNL     1      12.034  15.222  16.881  0.00  0.00    +0.000 HD
ENDBRANCH  21  30
ENDBRANCH  20  24
ENDBRANCH  19  20
ENDBRANCH  18  19
ENDBRANCH  17  18
ENDBRANCH   1  17
TORSDOF 8
ENDMDL
MODEL 2
REMARK VINA RESULT:      -8.0      1.080      1.165
REMARK  Name = 
REMARK  9 active torsions:
REMARK  status: ('A' for Active; 'I' for Inactive)
REMARK    1  A    between atoms: C_1  and  C_2
REMARK    2  A    between atoms: N_4  and  C_5
REMARK    3  A    between atoms: C_8  and  O_9
REMARK    4  A    between atoms: O_9  and  C_10
REMARK    5  A    between atoms: C_10  and  C_11
REMARK    6  A    between atoms: C_11  and  C_12
REMARK    7  A    between atoms: C_12  and  N_13
REMARK    8  A    between atoms: N_16  and  C_17
REMARK    9  A    between atoms: C_21  and  C_22
REMARK                            x       y       z     vdW  Elec       q    Type
REMARK                         _______ _______ _______ _____ _____    ______ ____
ROOT
ATOM      1  N   UNL     1       7.092   7.001  16.875  0.00  0.00    +0.000 NA
ATOM      2  C   UNL     1       7.403   5.834  17.737  0.00  0.00    +0.000 C 
ATOM      3  C   UNL     1       6.433   5.682  18.923  0.00  0.00    +0.000 C 
ATOM      4  N   UNL     1       5.048   5.588  18.441  0.00  0.00    +0.000 N 
ATOM      5  C   UNL     1       4.624   6.587  17.441  0.00  0.00    +0.000 C 
ATOM      6  C   UNL     1       5.714   6.814  16.360  0.00  0.00    +0.000 C 
ENDROOT
BRANCH   4   7
ATOM      7  C   UNL     1       4.301   4.449  18.642  0.00  0.00    +0.000 A 
ATOM      8  C   UNL     1       4.258   3.436  17.679  0.00  0.00    +0.000 A 
ATOM      9  C   UNL     1       3.455   2.304  17.843  0.00  0.00    +0.000 A 
ATOM     10  C   UNL     1       2.674   2.161  18.987  0.00  0.00    +0.000 A 
ATOM     11  C   UNL     1       2.703   3.144  19.979  0.00  0.00    +0.000 A 
ATOM     12  C   UNL     1       3.525   4.270  19.795  0.00  0.00    +0.000 A 
BRANCH  11  13
ATOM     13  C   UNL     1       1.873   3.040  21.231  0.00  0.00    +0.000 C 
ATOM     14  F   UNL     1       1.881   1.800  21.794  0.00  0.00    +0.000 F 
ATOM     15  F   UNL     1       2.292   3.896  22.206  0.00  0.00    +0.000 F 
ATOM     16  F   UNL     1       0.562   3.343  21.012  0.00  0.00    +0.000 F 
ENDBRANCH  11  13
ENDBRANCH   4   7
BRANCH   1  17
ATOM     17  C   UNL     1       7.219   8.288  17.586  0.00  0.00    +0.000 C 
BRANCH  17  18
ATOM     18  C   UNL     1       8.516   8.410  18.388  0.00  0.00    +0.000 C 
BRANCH  18  19
ATOM     19  C   UNL     1       8.756   9.855  18.799  0.00  0.00    +0.000 C 
BRANCH  19  20
ATOM     20  O   UNL     1       9.774  10.408  17.971  0.00  0.00    +0.000 OA
BRANCH  20  24
ATOM     21  C   UNL     1       9.812  14.554  17.514  0.00  0.00    +0.000 A 
ATOM     22  C   UNL     1      10.963  13.777  17.373  0.00  0.00    +0.000 A 
ATOM     23  C   UNL     1      10.907  12.390  17.526  0.00  0.00    +0.000 A 
ATOM     24  C   UNL     1       9.705  11.767  17.842  0.00  0.00    +0.000 A 
ATOM     25  C   UNL     1       8.549  12.538  17.982  0.00  0.00    +0.000 A 
ATOM     26  C   UNL     1       8.604  13.926  17.830  0.00  0.00    +0.000 A 
BRANCH  21  30
ATOM     27  C   UNL     1       9.683  18.299  17.890  0.00  0.00    +0.000 C 
ATOM     28  C   UNL     1       9.798  16.885  18.392  0.00  0.00    +0.000 C 
ATOM     29  O   UNL     1       9.867  16.656  19.592  0.00  0.00    +0.000 OA
ATOM     30  N   UNL     1       9.804  15.956  17.365  0.00  0.00    +0.000 N 
ATOM     31  H   UNL     1       9.892  16.309  16.421  0.00  0.00    +0.000 HD
ENDBRANCH  21  30
ENDBRANCH  20  24
ENDBRANCH  19  20
ENDBRANCH  18  19
ENDBRANCH  17  18
ENDBRANCH   1  17
TORSDOF 8
ENDMDL
MODEL 3
REMARK VINA RESULT:      -8.0      1.183      1.475
REMARK  Name = 
REMARK  9 active torsions:
REMARK  status: ('A' for Active; 'I' for Inactive)
REMARK    1  A    between atoms: C_1  and  C_2
REMARK    2  A    between atoms: N_4  and  C_5
REMARK    3  A    between atoms: C_8  and  O_9
REMARK    4  A    between atoms: O_9  and  C_10
REMARK    5  A    between atoms: C_10  and  C_11
REMARK    6  A    between atoms: C_11  and  C_12
REMARK    7  A    between atoms: C_12  and  N_13
REMARK    8  A    between atoms: N_16  and  C_17
REMARK    9  A    between atoms: C_21  and  C_22
REMARK                            x       y       z     vdW  Elec       q    Type
REMARK                         _______ _______ _______ _____ _____    ______ ____
ROOT
ATOM      1  N   UNL     1       7.264   6.101  17.134  0.00  0.00    +0.000 NA
ATOM      2  C   UNL     1       6.940   5.526  18.462  0.00  0.00    +0.000 C 
ATOM      3  C   UNL     1       5.616   6.053  19.044  0.00  0.00    +0.000 C 
ATOM      4  N   UNL     1       4.511   5.799  18.110  0.00  0.00    +0.000 N 
ATOM      5  C   UNL     1       4.736   6.167  16.699  0.00  0.00    +0.000 C 
ATOM      6  C   UNL     1       6.152   5.751  16.218  0.00  0.00    +0.000 C 
ENDROOT
BRANCH   4   7
ATOM      7  C   UNL     1       3.469   4.965  18.450  0.00  0.00    +0.000 A 
ATOM      8  C   UNL     1       2.384   4.781  17.588  0.00  0.00    +0.000 A 
ATOM      9  C   UNL     1       1.291   3.987  17.947  0.00  0.00    +0.000 A 
ATOM     10  C   UNL     1       1.265   3.352  19.185  0.00  0.00    +0.000 A 
ATOM     11  C   UNL     1       2.340   3.498  20.066  0.00  0.00    +0.000 A 
ATOM     12  C   UNL     1       3.431   4.295  19.680  0.00  0.00    +0.000 A 
BRANCH  11  13
ATOM     13  C   UNL     1       2.359   2.837  21.420  0.00  0.00    +0.000 C 
ATOM     14  F   UNL     1       3.477   2.095  21.653  0.00  0.00    +0.000 F 
ATOM     15  F   UNL     1       2.288   3.738  22.440  0.00  0.00    +0.000 F 
ATOM     16  F   UNL     1       1.305   1.991  21.599  0.00  0.00    +0.000 F 
ENDBRANCH  11  13
ENDBRANCH   4   7
BRANCH   1  17
ATOM     17  C   UNL     1       7.469   7.563  17.178  0.00  0.00    +0.000 C 
BRANCH  17  18
ATOM     18  C   UNL     1       8.409   8.007  18.302  0.00  0.00    +0.000 C 
BRANCH  18  19
ATOM     19  C   UNL     1       8.616   9.513  18.260  0.00  0.00    +0.000 C 
BRANCH  19  20
ATOM     20  O   UNL     1       9.063   9.953  19.538  0.00  0.00    +0.000 OA
BRANCH  20  24
ATOM     21  C   UNL     1      10.708  13.778  19.267  0.00  0.00    +0.000 A 
ATOM     22  C   UNL     1      10.170  13.117  18.162  0.00  0.00    +0.000 A 
ATOM     23  C   UNL     1       9.622  11.839  18.295  0.00  0.00    +0.000 A 
ATOM     24  C   UNL     1       9.623  11.201  19.530  0.00  0.00    +0.000 A 
ATOM     25  C   UNL     1      10.156  11.858  20.641  0.00  0.00    +0.000 A 
ATOM     26  C   UNL     1      10.707  13.135  20.508  0.00  0.00    +0.000 A 
BRANCH  21  30
ATOM     27  C   UNL     1      11.489  17.439  18.857  0.00  0.00    +0.000 C 
ATOM     28  C   UNL     1      10.576  16.248  18.980  0.00  0.00    +0.000 C 
ATOM     29  O   UNL     1       9.364  16.382  18.883  0.00  0.00    +0.000 OA
ATOM     30  N   UNL     1      11.269  15.069  19.196  0.00  0.00    +0.000 N 
ATOM     31  H   UNL     1      12.257  15.143  19.403  0.00  0.00    +0.000 HD
ENDBRANCH  21  30
ENDBRANCH  20  24
ENDBRANCH  19  20
ENDBRANCH  18  19
ENDBRANCH  17  18
ENDBRANCH   1  17
TORSDOF 8
ENDMDL
MODEL 4
REMARK VINA RESULT:      -7.9      7.208      8.699
REMARK  Name = 
REMARK  9 active torsions:
REMARK  status: ('A' for Active; 'I' for Inactive)
REMARK    1  A    between atoms: C_1  and  C_2
REMARK    2  A    between atoms: N_4  and  C_5
REMARK    3  A    between atoms: C_8  and  O_9
REMARK    4  A    between atoms: O_9  and  C_10
REMARK    5  A    between atoms: C_10  and  C_11
REMARK    6  A    between atoms: C_11  and  C_12
REMARK    7  A    between atoms: C_12  and  N_13
REMARK    8  A    between atoms: N_16  and  C_17
REMARK    9  A    between atoms: C_21  and  C_22
REMARK                            x       y       z     vdW  Elec       q    Type
REMARK                         _______ _______ _______ _____ _____    ______ ____
ROOT
ATOM      1  N   UNL     1       1.786   2.888  18.040  0.00  0.00    +0.000 NA
ATOM      2  C   UNL     1       2.004   4.119  17.242  0.00  0.00    +0.000 C 
ATOM      3  C   UNL     1       3.367   4.782  17.510  0.00  0.00    +0.000 C 
ATOM      4  N   UNL     1       4.456   3.829  17.258  0.00  0.00    +0.000 N 
ATOM      5  C   UNL     1       4.314   2.485  17.852  0.00  0.00    +0.000 C 
ATOM      6  C   UNL     1       2.870   1.938  17.690  0.00  0.00    +0.000 C 
ENDROOT
BRANCH   4   7
ATOM      7  C   UNL     1       5.379   4.049  16.260  0.00  0.00    +0.000 A 
ATOM      8  C   UNL     1       6.577   4.721  16.522  0.00  0.00    +0.000 A 
ATOM      9  C   UNL     1       7.493   5.007  15.507  0.00  0.00    +0.000 A 
ATOM     10  C   UNL     1       7.229   4.617  14.196  0.00  0.00    +0.000 A 
ATOM     11  C   UNL     1       6.050   3.928  13.899  0.00  0.00    +0.000 A 
ATOM     12  C   UNL     1       5.147   3.646  14.938  0.00  0.00    +0.000 A 
BRANCH  11  13
ATOM     13  C   UNL     1       5.713   3.490  12.497  0.00  0.00    +0.000 C 
ATOM     14  F   UNL     1       4.430   3.761  12.131  0.00  0.00    +0.000 F 
ATOM     15  F   UNL     1       6.504   4.087  11.561  0.00  0.00    +0.000 F 
ATOM     16  F   UNL     1       5.877   2.149  12.319  0.00  0.00    +0.000 F 
ENDBRANCH  11  13
ENDBRANCH   4   7
BRANCH   1  17
ATOM     17  C   UNL     1       1.761   3.146  19.494  0.00  0.00    +0.000 C 
BRANCH  17  18
ATOM     18  C   UNL     1       0.971   4.401  19.871  0.00  0.00    +0.000 C 
BRANCH  18  19
ATOM     19  C   UNL     1       1.726   5.213  20.912  0.00  0.00    +0.000 C 
BRANCH  19  20
ATOM     20  O   UNL     1       2.647   6.073  20.248  0.00  0.00    +0.000 OA
BRANCH  20  24
ATOM     21  C   UNL     1       1.137   9.751  18.982  0.00  0.00    +0.000 A 
ATOM     22  C   UNL     1       1.875   8.918  18.140  0.00  0.00    +0.000 A 
ATOM     23  C   UNL     1       2.357   7.690  18.600  0.00  0.00    +0.000 A 
ATOM     24  C   UNL     1       2.123   7.291  19.910  0.00  0.00    +0.000 A 
ATOM     25  C   UNL     1       1.382   8.118  20.758  0.00  0.00    +0.000 A 
ATOM     26  C   UNL     1       0.901   9.347  20.299  0.00  0.00    +0.000 A 
BRANCH  21  30
ATOM     27  C   UNL     1      -0.933  12.772  18.103  0.00  0.00    +0.000 C 
ATOM     28  C   UNL     1      -0.683  11.435  18.748  0.00  0.00    +0.000 C 
ATOM     29  O   UNL     1      -1.583  10.853  19.340  0.00  0.00    +0.000 OA
ATOM     30  N   UNL     1       0.619  10.997  18.574  0.00  0.00    +0.000 N 
ATOM     31  H   UNL     1       1.283  11.658  18.193  0.00  0.00    +0.000 HD
ENDBRANCH  21  30
ENDBRANCH  20  24
ENDBRANCH  19  20
ENDBRANCH  18  19
ENDBRANCH  17  18
ENDBRANCH   1  17
TORSDOF 8
ENDMDL
MODEL 5
REMARK VINA RESULT:      -7.8      1.622      1.902
REMARK  Name = 
REMARK  9 active torsions:
REMARK  status: ('A' for Active; 'I' for Inactive)
REMARK    1  A    between atoms: C_1  and  C_2
REMARK    2  A    between atoms: N_4  and  C_5
REMARK    3  A    between atoms: C_8  and  O_9
REMARK    4  A    between atoms: O_9  and  C_10
REMARK    5  A    between atoms: C_10  and  C_11
REMARK    6  A    between atoms: C_11  and  C_12
REMARK    7  A    between atoms: C_12  and  N_13
REMARK    8  A    between atoms: N_16  and  C_17
REMARK    9  A    between atoms: C_21  and  C_22
REMARK                            x       y       z     vdW  Elec       q    Type
REMARK                         _______ _______ _______ _____ _____    ______ ____
ROOT
ATOM      1  N   UNL     1       7.335   6.259  16.756  0.00  0.00    +0.000 NA
ATOM      2  C   UNL     1       7.342   5.458  18.004  0.00  0.00    +0.000 C 
ATOM      3  C   UNL     1       6.039   5.588  18.814  0.00  0.00    +0.000 C 
ATOM      4  N   UNL     1       4.885   5.210  17.988  0.00  0.00    +0.000 N 
ATOM      5  C   UNL     1       4.814   5.799  16.637  0.00  0.00    +0.000 C 
ATOM      6  C   UNL     1       6.197   5.784  15.932  0.00  0.00    +0.000 C 
ENDROOT
BRANCH   4   7
ATOM      7  C   UNL     1       4.104   4.122  18.310  0.00  0.00    +0.000 A 
ATOM      8  C   UNL     1       4.284   2.892  17.671  0.00  0.00    +0.000 A 
ATOM      9  C   UNL     1       3.458   1.798  17.944  0.00  0.00    +0.000 A 
ATOM     10  C   UNL     1       2.429   1.914  18.875  0.00  0.00    +0.000 A 
ATOM     11  C   UNL     1       2.230   3.123  19.546  0.00  0.00    +0.000 A 
ATOM     12  C   UNL     1       3.077   4.207  19.260  0.00  0.00    +0.000 A 
BRANCH  11  13
ATOM     13  C   UNL     1       1.127   3.303  20.557  0.00  0.00    +0.000 C 
ATOM     14  F   UNL     1       1.320   2.604  21.710  0.00  0.00    +0.000 F 
ATOM     15  F   UNL     1       0.970   4.604  20.930  0.00  0.00    +0.000 F 
ATOM     16  F   UNL     1      -0.086   2.906  20.078  0.00  0.00    +0.000 F 
ENDBRANCH  11  13
ENDBRANCH   4   7
BRANCH   1  17
ATOM     17  C   UNL     1       7.234   7.710  17.008  0.00  0.00    +0.000 C 
BRANCH  17  18
ATOM     18  C   UNL     1       8.265   8.222  18.017  0.00  0.00    +0.000 C 
BRANCH  18  19
ATOM     19  C   UNL     1       8.206   9.738  18.117  0.00  0.00    +0.000 C 
BRANCH  19  20
ATOM     20  O   UNL     1       9.530  10.243  18.263  0.00  0.00    +0.000 OA
BRANCH  20  24
ATOM     21  C   UNL     1       9.784  13.605  20.719  0.00  0.00    +0.000 A 
ATOM     22  C   UNL     1       9.563  13.700  19.344  0.00  0.00    +0.000 A 
ATOM     23  C   UNL     1       9.477  12.550  18.557  0.00  0.00    +0.000 A 
ATOM     24  C   UNL     1       9.630  11.294  19.132  0.00  0.00    +0.000 A 
ATOM     25  C   UNL     1       9.848  11.190  20.508  0.00  0.00    +0.000 A 
ATOM     26  C   UNL     1       9.936  12.341  21.295  0.00  0.00    +0.000 A 
BRANCH  21  30
ATOM     27  C   UNL     1      10.696  16.734  22.605  0.00  0.00    +0.000 C 
ATOM     28  C   UNL     1      10.818  15.737  21.484  0.00  0.00    +0.000 C 
ATOM     29  O   UNL     1      11.687  15.865  20.632  0.00  0.00    +0.000 OA
ATOM     30  N   UNL     1       9.874  14.729  21.566  0.00  0.00    +0.000 N 
ATOM     31  H   UNL     1       9.129  14.844  22.241  0.00  0.00    +0.000 HD
ENDBRANCH  21  30
ENDBRANCH  20  24
ENDBRANCH  19  20
ENDBRANCH  18  19
ENDBRANCH  17  18
ENDBRANCH   1  17
TORSDOF 8
ENDMDL
MODEL 6
REMARK VINA RESULT:      -7.8      6.867      8.548
REMARK  Name = 
REMARK  9 active torsions:
REMARK  status: ('A' for Active; 'I' for Inactive)
REMARK    1  A    between atoms: C_1  and  C_2
REMARK    2  A    between atoms: N_4  and  C_5
REMARK    3  A    between atoms: C_8  and  O_9
REMARK    4  A    between atoms: O_9  and  C_10
REMARK    5  A    between atoms: C_10  and  C_11
REMARK    6  A    between atoms: C_11  and  C_12
REMARK    7  A    between atoms: C_12  and  N_13
REMARK    8  A    between atoms: N_16  and  C_17
REMARK    9  A    between atoms: C_21  and  C_22
REMARK                            x       y       z     vdW  Elec       q    Type
REMARK                         _______ _______ _______ _____ _____    ______ ____
ROOT
ATOM      1  N   UNL     1       5.832   4.158  18.525  0.00  0.00    +0.000 NA
ATOM      2  C   UNL     1       5.164   3.411  17.431  0.00  0.00    +0.000 C 
ATOM      3  C   UNL     1       4.808   4.296  16.223  0.00  0.00    +0.000 C 
ATOM      4  N   UNL     1       6.011   4.962  15.706  0.00  0.00    +0.000 N 
ATOM      5  C   UNL     1       6.883   5.622  16.698  0.00  0.00    +0.000 C 
ATOM      6  C   UNL     1       7.073   4.746  17.965  0.00  0.00    +0.000 C 
ENDROOT
BRANCH   4   7
ATOM      7  C   UNL     1       6.479   4.703  14.437  0.00  0.00    +0.000 A 
ATOM      8  C   UNL     1       7.482   5.492  13.865  0.00  0.00    +0.000 A 
ATOM      9  C   UNL     1       7.922   5.279  12.556  0.00  0.00    +0.000 A 
ATOM     10  C   UNL     1       7.366   4.259  11.788  0.00  0.00    +0.000 A 
ATOM     11  C   UNL     1       6.375   3.439  12.333  0.00  0.00    +0.000 A 
ATOM     12  C   UNL     1       5.953   3.668  13.653  0.00  0.00    +0.000 A 
BRANCH  11  13
ATOM     13  C   UNL     1       5.736   2.326  11.543  0.00  0.00    +0.000 C 
ATOM     14  F   UNL     1       4.500   2.633  11.062  0.00  0.00    +0.000 F 
ATOM     15  F   UNL     1       6.480   1.963  10.460  0.00  0.00    +0.000 F 
ATOM     16  F   UNL     1       5.578   1.190  12.281  0.00  0.00    +0.000 F 
ENDBRANCH  11  13
ENDBRANCH   4   7
BRANCH   1  17
ATOM     17  C   UNL     1       4.971   5.205  19.111  0.00  0.00    +0.000 C 
BRANCH  17  18
ATOM     18  C   UNL     1       3.640   4.667  19.640  0.00  0.00    +0.000 C 
BRANCH  18  19
ATOM     19  C   UNL     1       2.479   5.479  19.088  0.00  0.00    +0.000 C 
BRANCH  19  20
ATOM     20  O   UNL     1       2.980   6.707  18.568  0.00  0.00    +0.000 OA
BRANCH  20  24
ATOM     21  C   UNL     1       0.696   9.951  19.858  0.00  0.00    +0.000 A 
ATOM     22  C   UNL     1       1.023   8.887  20.700  0.00  0.00    +0.000 A 
ATOM     23  C   UNL     1       1.796   7.822  20.232  0.00  0.00    +0.000 A 
ATOM     24  C   UNL     1       2.235   7.800  18.913  0.00  0.00    +0.000 A 
ATOM     25  C   UNL     1       1.915   8.863  18.066  0.00  0.00    +0.000 A 
ATOM     26  C   UNL     1       1.140   9.928  18.533  0.00  0.00    +0.000 A 
BRANCH  21  30
ATOM     27  C   UNL     1      -0.693  13.146  21.288  0.00  0.00    +0.000 C 
ATOM     28  C   UNL     1       0.408  12.207  20.872  0.00  0.00    +0.000 C 
ATOM     29  O   UNL     1       1.580  12.494  21.080  0.00  0.00    +0.000 OA
ATOM     30  N   UNL     1      -0.074  11.056  20.274  0.00  0.00    +0.000 N 
ATOM     31  H   UNL     1      -1.058  11.033  20.038  0.00  0.00    +0.000 HD
ENDBRANCH  21  30
ENDBRANCH  20  24
ENDBRANCH  19  20
ENDBRANCH  18  19
ENDBRANCH  17  18
ENDBRANCH   1  17
TORSDOF 8
ENDMDL
MODEL 7
REMARK VINA RESULT:      -7.8      6.723      8.235
REMARK  Name = 
REMARK  9 active torsions:
REMARK  status: ('A' for Active; 'I' for Inactive)
REMARK    1  A    between atoms: C_1  and  C_2
REMARK    2  A    between atoms: N_4  and  C_5
REMARK    3  A    between atoms: C_8  and  O_9
REMARK    4  A    between atoms: O_9  and  C_10
REMARK    5  A    between atoms: C_10  and  C_11
REMARK    6  A    between atoms: C_11  and  C_12
REMARK    7  A    between atoms: C_12  and  N_13
REMARK    8  A    between atoms: N_16  and  C_17
REMARK    9  A    between atoms: C_21  and  C_22
REMARK                            x       y       z     vdW  Elec       q    Type
REMARK                         _______ _______ _______ _____ _____    ______ ____
ROOT
ATOM      1  N   UNL     1       1.824   2.370  18.895  0.00  0.00    +0.000 NA
ATOM      2  C   UNL     1       1.919   2.882  17.505  0.00  0.00    +0.000 C 
ATOM      3  C   UNL     1       2.681   4.215  17.401  0.00  0.00    +0.000 C 
ATOM      4  N   UNL     1       4.028   4.079  17.973  0.00  0.00    +0.000 N 
ATOM      5  C   UNL     1       4.125   3.432  19.296  0.00  0.00    +0.000 C 
ATOM      6  C   UNL     1       3.208   2.183  19.392  0.00  0.00    +0.000 C 
ENDROOT
BRANCH   4   7
ATOM      7  C   UNL     1       5.151   4.228  17.191  0.00  0.00    +0.000 A 
ATOM      8  C   UNL     1       6.359   4.669  17.742  0.00  0.00    +0.000 A 
ATOM      9  C   UNL     1       7.489   4.884  16.950  0.00  0.00    +0.000 A 
ATOM     10  C   UNL     1       7.435   4.655  15.578  0.00  0.00    +0.000 A 
ATOM     11  C   UNL     1       6.251   4.197  14.994  0.00  0.00    +0.000 A 
ATOM     12  C   UNL     1       5.130   3.981  15.812  0.00  0.00    +0.000 A 
BRANCH  11  13
ATOM     13  C   UNL     1       6.138   3.941  13.513  0.00  0.00    +0.000 C 
ATOM     14  F   UNL     1       4.899   4.191  13.006  0.00  0.00    +0.000 F 
ATOM     15  F   UNL     1       7.002   4.704  12.786  0.00  0.00    +0.000 F 
ATOM     16  F   UNL     1       6.421   2.648  13.188  0.00  0.00    +0.000 F 
ENDBRANCH  11  13
ENDBRANCH   4   7
BRANCH   1  17
ATOM     17  C   UNL     1       1.062   3.270  19.784  0.00  0.00    +0.000 C 
BRANCH  17  18
ATOM     18  C   UNL     1       1.949   4.064  20.745  0.00  0.00    +0.000 C 
BRANCH  18  19
ATOM     19  C   UNL     1       1.515   5.520  20.792  0.00  0.00    +0.000 C 
BRANCH  19  20
ATOM     20  O   UNL     1       2.517   6.321  20.173  0.00  0.00    +0.000 OA
BRANCH  20  24
ATOM     21  C   UNL     1       1.004  10.013  18.953  0.00  0.00    +0.000 A 
ATOM     22  C   UNL     1       0.744   9.481  20.217  0.00  0.00    +0.000 A 
ATOM     23  C   UNL     1       1.276   8.244  20.591  0.00  0.00    +0.000 A 
ATOM     24  C   UNL     1       2.055   7.518  19.699  0.00  0.00    +0.000 A 
ATOM     25  C   UNL     1       2.322   8.045  18.433  0.00  0.00    +0.000 A 
ATOM     26  C   UNL     1       1.789   9.281  18.058  0.00  0.00    +0.000 A 
BRANCH  21  30
ATOM     27  C   UNL     1       0.053  13.616  18.416  0.00  0.00    +0.000 C 
ATOM     28  C   UNL     1       0.853  12.497  19.027  0.00  0.00    +0.000 C 
ATOM     29  O   UNL     1       1.701  12.733  19.877  0.00  0.00    +0.000 OA
ATOM     30  N   UNL     1       0.501  11.257  18.522  0.00  0.00    +0.000 N 
ATOM     31  H   UNL     1      -0.110  11.241  17.716  0.00  0.00    +0.000 HD
ENDBRANCH  21  30
ENDBRANCH  20  24
ENDBRANCH  19  20
ENDBRANCH  18  19
ENDBRANCH  17  18
ENDBRANCH   1  17
TORSDOF 8
ENDMDL
MODEL 8
REMARK VINA RESULT:      -7.7      1.106      1.415
REMARK  Name = 
REMARK  9 active torsions:
REMARK  status: ('A' for Active; 'I' for Inactive)
REMARK    1  A    between atoms: C_1  and  C_2
REMARK    2  A    between atoms: N_4  and  C_5
REMARK    3  A    between atoms: C_8  and  O_9
REMARK    4  A    between atoms: O_9  and  C_10
REMARK    5  A    between atoms: C_10  and  C_11
REMARK    6  A    between atoms: C_11  and  C_12
REMARK    7  A    between atoms: C_12  and  N_13
REMARK    8  A    between atoms: N_16  and  C_17
REMARK    9  A    between atoms: C_21  and  C_22
REMARK                            x       y       z     vdW  Elec       q    Type
REMARK                         _______ _______ _______ _____ _____    ______ ____
ROOT
ATOM      1  N   UNL     1       6.600   6.884  16.728  0.00  0.00    +0.000 NA
ATOM      2  C   UNL     1       6.663   5.437  16.407  0.00  0.00    +0.000 C 
ATOM      3  C   UNL     1       6.596   4.536  17.654  0.00  0.00    +0.000 C 
ATOM      4  N   UNL     1       5.378   4.822  18.424  0.00  0.00    +0.000 N 
ATOM      5  C   UNL     1       5.078   6.242  18.691  0.00  0.00    +0.000 C 
ATOM      6  C   UNL     1       5.320   7.124  17.437  0.00  0.00    +0.000 C 
ENDROOT
BRANCH   4   7
ATOM      7  C   UNL     1       4.401   3.865  18.593  0.00  0.00    +0.000 A 
ATOM      8  C   UNL     1       4.464   2.645  17.913  0.00  0.00    +0.000 A 
ATOM      9  C   UNL     1       3.449   1.692  18.027  0.00  0.00    +0.000 A 
ATOM     10  C   UNL     1       2.342   1.941  18.835  0.00  0.00    +0.000 A 
ATOM     11  C   UNL     1       2.254   3.142  19.543  0.00  0.00    +0.000 A 
ATOM     12  C   UNL     1       3.290   4.082  19.418  0.00  0.00    +0.000 A 
BRANCH  11  13
ATOM     13  C   UNL     1       1.076   3.463  20.426  0.00  0.00    +0.000 C 
ATOM     14  F   UNL     1      -0.113   3.007  19.942  0.00  0.00    +0.000 F 
ATOM     15  F   UNL     1       1.201   2.932  21.674  0.00  0.00    +0.000 F 
ATOM     16  F   UNL     1       0.915   4.805  20.608  0.00  0.00    +0.000 F 
ENDBRANCH  11  13
ENDBRANCH   4   7
BRANCH   1  17
ATOM     17  C   UNL     1       7.746   7.340  17.540  0.00  0.00    +0.000 C 
BRANCH  17  18
ATOM     18  C   UNL     1       7.768   8.854  17.759  0.00  0.00    +0.000 C 
BRANCH  18  19
ATOM     19  C   UNL     1       9.019   9.266  18.518  0.00  0.00    +0.000 C 
BRANCH  19  20
ATOM     20  O   UNL     1       8.694  10.338  19.397  0.00  0.00    +0.000 OA
BRANCH  20  24
ATOM     21  C   UNL     1      10.947  13.723  18.461  0.00  0.00    +0.000 A 
ATOM     22  C   UNL     1      11.050  12.533  17.737  0.00  0.00    +0.000 A 
ATOM     23  C   UNL     1      10.273  11.424  18.077  0.00  0.00    +0.000 A 
ATOM     24  C   UNL     1       9.399  11.485  19.156  0.00  0.00    +0.000 A 
ATOM     25  C   UNL     1       9.288  12.672  19.883  0.00  0.00    +0.000 A 
ATOM     26  C   UNL     1      10.067  13.782  19.544  0.00  0.00    +0.000 A 
BRANCH  21  30
ATOM     27  C   UNL     1      12.321  17.017  17.262  0.00  0.00    +0.000 C 
ATOM     28  C   UNL     1      11.232  16.010  17.520  0.00  0.00    +0.000 C 
ATOM     29  O   UNL     1      10.082  16.236  17.167  0.00  0.00    +0.000 OA
ATOM     30  N   UNL     1      11.700  14.876  18.161  0.00  0.00    +0.000 N 
ATOM     31  H   UNL     1      12.644  14.904  18.522  0.00  0.00    +0.000 HD
ENDBRANCH  21  30
ENDBRANCH  20  24
ENDBRANCH  19  20
ENDBRANCH  18  19
ENDBRANCH  17  18
ENDBRANCH   1  17
TORSDOF 8
ENDMDL
MODEL 9
REMARK VINA RESULT:      -7.7      7.093      8.695
REMARK  Name = 
REMARK  9 active torsions:
REMARK  status: ('A' for Active; 'I' for Inactive)
REMARK    1  A    between atoms: C_1  and  C_2
REMARK    2  A    between atoms: N_4  and  C_5
REMARK    3  A    between atoms: C_8  and  O_9
REMARK    4  A    between atoms: O_9  and  C_10
REMARK    5  A    between atoms: C_10  and  C_11
REMARK    6  A    between atoms: C_11  and  C_12
REMARK    7  A    between atoms: C_12  and  N_13
REMARK    8  A    between atoms: N_16  and  C_17
REMARK    9  A    between atoms: C_21  and  C_22
REMARK                            x       y       z     vdW  Elec       q    Type
REMARK                         _______ _______ _______ _____ _____    ______ ____
ROOT
ATOM      1  N   UNL     1       2.582   2.321  19.332  0.00  0.00    +0.000 NA
ATOM      2  C   UNL     1       2.628   2.101  17.865  0.00  0.00    +0.000 C 
ATOM      3  C   UNL     1       2.821   3.401  17.063  0.00  0.00    +0.000 C 
ATOM      4  N   UNL     1       4.042   4.092  17.500  0.00  0.00    +0.000 N 
ATOM      5  C   UNL     1       4.232   4.250  18.955  0.00  0.00    +0.000 C 
ATOM      6  C   UNL     1       3.865   2.952  19.724  0.00  0.00    +0.000 C 
ENDROOT
BRANCH   4   7
ATOM      7  C   UNL     1       5.101   4.278  16.640  0.00  0.00    +0.000 A 
ATOM      8  C   UNL     1       6.277   4.902  17.069  0.00  0.00    +0.000 A 
ATOM      9  C   UNL     1       7.335   5.153  16.192  0.00  0.00    +0.000 A 
ATOM     10  C   UNL     1       7.238   4.777  14.855  0.00  0.00    +0.000 A 
ATOM     11  C   UNL     1       6.086   4.136  14.392  0.00  0.00    +0.000 A 
ATOM     12  C   UNL     1       5.038   3.888  15.296  0.00  0.00    +0.000 A 
BRANCH  11  13
ATOM     13  C   UNL     1       5.928   3.715  12.955  0.00  0.00    +0.000 C 
ATOM     14  F   UNL     1       4.671   3.895  12.464  0.00  0.00    +0.000 F 
ATOM     15  F   UNL     1       6.758   4.400  12.118  0.00  0.00    +0.000 F 
ATOM     16  F   UNL     1       6.217   2.396  12.765  0.00  0.00    +0.000 F 
ENDBRANCH  11  13
ENDBRANCH   4   7
BRANCH   1  17
ATOM     17  C   UNL     1       1.436   3.154  19.749  0.00  0.00    +0.000 C 
BRANCH  17  18
ATOM     18  C   UNL     1       1.801   4.196  20.809  0.00  0.00    +0.000 C 
BRANCH  18  19
ATOM     19  C   UNL     1       1.176   5.541  20.472  0.00  0.00    +0.000 C 
BRANCH  19  20
ATOM     20  O   UNL     1       2.205   6.524  20.407  0.00  0.00    +0.000 OA
BRANCH  20  24
ATOM     21  C   UNL     1       0.756  10.431  20.219  0.00  0.00    +0.000 A 
ATOM     22  C   UNL     1       0.800   9.708  21.413  0.00  0.00    +0.000 A 
ATOM     23  C   UNL     1       1.300   8.404  21.435  0.00  0.00    +0.000 A 
ATOM     24  C   UNL     1       1.742   7.802  20.263  0.00  0.00    +0.000 A 
ATOM     25  C   UNL     1       1.704   8.521  19.066  0.00  0.00    +0.000 A 
ATOM     26  C   UNL     1       1.202   9.825  19.042  0.00  0.00    +0.000 A 
BRANCH  21  30
ATOM     27  C   UNL     1      -1.136  13.629  19.605  0.00  0.00    +0.000 C 
ATOM     28  C   UNL     1      -0.973  12.133  19.656  0.00  0.00    +0.000 C 
ATOM     29  O   UNL     1      -1.880  11.396  19.292  0.00  0.00    +0.000 OA
ATOM     30  N   UNL     1       0.269  11.752  20.135  0.00  0.00    +0.000 N 
ATOM     31  H   UNL     1       0.853  12.473  20.537  0.00  0.00    +0.000 HD
ENDBRANCH  21  30
ENDBRANCH  20  24
ENDBRANCH  19  20
ENDBRANCH  18  19
ENDBRANCH  17  18
ENDBRANCH   1  17
TORSDOF 8
ENDMDL
