MODEL 1
REMARK VINA RESULT:      -7.7      0.000      0.000
REMARK  Name = 
REMARK  7 active torsions:
REMARK  status: ('A' for Active; 'I' for Inactive)
REMARK    1  A    between atoms: O_1  and  C_2
REMARK    2  A    between atoms: C_2  and  C_3
REMARK    3  A    between atoms: C_7  and  C_8
REMARK    4  A    between atoms: C_10  and  N_11
REMARK    5  A    between atoms: C_20  and  C_21
REMARK    6  A    between atoms: N_24  and  C_25
REMARK    7  A    between atoms: C_25  and  C_26
REMARK                            x       y       z     vdW  Elec       q    Type
REMARK                         _______ _______ _______ _____ _____    ______ ____
ROOT
ATOM      1  C   UNL     1       2.646   5.820  19.391  0.00  0.00    +0.000 A 
ATOM      2  C   UNL     1       3.749   5.843  18.390  0.00  0.00    +0.000 A 
ATOM      3  C   UNL     1       4.001   6.957  17.680  0.00  0.00    +0.000 A 
ATOM      4  C   UNL     1       3.116   8.065  17.913  0.00  0.00    +0.000 A 
ATOM      5  N   UNL     1       3.049   9.251  17.333  0.00  0.00    +0.000 NA
ATOM      6  C   UNL     1       2.024   9.903  17.950  0.00  0.00    +0.000 A 
ATOM      7  C   UNL     1       1.419   9.121  18.915  0.00  0.00    +0.000 A 
ATOM      8  N   UNL     1       2.113   7.921  18.865  0.00  0.00    +0.000 N 
ATOM      9  N   UNL     1       1.842   6.817  19.619  0.00  0.00    +0.000 NA
ENDROOT
BRANCH   1  14
ATOM     10  C   UNL     1       3.333   2.433  21.050  0.00  0.00    +0.000 A 
ATOM     11  C   UNL     1       2.073   2.178  21.607  0.00  0.00    +0.000 A 
ATOM     12  C   UNL     1       1.022   3.080  21.429  0.00  0.00    +0.000 A 
ATOM     13  C   UNL     1       1.219   4.254  20.699  0.00  0.00    +0.000 A 
ATOM     14  C   UNL     1       2.474   4.542  20.153  0.00  0.00    +0.000 A 
ATOM     15  C   UNL     1       3.529   3.635  20.349  0.00  0.00    +0.000 A 
BRANCH  10  16
ATOM     16  C   UNL     1       4.462   1.458  21.264  0.00  0.00    +0.000 C 
BRANCH  16  17
ATOM     17  O   UNL     1       5.312   1.416  20.123  0.00  0.00    +0.000 OA
ATOM     18  H   UNL     1       5.995   2.094  20.262  0.00  0.00    +0.000 HD
ENDBRANCH  16  17
ENDBRANCH  10  16
ENDBRANCH   1  14
BRANCH   3  19
ATOM     19  N   UNL     1       5.077   7.020  16.774  0.00  0.00    +0.000 N 
ATOM     20  C   UNL     1       4.999   6.553  15.373  0.00  0.00    +0.000 C 
ATOM     21  C   UNL     1       6.000   5.416  15.136  0.00  0.00    +0.000 C 
ATOM     22  O   UNL     1       7.340   5.831  15.463  0.00  0.00    +0.000 OA
ATOM     23  C   UNL     1       7.412   6.228  16.842  0.00  0.00    +0.000 C 
ATOM     24  C   UNL     1       6.457   7.391  17.147  0.00  0.00    +0.000 C 
ENDBRANCH   3  19
BRANCH   7  25
ATOM     25  C   UNL     1       0.271   9.396  19.858  0.00  0.00    +0.000 C 
ATOM     26  C   UNL     1      -0.968   9.961  19.156  0.00  0.00    +0.000 C 
ATOM     27  C   UNL     1      -0.845  11.439  18.777  0.00  0.00    +0.000 C 
ATOM     28  N   UNL     1      -0.437  12.309  19.892  0.00  0.00    +0.000 NA
ATOM     29  C   UNL     1       0.751  11.800  20.603  0.00  0.00    +0.000 C 
ATOM     30  C   UNL     1       0.660  10.327  21.011  0.00  0.00    +0.000 C 
BRANCH  28  31
ATOM     31  C   UNL     1      -0.147  13.681  19.414  0.00  0.00    +0.000 C 
BRANCH  31  32
ATOM     32  C   UNL     1       1.316  14.042  19.350  0.00  0.00    +0.000 A 
ATOM     33  C   UNL     1       2.122  13.641  18.277  0.00  0.00    +0.000 A 
ATOM     34  C   UNL     1       3.479  13.953  18.278  0.00  0.00    +0.000 A 
ATOM     35  C   UNL     1       3.990  14.654  19.356  0.00  0.00    +0.000 A 
ATOM     36  N   UNL     1       3.245  15.062  20.406  0.00  0.00    +0.000 NA
ATOM     37  C   UNL     1       1.928  14.749  20.377  0.00  0.00    +0.000 A 
ENDBRANCH  31  32
ENDBRANCH  28  31
ENDBRANCH   7  25
TORSDOF 7
ENDMDL
MODEL 2
REMARK VINA RESULT:      -7.6      1.522      2.086
REMARK  Name = 
REMARK  7 active torsions:
REMARK  status: ('A' for Active; 'I' for Inactive)
REMARK    1  A    between atoms: O_1  and  C_2
REMARK    2  A    between atoms: C_2  and  C_3
REMARK    3  A    between atoms: C_7  and  C_8
REMARK    4  A    between atoms: C_10  and  N_11
REMARK    5  A    between atoms: C_20  and  C_21
REMARK    6  A    between atoms: N_24  and  C_25
REMARK    7  A    between atoms: C_25  and  C_26
REMARK                            x       y       z     vdW  Elec       q    Type
REMARK                         _______ _______ _______ _____ _____    ______ ____
ROOT
ATOM      1  C   UNL     1       2.676   5.724  19.387  0.00  0.00    +0.000 A 
ATOM      2  C   UNL     1       3.789   5.787  18.399  0.00  0.00    +0.000 A 
ATOM      3  C   UNL     1       4.008   6.909  17.689  0.00  0.00    +0.000 A 
ATOM      4  C   UNL     1       3.081   7.984  17.911  0.00  0.00    +0.000 A 
ATOM      5  N   UNL     1       2.977   9.166  17.328  0.00  0.00    +0.000 NA
ATOM      6  C   UNL     1       1.922   9.780  17.933  0.00  0.00    +0.000 A 
ATOM      7  C   UNL     1       1.335   8.978  18.892  0.00  0.00    +0.000 A 
ATOM      8  N   UNL     1       2.073   7.804  18.851  0.00  0.00    +0.000 N 
ATOM      9  N   UNL     1       1.834   6.692  19.604  0.00  0.00    +0.000 NA
ENDROOT
BRANCH   1  14
ATOM     10  C   UNL     1       3.461   2.353  21.034  0.00  0.00    +0.000 A 
ATOM     11  C   UNL     1       2.213   2.067  21.603  0.00  0.00    +0.000 A 
ATOM     12  C   UNL     1       1.140   2.944  21.437  0.00  0.00    +0.000 A 
ATOM     13  C   UNL     1       1.300   4.123  20.707  0.00  0.00    +0.000 A 
ATOM     14  C   UNL     1       2.543   4.442  20.149  0.00  0.00    +0.000 A 
ATOM     15  C   UNL     1       3.621   3.560  20.332  0.00  0.00    +0.000 A 
BRANCH  10  16
ATOM     16  C   UNL     1       4.615   1.405  21.235  0.00  0.00    +0.000 C 
BRANCH  16  17
ATOM     17  O   UNL     1       5.223   1.084  19.989  0.00  0.00    +0.000 OA
ATOM     18  H   UNL     1       4.657   0.414  19.569  0.00  0.00    +0.000 HD
ENDBRANCH  16  17
ENDBRANCH  10  16
ENDBRANCH   1  14
BRANCH   3  19
ATOM     19  N   UNL     1       5.092   7.010  16.795  0.00  0.00    +0.000 N 
ATOM     20  C   UNL     1       5.036   6.567  15.385  0.00  0.00    +0.000 C 
ATOM     21  C   UNL     1       6.062   5.455  15.138  0.00  0.00    +0.000 C 
ATOM     22  O   UNL     1       7.391   5.891  15.485  0.00  0.00    +0.000 OA
ATOM     23  C   UNL     1       7.441   6.264  16.871  0.00  0.00    +0.000 C 
ATOM     24  C   UNL     1       6.460   7.402  17.188  0.00  0.00    +0.000 C 
ENDBRANCH   3  19
BRANCH   7  25
ATOM     25  C   UNL     1       0.168   9.212  19.822  0.00  0.00    +0.000 C 
ATOM     26  C   UNL     1      -0.842  10.230  19.283  0.00  0.00    +0.000 C 
ATOM     27  C   UNL     1      -0.377  11.685  19.400  0.00  0.00    +0.000 C 
ATOM     28  N   UNL     1       0.068  12.060  20.752  0.00  0.00    +0.000 NA
ATOM     29  C   UNL     1       1.039  11.103  21.315  0.00  0.00    +0.000 C 
ATOM     30  C   UNL     1       0.604   9.638  21.228  0.00  0.00    +0.000 C 
BRANCH  28  31
ATOM     31  C   UNL     1       0.685  13.408  20.749  0.00  0.00    +0.000 C 
BRANCH  31  32
ATOM     32  C   UNL     1       0.316  14.285  21.919  0.00  0.00    +0.000 A 
ATOM     33  C   UNL     1      -0.835  14.044  22.680  0.00  0.00    +0.000 A 
ATOM     34  C   UNL     1      -1.167  14.904  23.722  0.00  0.00    +0.000 A 
ATOM     35  C   UNL     1      -0.338  15.984  23.970  0.00  0.00    +0.000 A 
ATOM     36  N   UNL     1       0.782  16.248  23.264  0.00  0.00    +0.000 NA
ATOM     37  C   UNL     1       1.083  15.392  22.259  0.00  0.00    +0.000 A 
ENDBRANCH  31  32
ENDBRANCH  28  31
ENDBRANCH   7  25
TORSDOF 7
ENDMDL
MODEL 3
REMARK VINA RESULT:      -7.6      5.014     10.305
REMARK  Name = 
REMARK  7 active torsions:
REMARK  status: ('A' for Active; 'I' for Inactive)
REMARK    1  A    between atoms: O_1  and  C_2
REMARK    2  A    between atoms: C_2  and  C_3
REMARK    3  A    between atoms: C_7  and  C_8
REMARK    4  A    between atoms: C_10  and  N_11
REMARK    5  A    between atoms: C_20  and  C_21
REMARK    6  A    between atoms: N_24  and  C_25
REMARK    7  A    between atoms: C_25  and  C_26
REMARK                            x       y       z     vdW  Elec       q    Type
REMARK                         _______ _______ _______ _____ _____    ______ ____
ROOT
ATOM      1  C   UNL     1      -2.014  13.000  20.491  0.00  0.00    +0.000 A 
ATOM      2  C   UNL     1      -3.380  12.791  19.934  0.00  0.00    +0.000 A 
ATOM      3  C   UNL     1      -3.600  11.846  19.002  0.00  0.00    +0.000 A 
ATOM      4  C   UNL     1      -2.442  11.117  18.561  0.00  0.00    +0.000 A 
ATOM      5  N   UNL     1      -2.311  10.195  17.624  0.00  0.00    +0.000 NA
ATOM      6  C   UNL     1      -0.993   9.847  17.636  0.00  0.00    +0.000 A 
ATOM      7  C   UNL     1      -0.275  10.567  18.571  0.00  0.00    +0.000 A 
ATOM      8  N   UNL     1      -1.215  11.409  19.147  0.00  0.00    +0.000 N 
ATOM      9  N   UNL     1      -0.959  12.343  20.108  0.00  0.00    +0.000 NA
ENDROOT
BRANCH   1  14
ATOM     10  C   UNL     1      -2.617  15.125  23.623  0.00  0.00    +0.000 A 
ATOM     11  C   UNL     1      -1.570  16.049  23.492  0.00  0.00    +0.000 A 
ATOM     12  C   UNL     1      -0.704  15.989  22.399  0.00  0.00    +0.000 A 
ATOM     13  C   UNL     1      -0.865  15.000  21.427  0.00  0.00    +0.000 A 
ATOM     14  C   UNL     1      -1.887  14.053  21.548  0.00  0.00    +0.000 A 
ATOM     15  C   UNL     1      -2.746  14.113  22.658  0.00  0.00    +0.000 A 
BRANCH  10  16
ATOM     16  C   UNL     1      -3.535  15.193  24.816  0.00  0.00    +0.000 C 
BRANCH  16  17
ATOM     17  O   UNL     1      -3.817  13.887  25.306  0.00  0.00    +0.000 OA
ATOM     18  H   UNL     1      -2.977  13.398  25.291  0.00  0.00    +0.000 HD
ENDBRANCH  16  17
ENDBRANCH  10  16
ENDBRANCH   1  14
BRANCH   3  19
ATOM     19  N   UNL     1      -4.893  11.591  18.508  0.00  0.00    +0.000 N 
ATOM     20  C   UNL     1      -5.320  11.902  17.126  0.00  0.00    +0.000 C 
ATOM     21  C   UNL     1      -6.469  12.918  17.142  0.00  0.00    +0.000 C 
ATOM     22  O   UNL     1      -7.578  12.431  17.922  0.00  0.00    +0.000 OA
ATOM     23  C   UNL     1      -7.160  12.187  19.275  0.00  0.00    +0.000 C 
ATOM     24  C   UNL     1      -6.029  11.150  19.341  0.00  0.00    +0.000 C 
ENDBRANCH   3  19
BRANCH   7  25
ATOM     25  C   UNL     1       1.183  10.533  18.962  0.00  0.00    +0.000 C 
ATOM     26  C   UNL     1       2.052   9.720  17.996  0.00  0.00    +0.000 C 
ATOM     27  C   UNL     1       1.909   8.205  18.162  0.00  0.00    +0.000 C 
ATOM     28  N   UNL     1       2.093   7.737  19.545  0.00  0.00    +0.000 NA
ATOM     29  C   UNL     1       1.279   8.496  20.513  0.00  0.00    +0.000 C 
ATOM     30  C   UNL     1       1.405  10.017  20.388  0.00  0.00    +0.000 C 
BRANCH  28  31
ATOM     31  C   UNL     1       1.748   6.300  19.666  0.00  0.00    +0.000 C 
BRANCH  31  32
ATOM     32  C   UNL     1       2.657   5.358  18.918  0.00  0.00    +0.000 A 
ATOM     33  C   UNL     1       2.168   4.509  17.917  0.00  0.00    +0.000 A 
ATOM     34  C   UNL     1       3.030   3.620  17.282  0.00  0.00    +0.000 A 
ATOM     35  C   UNL     1       4.358   3.603  17.672  0.00  0.00    +0.000 A 
ATOM     36  N   UNL     1       4.869   4.407  18.629  0.00  0.00    +0.000 NA
ATOM     37  C   UNL     1       4.009   5.265  19.226  0.00  0.00    +0.000 A 
ENDBRANCH  31  32
ENDBRANCH  28  31
ENDBRANCH   7  25
TORSDOF 7
ENDMDL
MODEL 4
REMARK VINA RESULT:      -7.6      4.290      9.459
REMARK  Name = 
REMARK  7 active torsions:
REMARK  status: ('A' for Active; 'I' for Inactive)
REMARK    1  A    between atoms: O_1  and  C_2
REMARK    2  A    between atoms: C_2  and  C_3
REMARK    3  A    between atoms: C_7  and  C_8
REMARK    4  A    between atoms: C_10  and  N_11
REMARK    5  A    between atoms: C_20  and  C_21
REMARK    6  A    between atoms: N_24  and  C_25
REMARK    7  A    between atoms: C_25  and  C_26
REMARK                            x       y       z     vdW  Elec       q    Type
REMARK                         _______ _______ _______ _____ _____    ______ ____
ROOT
ATOM      1  C   UNL     1      -0.162  13.850  21.984  0.00  0.00    +0.000 A 
ATOM      2  C   UNL     1       0.890  14.900  21.886  0.00  0.00    +0.000 A 
ATOM      3  C   UNL     1       1.862  14.807  20.960  0.00  0.00    +0.000 A 
ATOM      4  C   UNL     1       1.837  13.628  20.139  0.00  0.00    +0.000 A 
ATOM      5  N   UNL     1       2.677  13.209  19.208  0.00  0.00    +0.000 NA
ATOM      6  C   UNL     1       2.161  12.032  18.755  0.00  0.00    +0.000 A 
ATOM      7  C   UNL     1       0.998  11.686  19.415  0.00  0.00    +0.000 A 
ATOM      8  N   UNL     1       0.810  12.710  20.331  0.00  0.00    +0.000 N 
ATOM      9  N   UNL     1      -0.202  12.782  21.243  0.00  0.00    +0.000 NA
ENDROOT
BRANCH   1  14
ATOM     10  C   UNL     1      -3.417  13.613  23.996  0.00  0.00    +0.000 A 
ATOM     11  C   UNL     1      -3.131  14.524  25.022  0.00  0.00    +0.000 A 
ATOM     12  C   UNL     1      -1.916  15.210  25.045  0.00  0.00    +0.000 A 
ATOM     13  C   UNL     1      -0.964  14.989  24.048  0.00  0.00    +0.000 A 
ATOM     14  C   UNL     1      -1.216  14.068  23.025  0.00  0.00    +0.000 A 
ATOM     15  C   UNL     1      -2.437  13.373  23.018  0.00  0.00    +0.000 A 
BRANCH  10  16
ATOM     16  C   UNL     1      -4.727  12.869  23.993  0.00  0.00    +0.000 C 
BRANCH  16  17
ATOM     17  O   UNL     1      -4.684  11.775  24.903  0.00  0.00    +0.000 OA
ATOM     18  H   UNL     1      -5.298  11.992  25.624  0.00  0.00    +0.000 HD
ENDBRANCH  16  17
ENDBRANCH  10  16
ENDBRANCH   1  14
BRANCH   3  19
ATOM     19  N   UNL     1       2.830  15.819  20.811  0.00  0.00    +0.000 N 
ATOM     20  C   UNL     1       2.813  16.815  19.718  0.00  0.00    +0.000 C 
ATOM     21  C   UNL     1       4.078  16.684  18.861  0.00  0.00    +0.000 C 
ATOM     22  O   UNL     1       5.264  16.828  19.667  0.00  0.00    +0.000 OA
ATOM     23  C   UNL     1       5.293  15.818  20.688  0.00  0.00    +0.000 C 
ATOM     24  C   UNL     1       4.068  15.909  21.610  0.00  0.00    +0.000 C 
ENDBRANCH   3  19
BRANCH   7  25
ATOM     25  C   UNL     1       0.069  10.505  19.264  0.00  0.00    +0.000 C 
ATOM     26  C   UNL     1       0.154   9.514  20.430  0.00  0.00    +0.000 C 
ATOM     27  C   UNL     1       1.396   8.620  20.394  0.00  0.00    +0.000 C 
ATOM     28  N   UNL     1       1.596   7.929  19.110  0.00  0.00    +0.000 NA
ATOM     29  C   UNL     1       1.517   8.844  17.956  0.00  0.00    +0.000 C 
ATOM     30  C   UNL     1       0.280   9.747  17.949  0.00  0.00    +0.000 C 
BRANCH  28  31
ATOM     31  C   UNL     1       2.910   7.244  19.077  0.00  0.00    +0.000 C 
BRANCH  31  32
ATOM     32  C   UNL     1       2.926   5.921  18.355  0.00  0.00    +0.000 A 
ATOM     33  C   UNL     1       1.860   5.018  18.459  0.00  0.00    +0.000 A 
ATOM     34  C   UNL     1       1.934   3.786  17.815  0.00  0.00    +0.000 A 
ATOM     35  C   UNL     1       3.075   3.492  17.089  0.00  0.00    +0.000 A 
ATOM     36  N   UNL     1       4.121   4.336  16.961  0.00  0.00    +0.000 NA
ATOM     37  C   UNL     1       4.021   5.529  17.594  0.00  0.00    +0.000 A 
ENDBRANCH  31  32
ENDBRANCH  28  31
ENDBRANCH   7  25
TORSDOF 7
ENDMDL
MODEL 5
REMARK VINA RESULT:      -7.6      1.309      1.731
REMARK  Name = 
REMARK  7 active torsions:
REMARK  status: ('A' for Active; 'I' for Inactive)
REMARK    1  A    between atoms: O_1  and  C_2
REMARK    2  A    between atoms: C_2  and  C_3
REMARK    3  A    between atoms: C_7  and  C_8
REMARK    4  A    between atoms: C_10  and  N_11
REMARK    5  A    between atoms: C_20  and  C_21
REMARK    6  A    between atoms: N_24  and  C_25
REMARK    7  A    between atoms: C_25  and  C_26
REMARK                            x       y       z     vdW  Elec       q    Type
REMARK                         _______ _______ _______ _____ _____    ______ ____
ROOT
ATOM      1  C   UNL     1       2.655   5.772  19.399  0.00  0.00    +0.000 A 
ATOM      2  C   UNL     1       3.780   5.818  18.423  0.00  0.00    +0.000 A 
ATOM      3  C   UNL     1       4.015   6.933  17.707  0.00  0.00    +0.000 A 
ATOM      4  C   UNL     1       3.094   8.017  17.911  0.00  0.00    +0.000 A 
ATOM      5  N   UNL     1       3.007   9.196  17.319  0.00  0.00    +0.000 NA
ATOM      6  C   UNL     1       1.950   9.823  17.907  0.00  0.00    +0.000 A 
ATOM      7  C   UNL     1       1.345   9.032  18.865  0.00  0.00    +0.000 A 
ATOM      8  N   UNL     1       2.074   7.852  18.841  0.00  0.00    +0.000 N 
ATOM      9  N   UNL     1       1.819   6.747  19.600  0.00  0.00    +0.000 NA
ENDROOT
BRANCH   1  14
ATOM     10  C   UNL     1       3.393   2.403  21.073  0.00  0.00    +0.000 A 
ATOM     11  C   UNL     1       2.138   2.135  21.637  0.00  0.00    +0.000 A 
ATOM     12  C   UNL     1       1.075   3.023  21.458  0.00  0.00    +0.000 A 
ATOM     13  C   UNL     1       1.254   4.195  20.722  0.00  0.00    +0.000 A 
ATOM     14  C   UNL     1       2.503   4.496  20.168  0.00  0.00    +0.000 A 
ATOM     15  C   UNL     1       3.570   3.604  20.364  0.00  0.00    +0.000 A 
BRANCH  10  16
ATOM     16  C   UNL     1       4.535   1.444  21.287  0.00  0.00    +0.000 C 
BRANCH  16  17
ATOM     17  O   UNL     1       5.241   1.224  20.071  0.00  0.00    +0.000 OA
ATOM     18  H   UNL     1       6.103   1.664  20.168  0.00  0.00    +0.000 HD
ENDBRANCH  16  17
ENDBRANCH  10  16
ENDBRANCH   1  14
BRANCH   3  19
ATOM     19  N   UNL     1       5.110   7.019  16.825  0.00  0.00    +0.000 N 
ATOM     20  C   UNL     1       5.093   6.490  15.444  0.00  0.00    +0.000 C 
ATOM     21  C   UNL     1       6.162   5.403  15.280  0.00  0.00    +0.000 C 
ATOM     22  O   UNL     1       7.468   5.907  15.620  0.00  0.00    +0.000 OA
ATOM     23  C   UNL     1       7.482   6.365  16.981  0.00  0.00    +0.000 C 
ATOM     24  C   UNL     1       6.456   7.484  17.214  0.00  0.00    +0.000 C 
ENDBRANCH   3  19
BRANCH   7  25
ATOM     25  C   UNL     1       0.170   9.282  19.780  0.00  0.00    +0.000 C 
ATOM     26  C   UNL     1      -0.788  10.358  19.257  0.00  0.00    +0.000 C 
ATOM     27  C   UNL     1      -0.268  11.787  19.432  0.00  0.00    +0.000 C 
ATOM     28  N   UNL     1       0.165  12.100  20.803  0.00  0.00    +0.000 NA
ATOM     29  C   UNL     1       1.085  11.086  21.352  0.00  0.00    +0.000 C 
ATOM     30  C   UNL     1       0.594   9.644  21.207  0.00  0.00    +0.000 C 
BRANCH  28  31
ATOM     31  C   UNL     1       0.834  13.421  20.857  0.00  0.00    +0.000 C 
BRANCH  31  32
ATOM     32  C   UNL     1       0.022  14.574  20.323  0.00  0.00    +0.000 A 
ATOM     33  C   UNL     1       0.388  15.247  19.151  0.00  0.00    +0.000 A 
ATOM     34  C   UNL     1      -0.361  16.337  18.717  0.00  0.00    +0.000 A 
ATOM     35  C   UNL     1      -1.454  16.724  19.472  0.00  0.00    +0.000 A 
ATOM     36  N   UNL     1      -1.843  16.099  20.604  0.00  0.00    +0.000 NA
ATOM     37  C   UNL     1      -1.099  15.039  21.001  0.00  0.00    +0.000 A 
ENDBRANCH  31  32
ENDBRANCH  28  31
ENDBRANCH   7  25
TORSDOF 7
ENDMDL
MODEL 6
REMARK VINA RESULT:      -7.4      5.452     10.462
REMARK  Name = 
REMARK  7 active torsions:
REMARK  status: ('A' for Active; 'I' for Inactive)
REMARK    1  A    between atoms: O_1  and  C_2
REMARK    2  A    between atoms: C_2  and  C_3
REMARK    3  A    between atoms: C_7  and  C_8
REMARK    4  A    between atoms: C_10  and  N_11
REMARK    5  A    between atoms: C_20  and  C_21
REMARK    6  A    between atoms: N_24  and  C_25
REMARK    7  A    between atoms: C_25  and  C_26
REMARK                            x       y       z     vdW  Elec       q    Type
REMARK                         _______ _______ _______ _____ _____    ______ ____
ROOT
ATOM      1  C   UNL     1      -2.459  12.914  20.997  0.00  0.00    +0.000 A 
ATOM      2  C   UNL     1      -3.757  12.747  20.285  0.00  0.00    +0.000 A 
ATOM      3  C   UNL     1      -3.839  11.967  19.192  0.00  0.00    +0.000 A 
ATOM      4  C   UNL     1      -2.608  11.374  18.749  0.00  0.00    +0.000 A 
ATOM      5  N   UNL     1      -2.342  10.633  17.688  0.00  0.00    +0.000 NA
ATOM      6  C   UNL     1      -1.013  10.344  17.767  0.00  0.00    +0.000 A 
ATOM      7  C   UNL     1      -0.422  10.922  18.874  0.00  0.00    +0.000 A 
ATOM      8  N   UNL     1      -1.455  11.612  19.489  0.00  0.00    +0.000 N 
ATOM      9  N   UNL     1      -1.338  12.378  20.613  0.00  0.00    +0.000 NA
ENDROOT
BRANCH   1  14
ATOM     10  C   UNL     1      -3.629  15.280  23.777  0.00  0.00    +0.000 A 
ATOM     11  C   UNL     1      -2.456  15.354  24.540  0.00  0.00    +0.000 A 
ATOM     12  C   UNL     1      -1.308  14.665  24.145  0.00  0.00    +0.000 A 
ATOM     13  C   UNL     1      -1.320  13.883  22.988  0.00  0.00    +0.000 A 
ATOM     14  C   UNL     1      -2.486  13.775  22.222  0.00  0.00    +0.000 A 
ATOM     15  C   UNL     1      -3.639  14.462  22.635  0.00  0.00    +0.000 A 
BRANCH  10  16
ATOM     16  C   UNL     1      -4.865  16.018  24.224  0.00  0.00    +0.000 C 
BRANCH  16  17
ATOM     17  O   UNL     1      -4.600  17.411  24.350  0.00  0.00    +0.000 OA
ATOM     18  H   UNL     1      -4.025  17.651  23.603  0.00  0.00    +0.000 HD
ENDBRANCH  16  17
ENDBRANCH  10  16
ENDBRANCH   1  14
BRANCH   3  19
ATOM     19  N   UNL     1      -5.068  11.746  18.541  0.00  0.00    +0.000 N 
ATOM     20  C   UNL     1      -5.356  12.191  17.160  0.00  0.00    +0.000 C 
ATOM     21  C   UNL     1      -6.525  13.184  17.156  0.00  0.00    +0.000 C 
ATOM     22  O   UNL     1      -7.697  12.605  17.762  0.00  0.00    +0.000 OA
ATOM     23  C   UNL     1      -7.416  12.230  19.120  0.00  0.00    +0.000 C 
ATOM     24  C   UNL     1      -6.274  11.207  19.201  0.00  0.00    +0.000 C 
ENDBRANCH   3  19
BRANCH   7  25
ATOM     25  C   UNL     1       0.997  10.884  19.392  0.00  0.00    +0.000 C 
ATOM     26  C   UNL     1       2.038  10.653  18.291  0.00  0.00    +0.000 C 
ATOM     27  C   UNL     1       2.112   9.203  17.803  0.00  0.00    +0.000 C 
ATOM     28  N   UNL     1       2.271   8.218  18.885  0.00  0.00    +0.000 NA
ATOM     29  C   UNL     1       1.292   8.406  19.972  0.00  0.00    +0.000 C 
ATOM     30  C   UNL     1       1.199   9.841  20.496  0.00  0.00    +0.000 C 
BRANCH  28  31
ATOM     31  C   UNL     1       2.137   6.836  18.365  0.00  0.00    +0.000 C 
BRANCH  31  32
ATOM     32  C   UNL     1       3.425   6.058  18.273  0.00  0.00    +0.000 A 
ATOM     33  C   UNL     1       4.328   6.256  17.221  0.00  0.00    +0.000 A 
ATOM     34  C   UNL     1       5.483   5.484  17.147  0.00  0.00    +0.000 A 
ATOM     35  C   UNL     1       5.699   4.531  18.127  0.00  0.00    +0.000 A 
ATOM     36  N   UNL     1       4.857   4.312  19.159  0.00  0.00    +0.000 NA
ATOM     37  C   UNL     1       3.743   5.081  19.209  0.00  0.00    +0.000 A 
ENDBRANCH  31  32
ENDBRANCH  28  31
ENDBRANCH   7  25
TORSDOF 7
ENDMDL
MODEL 7
REMARK VINA RESULT:      -7.4      5.032     10.226
REMARK  Name = 
REMARK  7 active torsions:
REMARK  status: ('A' for Active; 'I' for Inactive)
REMARK    1  A    between atoms: O_1  and  C_2
REMARK    2  A    between atoms: C_2  and  C_3
REMARK    3  A    between atoms: C_7  and  C_8
REMARK    4  A    between atoms: C_10  and  N_11
REMARK    5  A    between atoms: C_20  and  C_21
REMARK    6  A    between atoms: N_24  and  C_25
REMARK    7  A    between atoms: C_25  and  C_26
REMARK                            x       y       z     vdW  Elec       q    Type
REMARK                         _______ _______ _______ _____ _____    ______ ____
ROOT
ATOM      1  C   UNL     1      -2.894  14.170  21.154  0.00  0.00    +0.000 A 
ATOM      2  C   UNL     1      -2.267  15.495  20.891  0.00  0.00    +0.000 A 
ATOM      3  C   UNL     1      -1.177  15.589  20.107  0.00  0.00    +0.000 A 
ATOM      4  C   UNL     1      -0.652  14.348  19.608  0.00  0.00    +0.000 A 
ATOM      5  N   UNL     1       0.429  14.097  18.890  0.00  0.00    +0.000 NA
ATOM      6  C   UNL     1       0.437  12.748  18.701  0.00  0.00    +0.000 A 
ATOM      7  C   UNL     1      -0.633  12.131  19.321  0.00  0.00    +0.000 A 
ATOM      8  N   UNL     1      -1.318  13.171  19.932  0.00  0.00    +0.000 N 
ATOM      9  N   UNL     1      -2.435  13.039  20.703  0.00  0.00    +0.000 NA
ENDROOT
BRANCH   1  14
ATOM     10  C   UNL     1      -6.281  13.253  22.698  0.00  0.00    +0.000 A 
ATOM     11  C   UNL     1      -6.387  14.264  23.663  0.00  0.00    +0.000 A 
ATOM     12  C   UNL     1      -5.387  15.229  23.792  0.00  0.00    +0.000 A 
ATOM     13  C   UNL     1      -4.263  15.193  22.965  0.00  0.00    +0.000 A 
ATOM     14  C   UNL     1      -4.123  14.181  22.010  0.00  0.00    +0.000 A 
ATOM     15  C   UNL     1      -5.128  13.206  21.896  0.00  0.00    +0.000 A 
BRANCH  10  16
ATOM     16  C   UNL     1      -7.361  12.209  22.581  0.00  0.00    +0.000 C 
BRANCH  16  17
ATOM     17  O   UNL     1      -7.549  11.540  23.823  0.00  0.00    +0.000 OA
ATOM     18  H   UNL     1      -7.891  12.204  24.445  0.00  0.00    +0.000 HD
ENDBRANCH  16  17
ENDBRANCH  10  16
ENDBRANCH   1  14
BRANCH   3  19
ATOM     19  N   UNL     1      -0.605  16.838  19.796  0.00  0.00    +0.000 N 
ATOM     20  C   UNL     1      -0.833  17.549  18.519  0.00  0.00    +0.000 C 
ATOM     21  C   UNL     1       0.492  17.733  17.770  0.00  0.00    +0.000 C 
ATOM     22  O   UNL     1       1.451  18.436  18.583  0.00  0.00    +0.000 OA
ATOM     23  C   UNL     1       1.704  17.704  19.793  0.00  0.00    +0.000 C 
ATOM     24  C   UNL     1       0.422  17.510  20.616  0.00  0.00    +0.000 C 
ENDBRANCH   3  19
BRANCH   7  25
ATOM     25  C   UNL     1      -1.058  10.683  19.388  0.00  0.00    +0.000 C 
ATOM     26  C   UNL     1      -0.265   9.866  20.414  0.00  0.00    +0.000 C 
ATOM     27  C   UNL     1       1.146   9.494  19.952  0.00  0.00    +0.000 C 
ATOM     28  N   UNL     1       1.190   8.850  18.628  0.00  0.00    +0.000 NA
ATOM     29  C   UNL     1       0.433   9.600  17.609  0.00  0.00    +0.000 C 
ATOM     30  C   UNL     1      -0.989   9.979  18.029  0.00  0.00    +0.000 C 
BRANCH  28  31
ATOM     31  C   UNL     1       2.588   8.699  18.160  0.00  0.00    +0.000 C 
BRANCH  31  32
ATOM     32  C   UNL     1       3.022   7.281  17.886  0.00  0.00    +0.000 A 
ATOM     33  C   UNL     1       2.204   6.190  18.205  0.00  0.00    +0.000 A 
ATOM     34  C   UNL     1       2.661   4.895  17.980  0.00  0.00    +0.000 A 
ATOM     35  C   UNL     1       3.927   4.730  17.446  0.00  0.00    +0.000 A 
ATOM     36  N   UNL     1       4.744   5.755  17.121  0.00  0.00    +0.000 NA
ATOM     37  C   UNL     1       4.272   7.004  17.346  0.00  0.00    +0.000 A 
ENDBRANCH  31  32
ENDBRANCH  28  31
ENDBRANCH   7  25
TORSDOF 7
ENDMDL
MODEL 8
REMARK VINA RESULT:      -7.4      4.544      9.781
REMARK  Name = 
REMARK  7 active torsions:
REMARK  status: ('A' for Active; 'I' for Inactive)
REMARK    1  A    between atoms: O_1  and  C_2
REMARK    2  A    between atoms: C_2  and  C_3
REMARK    3  A    between atoms: C_7  and  C_8
REMARK    4  A    between atoms: C_10  and  N_11
REMARK    5  A    between atoms: C_20  and  C_21
REMARK    6  A    between atoms: N_24  and  C_25
REMARK    7  A    between atoms: C_25  and  C_26
REMARK                            x       y       z     vdW  Elec       q    Type
REMARK                         _______ _______ _______ _____ _____    ______ ____
ROOT
ATOM      1  C   UNL     1      -0.296  13.904  21.790  0.00  0.00    +0.000 A 
ATOM      2  C   UNL     1       0.618  15.046  21.508  0.00  0.00    +0.000 A 
ATOM      3  C   UNL     1       1.521  14.967  20.513  0.00  0.00    +0.000 A 
ATOM      4  C   UNL     1       1.570  13.717  19.807  0.00  0.00    +0.000 A 
ATOM      5  N   UNL     1       2.379  13.300  18.848  0.00  0.00    +0.000 NA
ATOM      6  C   UNL     1       1.970  12.036  18.548  0.00  0.00    +0.000 A 
ATOM      7  C   UNL     1       0.908  11.634  19.335  0.00  0.00    +0.000 A 
ATOM      8  N   UNL     1       0.673  12.717  20.168  0.00  0.00    +0.000 N 
ATOM      9  N   UNL     1      -0.269  12.769  21.154  0.00  0.00    +0.000 NA
ENDROOT
BRANCH   1  14
ATOM     10  C   UNL     1      -3.426  13.643  23.988  0.00  0.00    +0.000 A 
ATOM     11  C   UNL     1      -3.078  14.540  25.008  0.00  0.00    +0.000 A 
ATOM     12  C   UNL     1      -1.862  15.224  24.967  0.00  0.00    +0.000 A 
ATOM     13  C   UNL     1      -0.972  15.016  23.913  0.00  0.00    +0.000 A 
ATOM     14  C   UNL     1      -1.286  14.109  22.895  0.00  0.00    +0.000 A 
ATOM     15  C   UNL     1      -2.506  13.415  22.950  0.00  0.00    +0.000 A 
BRANCH  10  16
ATOM     16  C   UNL     1      -4.735  12.900  24.052  0.00  0.00    +0.000 C 
BRANCH  16  17
ATOM     17  O   UNL     1      -4.669  11.850  25.011  0.00  0.00    +0.000 OA
ATOM     18  H   UNL     1      -4.811  12.260  25.881  0.00  0.00    +0.000 HD
ENDBRANCH  16  17
ENDBRANCH  10  16
ENDBRANCH   1  14
BRANCH   3  19
ATOM     19  N   UNL     1       2.352  16.057  20.190  0.00  0.00    +0.000 N 
ATOM     20  C   UNL     1       3.761  16.171  20.625  0.00  0.00    +0.000 C 
ATOM     21  C   UNL     1       3.945  17.411  21.507  0.00  0.00    +0.000 C 
ATOM     22  O   UNL     1       3.525  18.604  20.817  0.00  0.00    +0.000 OA
ATOM     23  C   UNL     1       2.139  18.500  20.452  0.00  0.00    +0.000 C 
ATOM     24  C   UNL     1       1.883  17.294  19.536  0.00  0.00    +0.000 C 
ENDBRANCH   3  19
BRANCH   7  25
ATOM     25  C   UNL     1       0.113  10.350  19.371  0.00  0.00    +0.000 C 
ATOM     26  C   UNL     1       0.627   9.347  20.410  0.00  0.00    +0.000 C 
ATOM     27  C   UNL     1       1.903   8.617  19.985  0.00  0.00    +0.000 C 
ATOM     28  N   UNL     1       1.818   7.990  18.656  0.00  0.00    +0.000 NA
ATOM     29  C   UNL     1       1.320   8.918  17.624  0.00  0.00    +0.000 C 
ATOM     30  C   UNL     1       0.036   9.659  18.006  0.00  0.00    +0.000 C 
BRANCH  28  31
ATOM     31  C   UNL     1       3.140   7.475  18.229  0.00  0.00    +0.000 C 
BRANCH  31  32
ATOM     32  C   UNL     1       3.176   6.008  17.885  0.00  0.00    +0.000 A 
ATOM     33  C   UNL     1       4.293   5.427  17.270  0.00  0.00    +0.000 A 
ATOM     34  C   UNL     1       4.269   4.079  16.926  0.00  0.00    +0.000 A 
ATOM     35  C   UNL     1       3.124   3.351  17.203  0.00  0.00    +0.000 A 
ATOM     36  N   UNL     1       2.030   3.872  17.797  0.00  0.00    +0.000 NA
ATOM     37  C   UNL     1       2.083   5.185  18.126  0.00  0.00    +0.000 A 
ENDBRANCH  31  32
ENDBRANCH  28  31
ENDBRANCH   7  25
TORSDOF 7
ENDMDL
MODEL 9
REMARK VINA RESULT:      -7.3      5.224     10.404
REMARK  Name = 
REMARK  7 active torsions:
REMARK  status: ('A' for Active; 'I' for Inactive)
REMARK    1  A    between atoms: O_1  and  C_2
REMARK    2  A    between atoms: C_2  and  C_3
REMARK    3  A    between atoms: C_7  and  C_8
REMARK    4  A    between atoms: C_10  and  N_11
REMARK    5  A    between atoms: C_20  and  C_21
REMARK    6  A    between atoms: N_24  and  C_25
REMARK    7  A    between atoms: C_25  and  C_26
REMARK                            x       y       z     vdW  Elec       q    Type
REMARK                         _______ _______ _______ _____ _____    ______ ____
ROOT
ATOM      1  C   UNL     1      -2.253  12.600  20.728  0.00  0.00    +0.000 A 
ATOM      2  C   UNL     1      -3.537  12.479  19.982  0.00  0.00    +0.000 A 
ATOM      3  C   UNL     1      -3.633  11.658  18.920  0.00  0.00    +0.000 A 
ATOM      4  C   UNL     1      -2.427  10.975  18.542  0.00  0.00    +0.000 A 
ATOM      5  N   UNL     1      -2.175  10.174  17.522  0.00  0.00    +0.000 NA
ATOM      6  C   UNL     1      -0.869   9.811  17.656  0.00  0.00    +0.000 A 
ATOM      7  C   UNL     1      -0.277  10.401  18.757  0.00  0.00    +0.000 A 
ATOM      8  N   UNL     1      -1.285  11.177  19.309  0.00  0.00    +0.000 N 
ATOM      9  N   UNL     1      -1.155  11.982  20.403  0.00  0.00    +0.000 NA
ENDROOT
BRANCH   1  14
ATOM     10  C   UNL     1      -3.310  15.241  23.298  0.00  0.00    +0.000 A 
ATOM     11  C   UNL     1      -2.213  15.182  24.168  0.00  0.00    +0.000 A 
ATOM     12  C   UNL     1      -1.149  14.316  23.911  0.00  0.00    +0.000 A 
ATOM     13  C   UNL     1      -1.169  13.490  22.786  0.00  0.00    +0.000 A 
ATOM     14  C   UNL     1      -2.264  13.514  21.914  0.00  0.00    +0.000 A 
ATOM     15  C   UNL     1      -3.336  14.379  22.188  0.00  0.00    +0.000 A 
BRANCH  10  16
ATOM     16  C   UNL     1      -4.458  16.170  23.596  0.00  0.00    +0.000 C 
BRANCH  16  17
ATOM     17  O   UNL     1      -5.441  15.513  24.389  0.00  0.00    +0.000 OA
ATOM     18  H   UNL     1      -6.137  15.217  23.778  0.00  0.00    +0.000 HD
ENDBRANCH  16  17
ENDBRANCH  10  16
ENDBRANCH   1  14
BRANCH   3  19
ATOM     19  N   UNL     1      -4.853  11.483  18.240  0.00  0.00    +0.000 N 
ATOM     20  C   UNL     1      -5.114  11.997  16.877  0.00  0.00    +0.000 C 
ATOM     21  C   UNL     1      -6.272  13.001  16.902  0.00  0.00    +0.000 C 
ATOM     22  O   UNL     1      -7.460  12.406  17.460  0.00  0.00    +0.000 OA
ATOM     23  C   UNL     1      -7.205  11.963  18.803  0.00  0.00    +0.000 C 
ATOM     24  C   UNL     1      -6.075  10.925  18.853  0.00  0.00    +0.000 C 
ENDBRANCH   3  19
BRANCH   7  25
ATOM     25  C   UNL     1       1.120  10.301  19.321  0.00  0.00    +0.000 C 
ATOM     26  C   UNL     1       2.190  10.055  18.252  0.00  0.00    +0.000 C 
ATOM     27  C   UNL     1       2.230   8.614  17.736  0.00  0.00    +0.000 C 
ATOM     28  N   UNL     1       2.317   7.602  18.801  0.00  0.00    +0.000 NA
ATOM     29  C   UNL     1       1.308   7.803  19.858  0.00  0.00    +0.000 C 
ATOM     30  C   UNL     1       1.247   9.230  20.409  0.00  0.00    +0.000 C 
BRANCH  28  31
ATOM     31  C   UNL     1       2.152   6.237  18.247  0.00  0.00    +0.000 C 
BRANCH  31  32
ATOM     32  C   UNL     1       2.332   5.116  19.240  0.00  0.00    +0.000 A 
ATOM     33  C   UNL     1       1.268   4.654  20.024  0.00  0.00    +0.000 A 
ATOM     34  C   UNL     1       1.485   3.650  20.963  0.00  0.00    +0.000 A 
ATOM     35  C   UNL     1       2.766   3.141  21.093  0.00  0.00    +0.000 A 
ATOM     36  N   UNL     1       3.817   3.555  20.354  0.00  0.00    +0.000 NA
ATOM     37  C   UNL     1       3.575   4.529  19.445  0.00  0.00    +0.000 A 
ENDBRANCH  31  32
ENDBRANCH  28  31
ENDBRANCH   7  25
TORSDOF 7
ENDMDL
