MODEL 1
REMARK VINA RESULT:      -7.5      0.000      0.000
REMARK  Name = 
REMARK  6 active torsions:
REMARK  status: ('A' for Active; 'I' for Inactive)
REMARK    1  A    between atoms: C_1  and  N_2
REMARK    2  A    between atoms: C_4  and  C_5
REMARK    3  A    between atoms: C_8  and  N_9
REMARK    4  A    between atoms: C_10  and  N_11
REMARK    5  A    between atoms: N_11  and  C_12
REMARK    6  A    between atoms: C_12  and  C_13
REMARK                            x       y       z     vdW  Elec       q    Type
REMARK                         _______ _______ _______ _____ _____    ______ ____
ROOT
ATOM      1  C   UNL     1       6.346   4.628  15.661  0.00  0.00    +0.000 A 
ATOM      2  C   UNL     1       7.526   4.342  16.338  0.00  0.00    +0.000 A 
ATOM      3  N   UNL     1       7.715   4.610  17.652  0.00  0.00    +0.000 NA
ATOM      4  C   UNL     1       6.667   5.176  18.279  0.00  0.00    +0.000 A 
ATOM      5  C   UNL     1       5.457   5.510  17.605  0.00  0.00    +0.000 A 
ATOM      6  N   UNL     1       5.305   5.235  16.286  0.00  0.00    +0.000 NA
ENDROOT
BRANCH   1  10
ATOM      7  C   UNL     1       4.323   3.134  11.376  0.00  0.00    +0.000 C 
ATOM      8  N   UNL     1       5.249   3.579  12.387  0.00  0.00    +0.000 N 
ATOM      9  C   UNL     1       4.976   3.857  13.695  0.00  0.00    +0.000 A 
ATOM     10  C   UNL     1       6.168   4.256  14.269  0.00  0.00    +0.000 A 
ATOM     11  C   UNL     1       7.097   4.164  13.206  0.00  0.00    +0.000 A 
ATOM     12  N   UNL     1       6.541   3.759  12.062  0.00  0.00    +0.000 NA
ENDBRANCH   1  10
BRANCH   4  13
ATOM     13  N   UNL     1       6.870   5.442  19.640  0.00  0.00    +0.000 N 
ATOM     14  H   UNL     1       6.155   4.913  20.134  0.00  0.00    +0.000 HD
ATOM     15  H   UNL     1       7.796   5.155  19.934  0.00  0.00    +0.000 HD
ENDBRANCH   4  13
BRANCH   5  16
ATOM     16  N   UNL     1       4.363   6.039  18.337  0.00  0.00    +0.000 N 
ATOM     17  H   UNL     1       4.418   7.053  18.313  0.00  0.00    +0.000 HD
BRANCH  16  18
ATOM     18  C   UNL     1       3.075   5.534  17.874  0.00  0.00    +0.000 C 
BRANCH  18  19
ATOM     19  C   UNL     1       2.475   4.539  18.855  0.00  0.00    +0.000 A 
ATOM     20  C   UNL     1       2.574   3.149  18.644  0.00  0.00    +0.000 A 
ATOM     21 CL   UNL     1       3.351   2.485  17.243  0.00  0.00    +0.000 Cl
ATOM     22  C   UNL     1       2.066   2.226  19.570  0.00  0.00    +0.000 A 
ATOM     23  C   UNL     1       1.460   2.668  20.742  0.00  0.00    +0.000 A 
ATOM     24  C   UNL     1       1.364   4.035  20.984  0.00  0.00    +0.000 A 
ATOM     25  C   UNL     1       1.865   4.960  20.056  0.00  0.00    +0.000 A 
ATOM     26 CL   UNL     1       1.718   6.627  20.501  0.00  0.00    +0.000 Cl
ENDBRANCH  18  19
ENDBRANCH  16  18
ENDBRANCH   5  16
TORSDOF 5
ENDMDL
MODEL 2
REMARK VINA RESULT:      -7.5      0.290      1.927
REMARK  Name = 
REMARK  6 active torsions:
REMARK  status: ('A' for Active; 'I' for Inactive)
REMARK    1  A    between atoms: C_1  and  N_2
REMARK    2  A    between atoms: C_4  and  C_5
REMARK    3  A    between atoms: C_8  and  N_9
REMARK    4  A    between atoms: C_10  and  N_11
REMARK    5  A    between atoms: N_11  and  C_12
REMARK    6  A    between atoms: C_12  and  C_13
REMARK                            x       y       z     vdW  Elec       q    Type
REMARK                         _______ _______ _______ _____ _____    ______ ____
ROOT
ATOM      1  C   UNL     1       6.436   4.669  15.741  0.00  0.00    +0.000 A 
ATOM      2  C   UNL     1       7.589   4.318  16.435  0.00  0.00    +0.000 A 
ATOM      3  N   UNL     1       7.769   4.567  17.754  0.00  0.00    +0.000 NA
ATOM      4  C   UNL     1       6.742   5.183  18.369  0.00  0.00    +0.000 A 
ATOM      5  C   UNL     1       5.562   5.583  17.678  0.00  0.00    +0.000 A 
ATOM      6  N   UNL     1       5.418   5.326  16.354  0.00  0.00    +0.000 NA
ENDROOT
BRANCH   1  10
ATOM      7  C   UNL     1       4.457   3.121  11.455  0.00  0.00    +0.000 C 
ATOM      8  N   UNL     1       5.364   3.614  12.462  0.00  0.00    +0.000 N 
ATOM      9  C   UNL     1       5.095   3.840  13.780  0.00  0.00    +0.000 A 
ATOM     10  C   UNL     1       6.262   4.317  14.344  0.00  0.00    +0.000 A 
ATOM     11  C   UNL     1       7.176   4.323  13.264  0.00  0.00    +0.000 A 
ATOM     12  N   UNL     1       6.632   3.902  12.119  0.00  0.00    +0.000 NA
ENDBRANCH   1  10
BRANCH   4  13
ATOM     13  N   UNL     1       6.936   5.428  19.735  0.00  0.00    +0.000 N 
ATOM     14  H   UNL     1       6.130   5.022  20.205  0.00  0.00    +0.000 HD
ATOM     15  H   UNL     1       7.795   5.003  20.063  0.00  0.00    +0.000 HD
ENDBRANCH   4  13
BRANCH   5  16
ATOM     16  N   UNL     1       4.485   6.163  18.396  0.00  0.00    +0.000 N 
ATOM     17  H   UNL     1       4.622   7.169  18.428  0.00  0.00    +0.000 HD
BRANCH  16  18
ATOM     18  C   UNL     1       3.180   5.790  17.859  0.00  0.00    +0.000 C 
BRANCH  18  19
ATOM     19  C   UNL     1       2.487   4.755  18.732  0.00  0.00    +0.000 A 
ATOM     20  C   UNL     1       1.849   5.119  19.935  0.00  0.00    +0.000 A 
ATOM     21 CL   UNL     1       1.841   6.753  20.515  0.00  0.00    +0.000 Cl
ATOM     22  C   UNL     1       1.165   4.176  20.718  0.00  0.00    +0.000 A 
ATOM     23  C   UNL     1       1.087   2.848  20.311  0.00  0.00    +0.000 A 
ATOM     24  C   UNL     1       1.694   2.466  19.119  0.00  0.00    +0.000 A 
ATOM     25  C   UNL     1       2.383   3.405  18.337  0.00  0.00    +0.000 A 
ATOM     26 CL   UNL     1       3.055   2.804  16.858  0.00  0.00    +0.000 Cl
ENDBRANCH  18  19
ENDBRANCH  16  18
ENDBRANCH   5  16
TORSDOF 5
ENDMDL
MODEL 3
REMARK VINA RESULT:      -7.4      2.504      5.217
REMARK  Name = 
REMARK  6 active torsions:
REMARK  status: ('A' for Active; 'I' for Inactive)
REMARK    1  A    between atoms: C_1  and  N_2
REMARK    2  A    between atoms: C_4  and  C_5
REMARK    3  A    between atoms: C_8  and  N_9
REMARK    4  A    between atoms: C_10  and  N_11
REMARK    5  A    between atoms: N_11  and  C_12
REMARK    6  A    between atoms: C_12  and  C_13
REMARK                            x       y       z     vdW  Elec       q    Type
REMARK                         _______ _______ _______ _____ _____    ______ ____
ROOT
ATOM      1  C   UNL     1       3.854   6.896  17.578  0.00  0.00    +0.000 A 
ATOM      2  C   UNL     1       4.491   7.242  16.392  0.00  0.00    +0.000 A 
ATOM      3  N   UNL     1       5.355   6.424  15.744  0.00  0.00    +0.000 NA
ATOM      4  C   UNL     1       5.560   5.227  16.326  0.00  0.00    +0.000 A 
ATOM      5  C   UNL     1       4.946   4.858  17.558  0.00  0.00    +0.000 A 
ATOM      6  N   UNL     1       4.093   5.705  18.185  0.00  0.00    +0.000 NA
ENDROOT
BRANCH   1  10
ATOM      7  C   UNL     1       0.637   8.894  20.794  0.00  0.00    +0.000 C 
ATOM      8  N   UNL     1       1.453   8.636  19.634  0.00  0.00    +0.000 N 
ATOM      9  C   UNL     1       2.327   7.606  19.449  0.00  0.00    +0.000 A 
ATOM     10  C   UNL     1       2.883   7.780  18.197  0.00  0.00    +0.000 A 
ATOM     11  C   UNL     1       2.251   8.950  17.712  0.00  0.00    +0.000 A 
ATOM     12  N   UNL     1       1.387   9.474  18.584  0.00  0.00    +0.000 NA
ENDBRANCH   1  10
BRANCH   4  13
ATOM     13  N   UNL     1       6.448   4.386  15.643  0.00  0.00    +0.000 N 
ATOM     14  H   UNL     1       7.369   4.589  16.026  0.00  0.00    +0.000 HD
ATOM     15  H   UNL     1       6.208   3.412  15.782  0.00  0.00    +0.000 HD
ENDBRANCH   4  13
BRANCH   5  16
ATOM     16  N   UNL     1       5.146   3.555  18.084  0.00  0.00    +0.000 N 
ATOM     17  H   UNL     1       5.460   3.640  19.046  0.00  0.00    +0.000 HD
BRANCH  16  18
ATOM     18  C   UNL     1       3.969   2.703  17.949  0.00  0.00    +0.000 C 
BRANCH  18  19
ATOM     19  C   UNL     1       3.028   2.851  19.133  0.00  0.00    +0.000 A 
ATOM     20  C   UNL     1       3.398   2.418  20.423  0.00  0.00    +0.000 A 
ATOM     21 CL   UNL     1       4.927   1.662  20.737  0.00  0.00    +0.000 Cl
ATOM     22  C   UNL     1       2.554   2.598  21.529  0.00  0.00    +0.000 A 
ATOM     23  C   UNL     1       1.323   3.229  21.379  0.00  0.00    +0.000 A 
ATOM     24  C   UNL     1       0.940   3.681  20.119  0.00  0.00    +0.000 A 
ATOM     25  C   UNL     1       1.780   3.498  19.011  0.00  0.00    +0.000 A 
ATOM     26 CL   UNL     1       1.201   4.145  17.513  0.00  0.00    +0.000 Cl
ENDBRANCH  18  19
ENDBRANCH  16  18
ENDBRANCH   5  16
TORSDOF 5
ENDMDL
MODEL 4
REMARK VINA RESULT:      -7.4      2.511      5.307
REMARK  Name = 
REMARK  6 active torsions:
REMARK  status: ('A' for Active; 'I' for Inactive)
REMARK    1  A    between atoms: C_1  and  N_2
REMARK    2  A    between atoms: C_4  and  C_5
REMARK    3  A    between atoms: C_8  and  N_9
REMARK    4  A    between atoms: C_10  and  N_11
REMARK    5  A    between atoms: N_11  and  C_12
REMARK    6  A    between atoms: C_12  and  C_13
REMARK                            x       y       z     vdW  Elec       q    Type
REMARK                         _______ _______ _______ _____ _____    ______ ____
ROOT
ATOM      1  C   UNL     1       3.844   6.916  17.614  0.00  0.00    +0.000 A 
ATOM      2  C   UNL     1       4.466   7.282  16.426  0.00  0.00    +0.000 A 
ATOM      3  N   UNL     1       5.332   6.481  15.761  0.00  0.00    +0.000 NA
ATOM      4  C   UNL     1       5.555   5.280  16.327  0.00  0.00    +0.000 A 
ATOM      5  C   UNL     1       4.957   4.890  17.560  0.00  0.00    +0.000 A 
ATOM      6  N   UNL     1       4.101   5.720  18.205  0.00  0.00    +0.000 NA
ENDROOT
BRANCH   1  10
ATOM      7  C   UNL     1       0.620   8.831  20.874  0.00  0.00    +0.000 C 
ATOM      8  N   UNL     1       1.437   8.601  19.708  0.00  0.00    +0.000 N 
ATOM      9  C   UNL     1       2.316   7.579  19.501  0.00  0.00    +0.000 A 
ATOM     10  C   UNL     1       2.869   7.782  18.252  0.00  0.00    +0.000 A 
ATOM     11  C   UNL     1       2.232   8.959  17.792  0.00  0.00    +0.000 A 
ATOM     12  N   UNL     1       1.366   9.461  18.676  0.00  0.00    +0.000 NA
ENDBRANCH   1  10
BRANCH   4  13
ATOM     13  N   UNL     1       6.447   4.456  15.626  0.00  0.00    +0.000 N 
ATOM     14  H   UNL     1       7.377   4.744  15.921  0.00  0.00    +0.000 HD
ATOM     15  H   UNL     1       6.287   3.479  15.842  0.00  0.00    +0.000 HD
ENDBRANCH   4  13
BRANCH   5  16
ATOM     16  N   UNL     1       5.176   3.583  18.069  0.00  0.00    +0.000 N 
ATOM     17  H   UNL     1       5.537   3.661  19.015  0.00  0.00    +0.000 HD
BRANCH  16  18
ATOM     18  C   UNL     1       3.990   2.737  17.986  0.00  0.00    +0.000 C 
BRANCH  18  19
ATOM     19  C   UNL     1       3.076   2.930  19.185  0.00  0.00    +0.000 A 
ATOM     20  C   UNL     1       1.806   3.529  19.051  0.00  0.00    +0.000 A 
ATOM     21 CL   UNL     1       1.221   4.114  17.527  0.00  0.00    +0.000 Cl
ATOM     22  C   UNL     1       0.938   3.664  20.145  0.00  0.00    +0.000 A 
ATOM     23  C   UNL     1       1.309   3.189  21.399  0.00  0.00    +0.000 A 
ATOM     24  C   UNL     1       2.549   2.578  21.555  0.00  0.00    +0.000 A 
ATOM     25  C   UNL     1       3.421   2.447  20.465  0.00  0.00    +0.000 A 
ATOM     26 CL   UNL     1       4.914   1.631  20.789  0.00  0.00    +0.000 Cl
ENDBRANCH  18  19
ENDBRANCH  16  18
ENDBRANCH   5  16
TORSDOF 5
ENDMDL
MODEL 5
REMARK VINA RESULT:      -7.4      1.659      1.945
REMARK  Name = 
REMARK  6 active torsions:
REMARK  status: ('A' for Active; 'I' for Inactive)
REMARK    1  A    between atoms: C_1  and  N_2
REMARK    2  A    between atoms: C_4  and  C_5
REMARK    3  A    between atoms: C_8  and  N_9
REMARK    4  A    between atoms: C_10  and  N_11
REMARK    5  A    between atoms: N_11  and  C_12
REMARK    6  A    between atoms: C_12  and  C_13
REMARK                            x       y       z     vdW  Elec       q    Type
REMARK                         _______ _______ _______ _____ _____    ______ ____
ROOT
ATOM      1  C   UNL     1       6.053   4.220  14.539  0.00  0.00    +0.000 A 
ATOM      2  C   UNL     1       7.110   5.121  14.609  0.00  0.00    +0.000 A 
ATOM      3  N   UNL     1       7.574   5.636  15.773  0.00  0.00    +0.000 NA
ATOM      4  C   UNL     1       6.942   5.211  16.883  0.00  0.00    +0.000 A 
ATOM      5  C   UNL     1       5.836   4.313  16.840  0.00  0.00    +0.000 A 
ATOM      6  N   UNL     1       5.391   3.823  15.657  0.00  0.00    +0.000 NA
ENDROOT
BRANCH   1  10
ATOM      7  C   UNL     1       3.411   3.076  10.491  0.00  0.00    +0.000 C 
ATOM      8  N   UNL     1       4.442   3.143  11.497  0.00  0.00    +0.000 N 
ATOM      9  C   UNL     1       4.444   3.900  12.631  0.00  0.00    +0.000 A 
ATOM     10  C   UNL     1       5.639   3.642  13.274  0.00  0.00    +0.000 A 
ATOM     11  C   UNL     1       6.273   2.697  12.434  0.00  0.00    +0.000 A 
ATOM     12  N   UNL     1       5.551   2.396  11.351  0.00  0.00    +0.000 NA
ENDBRANCH   1  10
BRANCH   4  13
ATOM     13  N   UNL     1       7.436   5.744  18.081  0.00  0.00    +0.000 N 
ATOM     14  H   UNL     1       7.149   5.095  18.810  0.00  0.00    +0.000 HD
ATOM     15  H   UNL     1       8.445   5.831  18.054  0.00  0.00    +0.000 HD
ENDBRANCH   4  13
BRANCH   5  16
ATOM     16  N   UNL     1       5.258   3.846  18.049  0.00  0.00    +0.000 N 
ATOM     17  H   UNL     1       5.078   4.644  18.650  0.00  0.00    +0.000 HD
BRANCH  16  18
ATOM     18  C   UNL     1       4.072   3.026  17.830  0.00  0.00    +0.000 C 
BRANCH  18  19
ATOM     19  C   UNL     1       3.111   3.099  19.006  0.00  0.00    +0.000 A 
ATOM     20  C   UNL     1       3.441   2.540  20.258  0.00  0.00    +0.000 A 
ATOM     21 CL   UNL     1       4.939   1.708  20.529  0.00  0.00    +0.000 Cl
ATOM     22  C   UNL     1       2.581   2.649  21.361  0.00  0.00    +0.000 A 
ATOM     23  C   UNL     1       1.374   3.332  21.246  0.00  0.00    +0.000 A 
ATOM     24  C   UNL     1       1.032   3.907  20.027  0.00  0.00    +0.000 A 
ATOM     25  C   UNL     1       1.888   3.796  18.921  0.00  0.00    +0.000 A 
ATOM     26 CL   UNL     1       1.360   4.593  17.477  0.00  0.00    +0.000 Cl
ENDBRANCH  18  19
ENDBRANCH  16  18
ENDBRANCH   5  16
TORSDOF 5
ENDMDL
MODEL 6
REMARK VINA RESULT:      -7.3      1.532      1.990
REMARK  Name = 
REMARK  6 active torsions:
REMARK  status: ('A' for Active; 'I' for Inactive)
REMARK    1  A    between atoms: C_1  and  N_2
REMARK    2  A    between atoms: C_4  and  C_5
REMARK    3  A    between atoms: C_8  and  N_9
REMARK    4  A    between atoms: C_10  and  N_11
REMARK    5  A    between atoms: N_11  and  C_12
REMARK    6  A    between atoms: C_12  and  C_13
REMARK                            x       y       z     vdW  Elec       q    Type
REMARK                         _______ _______ _______ _____ _____    ______ ____
ROOT
ATOM      1  C   UNL     1       6.334   4.576  15.116  0.00  0.00    +0.000 A 
ATOM      2  C   UNL     1       7.232   5.614  15.337  0.00  0.00    +0.000 A 
ATOM      3  N   UNL     1       7.558   6.067  16.571  0.00  0.00    +0.000 NA
ATOM      4  C   UNL     1       6.954   5.434  17.594  0.00  0.00    +0.000 A 
ATOM      5  C   UNL     1       6.006   4.389  17.398  0.00  0.00    +0.000 A 
ATOM      6  N   UNL     1       5.695   3.966  16.148  0.00  0.00    +0.000 NA
ENDROOT
BRANCH   1  10
ATOM      7  C   UNL     1       4.013   2.934  11.041  0.00  0.00    +0.000 C 
ATOM      8  N   UNL     1       5.018   3.343  11.991  0.00  0.00    +0.000 N 
ATOM      9  C   UNL     1       4.820   3.808  13.258  0.00  0.00    +0.000 A 
ATOM     10  C   UNL     1       6.071   4.080  13.777  0.00  0.00    +0.000 A 
ATOM     11  C   UNL     1       6.952   3.723  12.730  0.00  0.00    +0.000 A 
ATOM     12  N   UNL     1       6.315   3.281  11.642  0.00  0.00    +0.000 NA
ENDBRANCH   1  10
BRANCH   4  13
ATOM     13  N   UNL     1       7.306   5.905  18.866  0.00  0.00    +0.000 N 
ATOM     14  H   UNL     1       7.122   5.135  19.505  0.00  0.00    +0.000 HD
ATOM     15  H   UNL     1       8.281   6.175  18.898  0.00  0.00    +0.000 HD
ENDBRANCH   4  13
BRANCH   5  16
ATOM     16  N   UNL     1       5.458   3.713  18.518  0.00  0.00    +0.000 N 
ATOM     17  H   UNL     1       5.337   4.382  19.272  0.00  0.00    +0.000 HD
BRANCH  16  18
ATOM     18  C   UNL     1       4.228   2.994  18.200  0.00  0.00    +0.000 C 
BRANCH  18  19
ATOM     19  C   UNL     1       3.206   3.104  19.321  0.00  0.00    +0.000 A 
ATOM     20  C   UNL     1       1.964   3.743  19.121  0.00  0.00    +0.000 A 
ATOM     21 CL   UNL     1       1.537   4.471  17.606  0.00  0.00    +0.000 Cl
ATOM     22  C   UNL     1       0.998   3.803  20.136  0.00  0.00    +0.000 A 
ATOM     23  C   UNL     1       1.239   3.213  21.373  0.00  0.00    +0.000 A 
ATOM     24  C   UNL     1       2.450   2.561  21.590  0.00  0.00    +0.000 A 
ATOM     25  C   UNL     1       3.420   2.505  20.579  0.00  0.00    +0.000 A 
ATOM     26 CL   UNL     1       4.862   1.629  20.969  0.00  0.00    +0.000 Cl
ENDBRANCH  18  19
ENDBRANCH  16  18
ENDBRANCH   5  16
TORSDOF 5
ENDMDL
MODEL 7
REMARK VINA RESULT:      -7.3      1.489      1.765
REMARK  Name = 
REMARK  6 active torsions:
REMARK  status: ('A' for Active; 'I' for Inactive)
REMARK    1  A    between atoms: C_1  and  N_2
REMARK    2  A    between atoms: C_4  and  C_5
REMARK    3  A    between atoms: C_8  and  N_9
REMARK    4  A    between atoms: C_10  and  N_11
REMARK    5  A    between atoms: N_11  and  C_12
REMARK    6  A    between atoms: C_12  and  C_13
REMARK                            x       y       z     vdW  Elec       q    Type
REMARK                         _______ _______ _______ _____ _____    ______ ____
ROOT
ATOM      1  C   UNL     1       6.509   4.705  15.442  0.00  0.00    +0.000 A 
ATOM      2  C   UNL     1       7.386   5.732  15.770  0.00  0.00    +0.000 A 
ATOM      3  N   UNL     1       7.637   6.120  17.043  0.00  0.00    +0.000 NA
ATOM      4  C   UNL     1       6.977   5.432  17.994  0.00  0.00    +0.000 A 
ATOM      5  C   UNL     1       6.049   4.397  17.688  0.00  0.00    +0.000 A 
ATOM      6  N   UNL     1       5.814   4.039  16.401  0.00  0.00    +0.000 NA
ENDROOT
BRANCH   1  10
ATOM      7  C   UNL     1       4.522   2.891  11.265  0.00  0.00    +0.000 C 
ATOM      8  N   UNL     1       5.427   3.459  12.234  0.00  0.00    +0.000 N 
ATOM      9  C   UNL     1       5.168   3.741  13.543  0.00  0.00    +0.000 A 
ATOM     10  C   UNL     1       6.327   4.280  14.066  0.00  0.00    +0.000 A 
ATOM     11  C   UNL     1       7.227   4.259  12.975  0.00  0.00    +0.000 A 
ATOM     12  N   UNL     1       6.681   3.767  11.860  0.00  0.00    +0.000 NA
ENDBRANCH   1  10
BRANCH   4  13
ATOM     13  N   UNL     1       7.251   5.836  19.308  0.00  0.00    +0.000 N 
ATOM     14  H   UNL     1       7.477   6.827  19.250  0.00  0.00    +0.000 HD
ATOM     15  H   UNL     1       6.451   5.685  19.910  0.00  0.00    +0.000 HD
ENDBRANCH   4  13
BRANCH   5  16
ATOM     16  N   UNL     1       5.439   3.661  18.737  0.00  0.00    +0.000 N 
ATOM     17  H   UNL     1       5.263   4.291  19.514  0.00  0.00    +0.000 HD
BRANCH  16  18
ATOM     18  C   UNL     1       4.240   2.949  18.307  0.00  0.00    +0.000 C 
BRANCH  18  19
ATOM     19  C   UNL     1       3.147   2.997  19.363  0.00  0.00    +0.000 A 
ATOM     20  C   UNL     1       3.334   2.427  20.639  0.00  0.00    +0.000 A 
ATOM     21 CL   UNL     1       4.798   1.607  21.075  0.00  0.00    +0.000 Cl
ATOM     22  C   UNL     1       2.348   2.513  21.634  0.00  0.00    +0.000 A 
ATOM     23  C   UNL     1       1.156   3.185  21.385  0.00  0.00    +0.000 A 
ATOM     24  C   UNL     1       0.953   3.771  20.140  0.00  0.00    +0.000 A 
ATOM     25  C   UNL     1       1.934   3.682  19.142  0.00  0.00    +0.000 A 
ATOM     26 CL   UNL     1       1.571   4.492  17.654  0.00  0.00    +0.000 Cl
ENDBRANCH  18  19
ENDBRANCH  16  18
ENDBRANCH   5  16
TORSDOF 5
ENDMDL
MODEL 8
REMARK VINA RESULT:      -7.2      3.140      5.266
REMARK  Name = 
REMARK  6 active torsions:
REMARK  status: ('A' for Active; 'I' for Inactive)
REMARK    1  A    between atoms: C_1  and  N_2
REMARK    2  A    between atoms: C_4  and  C_5
REMARK    3  A    between atoms: C_8  and  N_9
REMARK    4  A    between atoms: C_10  and  N_11
REMARK    5  A    between atoms: N_11  and  C_12
REMARK    6  A    between atoms: C_12  and  C_13
REMARK                            x       y       z     vdW  Elec       q    Type
REMARK                         _______ _______ _______ _____ _____    ______ ____
ROOT
ATOM      1  C   UNL     1       4.318   4.079  18.873  0.00  0.00    +0.000 A 
ATOM      2  C   UNL     1       4.038   2.775  19.268  0.00  0.00    +0.000 A 
ATOM      3  N   UNL     1       2.990   2.446  20.060  0.00  0.00    +0.000 NA
ATOM      4  C   UNL     1       2.214   3.476  20.445  0.00  0.00    +0.000 A 
ATOM      5  C   UNL     1       2.493   4.825  20.082  0.00  0.00    +0.000 A 
ATOM      6  N   UNL     1       3.557   5.121  19.295  0.00  0.00    +0.000 NA
ENDROOT
BRANCH   1  10
ATOM      7  C   UNL     1       7.010   4.725  14.747  0.00  0.00    +0.000 C 
ATOM      8  N   UNL     1       6.585   4.638  16.123  0.00  0.00    +0.000 N 
ATOM      9  C   UNL     1       5.343   4.316  16.587  0.00  0.00    +0.000 A 
ATOM     10  C   UNL     1       5.412   4.372  17.965  0.00  0.00    +0.000 A 
ATOM     11  C   UNL     1       6.758   4.726  18.218  0.00  0.00    +0.000 A 
ATOM     12  N   UNL     1       7.471   4.893  17.101  0.00  0.00    +0.000 NA
ENDBRANCH   1  10
BRANCH   4  13
ATOM     13  N   UNL     1       1.128   3.123  21.257  0.00  0.00    +0.000 N 
ATOM     14  H   UNL     1       0.306   3.515  20.804  0.00  0.00    +0.000 HD
ATOM     15  H   UNL     1       1.047   2.116  21.340  0.00  0.00    +0.000 HD
ENDBRANCH   4  13
BRANCH   5  16
ATOM     16  N   UNL     1       1.597   5.859  20.460  0.00  0.00    +0.000 N 
ATOM     17  H   UNL     1       1.092   5.562  21.289  0.00  0.00    +0.000 HD
BRANCH  16  18
ATOM     18  C   UNL     1       2.260   7.147  20.635  0.00  0.00    +0.000 C 
BRANCH  18  19
ATOM     19  C   UNL     1       1.522   8.262  19.912  0.00  0.00    +0.000 A 
ATOM     20  C   UNL     1       0.531   9.028  20.561  0.00  0.00    +0.000 A 
ATOM     21 CL   UNL     1       0.067   8.729  22.205  0.00  0.00    +0.000 Cl
ATOM     22  C   UNL     1      -0.117  10.091  19.915  0.00  0.00    +0.000 A 
ATOM     23  C   UNL     1       0.218  10.428  18.607  0.00  0.00    +0.000 A 
ATOM     24  C   UNL     1       1.204   9.699  17.949  0.00  0.00    +0.000 A 
ATOM     25  C   UNL     1       1.850   8.633  18.591  0.00  0.00    +0.000 A 
ATOM     26 CL   UNL     1       3.084   7.838  17.673  0.00  0.00    +0.000 Cl
ENDBRANCH  18  19
ENDBRANCH  16  18
ENDBRANCH   5  16
TORSDOF 5
ENDMDL
MODEL 9
REMARK VINA RESULT:      -7.1      3.132      4.961
REMARK  Name = 
REMARK  6 active torsions:
REMARK  status: ('A' for Active; 'I' for Inactive)
REMARK    1  A    between atoms: C_1  and  N_2
REMARK    2  A    between atoms: C_4  and  C_5
REMARK    3  A    between atoms: C_8  and  N_9
REMARK    4  A    between atoms: C_10  and  N_11
REMARK    5  A    between atoms: N_11  and  C_12
REMARK    6  A    between atoms: C_12  and  C_13
REMARK                            x       y       z     vdW  Elec       q    Type
REMARK                         _______ _______ _______ _____ _____    ______ ____
ROOT
ATOM      1  C   UNL     1       4.251   4.051  18.698  0.00  0.00    +0.000 A 
ATOM      2  C   UNL     1       3.929   2.746  19.052  0.00  0.00    +0.000 A 
ATOM      3  N   UNL     1       2.860   2.423  19.818  0.00  0.00    +0.000 NA
ATOM      4  C   UNL     1       2.106   3.463  20.220  0.00  0.00    +0.000 A 
ATOM      5  C   UNL     1       2.428   4.814  19.900  0.00  0.00    +0.000 A 
ATOM      6  N   UNL     1       3.512   5.102  19.138  0.00  0.00    +0.000 NA
ENDROOT
BRANCH   1  10
ATOM      7  C   UNL     1       7.023   4.747  14.634  0.00  0.00    +0.000 C 
ATOM      8  N   UNL     1       6.575   4.629  16.000  0.00  0.00    +0.000 N 
ATOM      9  C   UNL     1       5.317   4.331  16.435  0.00  0.00    +0.000 A 
ATOM     10  C   UNL     1       5.367   4.339  17.816  0.00  0.00    +0.000 A 
ATOM     11  C   UNL     1       6.720   4.642  18.099  0.00  0.00    +0.000 A 
ATOM     12  N   UNL     1       7.454   4.824  16.999  0.00  0.00    +0.000 NA
ENDBRANCH   1  10
BRANCH   4  13
ATOM     13  N   UNL     1       0.998   3.117  21.005  0.00  0.00    +0.000 N 
ATOM     14  H   UNL     1       1.246   2.242  21.461  0.00  0.00    +0.000 HD
ATOM     15  H   UNL     1       0.798   3.836  21.691  0.00  0.00    +0.000 HD
ENDBRANCH   4  13
BRANCH   5  16
ATOM     16  N   UNL     1       1.554   5.861  20.293  0.00  0.00    +0.000 N 
ATOM     17  H   UNL     1       1.008   5.544  21.088  0.00  0.00    +0.000 HD
BRANCH  16  18
ATOM     18  C   UNL     1       2.254   7.114  20.554  0.00  0.00    +0.000 C 
BRANCH  18  19
ATOM     19  C   UNL     1       1.549   8.297  19.908  0.00  0.00    +0.000 A 
ATOM     20  C   UNL     1       1.828   8.681  18.580  0.00  0.00    +0.000 A 
ATOM     21 CL   UNL     1       3.009   7.858  17.612  0.00  0.00    +0.000 Cl
ATOM     22  C   UNL     1       1.144   9.739  17.962  0.00  0.00    +0.000 A 
ATOM     23  C   UNL     1       0.154  10.433  18.650  0.00  0.00    +0.000 A 
ATOM     24  C   UNL     1      -0.153  10.063  19.956  0.00  0.00    +0.000 A 
ATOM     25  C   UNL     1       0.532   9.009  20.578  0.00  0.00    +0.000 A 
ATOM     26 CL   UNL     1       0.024   8.627  22.188  0.00  0.00    +0.000 Cl
ENDBRANCH  18  19
ENDBRANCH  16  18
ENDBRANCH   5  16
TORSDOF 5
ENDMDL
