MODEL 1
REMARK VINA RESULT:      -7.3      0.000      0.000
REMARK  Name = 
REMARK  8 active torsions:
REMARK  status: ('A' for Active; 'I' for Inactive)
REMARK    1  A    between atoms: C_1  and  C_2
REMARK    2  A    between atoms: C_2  and  C_3
REMARK    3  A    between atoms: C_2  and  C_4
REMARK    4  A    between atoms: C_7  and  N_8
REMARK    5  A    between atoms: C_9  and  C_11
REMARK    6  A    between atoms: C_11  and  O_12
REMARK    7  A    between atoms: O_12  and  C_13
REMARK    8  A    between atoms: C_13  and  C_15
REMARK                            x       y       z     vdW  Elec       q    Type
REMARK                         _______ _______ _______ _____ _____    ______ ____
ROOT
ATOM      1  N   UNL     1       2.918   6.181  19.897  0.00  0.00    +0.000 N 
ATOM      2  C   UNL     1       2.703   4.968  19.256  0.00  0.00    +0.000 C 
ATOM      3  O   UNL     1       1.935   4.772  18.319  0.00  0.00    +0.000 OA
ATOM      4  H   UNL     1       3.531   6.175  20.705  0.00  0.00    +0.000 HD
ENDROOT
BRANCH   1   8
ATOM      5  C   UNL     1       0.858   9.829  19.175  0.00  0.00    +0.000 A 
ATOM      6  C   UNL     1       1.644   9.251  18.170  0.00  0.00    +0.000 A 
ATOM      7  C   UNL     1       2.345   8.063  18.392  0.00  0.00    +0.000 A 
ATOM      8  C   UNL     1       2.275   7.410  19.621  0.00  0.00    +0.000 A 
ATOM      9  C   UNL     1       1.504   7.989  20.637  0.00  0.00    +0.000 A 
ATOM     10  C   UNL     1       0.801   9.184  20.415  0.00  0.00    +0.000 A 
BRANCH   5  12
ATOM     11  C   UNL     1      -1.048  11.254  19.912  0.00  0.00    +0.000 C 
ATOM     12  C   UNL     1       0.042  11.069  18.853  0.00  0.00    +0.000 C 
ATOM     13  C   UNL     1       0.871  12.347  18.704  0.00  0.00    +0.000 C 
ENDBRANCH   5  12
ENDBRANCH   1   8
BRANCH   2  14
ATOM     14  C   UNL     1       3.515   3.804  19.831  0.00  0.00    +0.000 C 
BRANCH  14  15
ATOM     15  O   UNL     1       4.550   3.400  18.935  0.00  0.00    +0.000 OA
BRANCH  15  16
ATOM     16  C   UNL     1       5.534   4.323  18.785  0.00  0.00    +0.000 C 
ATOM     17  O   UNL     1       6.027   4.973  19.697  0.00  0.00    +0.000 OA
BRANCH  16  18
ATOM     18  C   UNL     1       5.931   4.439  17.348  0.00  0.00    +0.000 C 
ATOM     19  C   UNL     1       7.239   4.544  17.089  0.00  0.00    +0.000 C 
ATOM     20  O   UNL     1       7.813   4.645  15.863  0.00  0.00    +0.000 OA
ATOM     21  C   UNL     1       6.911   4.751  14.769  0.00  0.00    +0.000 C 
ATOM     22  C   UNL     1       5.414   4.555  15.035  0.00  0.00    +0.000 C 
ATOM     23  O   UNL     1       4.962   4.418  16.377  0.00  0.00    +0.000 OA
ENDBRANCH  16  18
ENDBRANCH  15  16
ENDBRANCH  14  15
ENDBRANCH   2  14
TORSDOF 6
ENDMDL
MODEL 2
REMARK VINA RESULT:      -7.3      0.518      1.161
REMARK  Name = 
REMARK  8 active torsions:
REMARK  status: ('A' for Active; 'I' for Inactive)
REMARK    1  A    between atoms: C_1  and  C_2
REMARK    2  A    between atoms: C_2  and  C_3
REMARK    3  A    between atoms: C_2  and  C_4
REMARK    4  A    between atoms: C_7  and  N_8
REMARK    5  A    between atoms: C_9  and  C_11
REMARK    6  A    between atoms: C_11  and  O_12
REMARK    7  A    between atoms: O_12  and  C_13
REMARK    8  A    between atoms: C_13  and  C_15
REMARK                            x       y       z     vdW  Elec       q    Type
REMARK                         _______ _______ _______ _____ _____    ______ ____
ROOT
ATOM      1  N   UNL     1       3.069   6.049  19.762  0.00  0.00    +0.000 N 
ATOM      2  C   UNL     1       2.680   4.755  19.446  0.00  0.00    +0.000 C 
ATOM      3  O   UNL     1       1.630   4.429  18.899  0.00  0.00    +0.000 OA
ATOM      4  H   UNL     1       3.935   6.159  20.278  0.00  0.00    +0.000 HD
ENDROOT
BRANCH   1   8
ATOM      5  C   UNL     1       0.948   9.655  19.007  0.00  0.00    +0.000 A 
ATOM      6  C   UNL     1       0.938   9.086  20.286  0.00  0.00    +0.000 A 
ATOM      7  C   UNL     1       1.612   7.890  20.552  0.00  0.00    +0.000 A 
ATOM      8  C   UNL     1       2.325   7.233  19.551  0.00  0.00    +0.000 A 
ATOM      9  C   UNL     1       2.327   7.788  18.265  0.00  0.00    +0.000 A 
ATOM     10  C   UNL     1       1.648   8.988  17.997  0.00  0.00    +0.000 A 
BRANCH   5  12
ATOM     11  C   UNL     1      -1.145  10.791  18.277  0.00  0.00    +0.000 C 
ATOM     12  C   UNL     1       0.280  11.002  18.793  0.00  0.00    +0.000 C 
ATOM     13  C   UNL     1       0.278  11.906  20.029  0.00  0.00    +0.000 C 
ENDBRANCH   5  12
ENDBRANCH   1   8
BRANCH   2  14
ATOM     14  C   UNL     1       3.689   3.679  19.859  0.00  0.00    +0.000 C 
BRANCH  14  15
ATOM     15  O   UNL     1       4.572   3.356  18.785  0.00  0.00    +0.000 OA
BRANCH  15  16
ATOM     16  C   UNL     1       5.588   4.244  18.626  0.00  0.00    +0.000 C 
ATOM     17  O   UNL     1       6.127   4.857  19.537  0.00  0.00    +0.000 OA
BRANCH  16  18
ATOM     18  C   UNL     1       5.953   4.371  17.181  0.00  0.00    +0.000 C 
ATOM     19  C   UNL     1       7.242   4.591  16.902  0.00  0.00    +0.000 C 
ATOM     20  O   UNL     1       7.787   4.724  15.665  0.00  0.00    +0.000 OA
ATOM     21  C   UNL     1       6.865   4.728  14.584  0.00  0.00    +0.000 C 
ATOM     22  C   UNL     1       5.396   4.400  14.875  0.00  0.00    +0.000 C 
ATOM     23  O   UNL     1       4.977   4.244  16.226  0.00  0.00    +0.000 OA
ENDBRANCH  16  18
ENDBRANCH  15  16
ENDBRANCH  14  15
ENDBRANCH   2  14
TORSDOF 6
ENDMDL
MODEL 3
REMARK VINA RESULT:      -6.9      1.474      2.217
REMARK  Name = 
REMARK  8 active torsions:
REMARK  status: ('A' for Active; 'I' for Inactive)
REMARK    1  A    between atoms: C_1  and  C_2
REMARK    2  A    between atoms: C_2  and  C_3
REMARK    3  A    between atoms: C_2  and  C_4
REMARK    4  A    between atoms: C_7  and  N_8
REMARK    5  A    between atoms: C_9  and  C_11
REMARK    6  A    between atoms: C_11  and  O_12
REMARK    7  A    between atoms: O_12  and  C_13
REMARK    8  A    between atoms: C_13  and  C_15
REMARK                            x       y       z     vdW  Elec       q    Type
REMARK                         _______ _______ _______ _____ _____    ______ ____
ROOT
ATOM      1  N   UNL     1       2.260   5.933  20.954  0.00  0.00    +0.000 N 
ATOM      2  C   UNL     1       1.831   4.665  20.586  0.00  0.00    +0.000 C 
ATOM      3  O   UNL     1       1.037   4.404  19.686  0.00  0.00    +0.000 OA
ATOM      4  H   UNL     1       2.866   5.999  21.765  0.00  0.00    +0.000 HD
ENDROOT
BRANCH   1   8
ATOM      5  C   UNL     1       0.866   9.619  19.360  0.00  0.00    +0.000 A 
ATOM      6  C   UNL     1       1.705   8.794  18.600  0.00  0.00    +0.000 A 
ATOM      7  C   UNL     1       2.191   7.587  19.112  0.00  0.00    +0.000 A 
ATOM      8  C   UNL     1       1.846   7.164  20.393  0.00  0.00    +0.000 A 
ATOM      9  C   UNL     1       1.020   7.990  21.166  0.00  0.00    +0.000 A 
ATOM     10  C   UNL     1       0.533   9.204  20.653  0.00  0.00    +0.000 A 
BRANCH   5  12
ATOM     11  C   UNL     1      -1.075  11.179  19.342  0.00  0.00    +0.000 C 
ATOM     12  C   UNL     1       0.290  10.872  18.724  0.00  0.00    +0.000 C 
ATOM     13  C   UNL     1       1.206  12.096  18.803  0.00  0.00    +0.000 C 
ENDBRANCH   5  12
ENDBRANCH   1   8
BRANCH   2  14
ATOM     14  C   UNL     1       2.425   3.533  21.429  0.00  0.00    +0.000 C 
BRANCH  14  15
ATOM     15  O   UNL     1       2.818   2.430  20.614  0.00  0.00    +0.000 OA
BRANCH  15  16
ATOM     16  C   UNL     1       4.159   2.341  20.423  0.00  0.00    +0.000 C 
ATOM     17  O   UNL     1       4.929   1.733  21.154  0.00  0.00    +0.000 OA
BRANCH  16  18
ATOM     18  C   UNL     1       4.566   3.092  19.196  0.00  0.00    +0.000 C 
ATOM     19  C   UNL     1       3.830   2.895  18.096  0.00  0.00    +0.000 C 
ATOM     20  O   UNL     1       4.015   3.484  16.886  0.00  0.00    +0.000 OA
ATOM     21  C   UNL     1       5.169   4.305  16.773  0.00  0.00    +0.000 C 
ATOM     22  C   UNL     1       5.980   4.605  18.038  0.00  0.00    +0.000 C 
ATOM     23  O   UNL     1       5.641   3.943  19.251  0.00  0.00    +0.000 OA
ENDBRANCH  16  18
ENDBRANCH  15  16
ENDBRANCH  14  15
ENDBRANCH   2  14
TORSDOF 6
ENDMDL
MODEL 4
REMARK VINA RESULT:      -6.8      1.864      3.911
REMARK  Name = 
REMARK  8 active torsions:
REMARK  status: ('A' for Active; 'I' for Inactive)
REMARK    1  A    between atoms: C_1  and  C_2
REMARK    2  A    between atoms: C_2  and  C_3
REMARK    3  A    between atoms: C_2  and  C_4
REMARK    4  A    between atoms: C_7  and  N_8
REMARK    5  A    between atoms: C_9  and  C_11
REMARK    6  A    between atoms: C_11  and  O_12
REMARK    7  A    between atoms: O_12  and  C_13
REMARK    8  A    between atoms: C_13  and  C_15
REMARK                            x       y       z     vdW  Elec       q    Type
REMARK                         _______ _______ _______ _____ _____    ______ ____
ROOT
ATOM      1  N   UNL     1       3.190   5.929  18.389  0.00  0.00    +0.000 N 
ATOM      2  C   UNL     1       4.461   5.748  17.862  0.00  0.00    +0.000 C 
ATOM      3  O   UNL     1       5.250   6.637  17.555  0.00  0.00    +0.000 OA
ATOM      4  H   UNL     1       2.623   5.099  18.527  0.00  0.00    +0.000 HD
ENDROOT
BRANCH   1   8
ATOM      5  C   UNL     1       1.153   9.556  19.265  0.00  0.00    +0.000 A 
ATOM      6  C   UNL     1       1.650   9.319  17.977  0.00  0.00    +0.000 A 
ATOM      7  C   UNL     1       2.340   8.142  17.672  0.00  0.00    +0.000 A 
ATOM      8  C   UNL     1       2.545   7.162  18.641  0.00  0.00    +0.000 A 
ATOM      9  C   UNL     1       2.065   7.398  19.935  0.00  0.00    +0.000 A 
ATOM     10  C   UNL     1       1.374   8.581  20.243  0.00  0.00    +0.000 A 
BRANCH   5  12
ATOM     11  C   UNL     1      -1.125  10.552  19.121  0.00  0.00    +0.000 C 
ATOM     12  C   UNL     1       0.330  10.806  19.520  0.00  0.00    +0.000 C 
ATOM     13  C   UNL     1       0.412  11.332  20.955  0.00  0.00    +0.000 C 
ENDBRANCH   5  12
ENDBRANCH   1   8
BRANCH   2  14
ATOM     14  C   UNL     1       4.848   4.281  17.651  0.00  0.00    +0.000 C 
BRANCH  14  15
ATOM     15  O   UNL     1       3.707   3.482  17.338  0.00  0.00    +0.000 OA
BRANCH  15  16
ATOM     16  C   UNL     1       3.574   2.385  18.127  0.00  0.00    +0.000 C 
ATOM     17  O   UNL     1       3.982   1.267  17.841  0.00  0.00    +0.000 OA
BRANCH  16  18
ATOM     18  C   UNL     1       2.855   2.731  19.391  0.00  0.00    +0.000 C 
ATOM     19  C   UNL     1       3.414   2.321  20.535  0.00  0.00    +0.000 C 
ATOM     20  O   UNL     1       2.939   2.538  21.788  0.00  0.00    +0.000 OA
ATOM     21  C   UNL     1       1.670   3.175  21.862  0.00  0.00    +0.000 C 
ATOM     22  C   UNL     1       1.051   3.722  20.571  0.00  0.00    +0.000 C 
ATOM     23  O   UNL     1       1.688   3.450  19.329  0.00  0.00    +0.000 OA
ENDBRANCH  16  18
ENDBRANCH  15  16
ENDBRANCH  14  15
ENDBRANCH   2  14
TORSDOF 6
ENDMDL
MODEL 5
REMARK VINA RESULT:      -6.8      1.521      2.647
REMARK  Name = 
REMARK  8 active torsions:
REMARK  status: ('A' for Active; 'I' for Inactive)
REMARK    1  A    between atoms: C_1  and  C_2
REMARK    2  A    between atoms: C_2  and  C_3
REMARK    3  A    between atoms: C_2  and  C_4
REMARK    4  A    between atoms: C_7  and  N_8
REMARK    5  A    between atoms: C_9  and  C_11
REMARK    6  A    between atoms: C_11  and  O_12
REMARK    7  A    between atoms: O_12  and  C_13
REMARK    8  A    between atoms: C_13  and  C_15
REMARK                            x       y       z     vdW  Elec       q    Type
REMARK                         _______ _______ _______ _____ _____    ______ ____
ROOT
ATOM      1  N   UNL     1       3.255   6.238  17.952  0.00  0.00    +0.000 N 
ATOM      2  C   UNL     1       2.856   4.926  17.741  0.00  0.00    +0.000 C 
ATOM      3  O   UNL     1       1.761   4.448  18.024  0.00  0.00    +0.000 OA
ATOM      4  H   UNL     1       4.217   6.471  17.731  0.00  0.00    +0.000 HD
ENDROOT
BRANCH   1   8
ATOM      5  C   UNL     1       1.054   9.443  19.671  0.00  0.00    +0.000 A 
ATOM      6  C   UNL     1       1.415   8.337  20.451  0.00  0.00    +0.000 A 
ATOM      7  C   UNL     1       2.122   7.263  19.901  0.00  0.00    +0.000 A 
ATOM      8  C   UNL     1       2.497   7.267  18.559  0.00  0.00    +0.000 A 
ATOM      9  C   UNL     1       2.127   8.361  17.769  0.00  0.00    +0.000 A 
ATOM     10  C   UNL     1       1.415   9.440  18.320  0.00  0.00    +0.000 A 
BRANCH   5  12
ATOM     11  C   UNL     1       1.292  11.845  20.286  0.00  0.00    +0.000 C 
ATOM     12  C   UNL     1       0.371  10.624  20.338  0.00  0.00    +0.000 C 
ATOM     13  C   UNL     1      -1.006  10.962  19.761  0.00  0.00    +0.000 C 
ENDBRANCH   5  12
ENDBRANCH   1   8
BRANCH   2  14
ATOM     14  C   UNL     1       3.934   4.037  17.112  0.00  0.00    +0.000 C 
BRANCH  14  15
ATOM     15  O   UNL     1       4.535   4.671  15.983  0.00  0.00    +0.000 OA
BRANCH  15  16
ATOM     16  C   UNL     1       5.864   4.424  15.859  0.00  0.00    +0.000 C 
ATOM     17  O   UNL     1       6.354   3.618  15.079  0.00  0.00    +0.000 OA
BRANCH  16  18
ATOM     18  C   UNL     1       6.646   5.269  16.812  0.00  0.00    +0.000 C 
ATOM     19  C   UNL     1       7.228   4.640  17.839  0.00  0.00    +0.000 C 
ATOM     20  O   UNL     1       7.990   5.212  18.807  0.00  0.00    +0.000 OA
ATOM     21  C   UNL     1       8.080   6.630  18.761  0.00  0.00    +0.000 C 
ATOM     22  C   UNL     1       7.488   7.361  17.552  0.00  0.00    +0.000 C 
ATOM     23  O   UNL     1       6.746   6.619  16.590  0.00  0.00    +0.000 OA
ENDBRANCH  16  18
ENDBRANCH  15  16
ENDBRANCH  14  15
ENDBRANCH   2  14
TORSDOF 6
ENDMDL
MODEL 6
REMARK VINA RESULT:      -6.8      0.777      1.279
REMARK  Name = 
REMARK  8 active torsions:
REMARK  status: ('A' for Active; 'I' for Inactive)
REMARK    1  A    between atoms: C_1  and  C_2
REMARK    2  A    between atoms: C_2  and  C_3
REMARK    3  A    between atoms: C_2  and  C_4
REMARK    4  A    between atoms: C_7  and  N_8
REMARK    5  A    between atoms: C_9  and  C_11
REMARK    6  A    between atoms: C_11  and  O_12
REMARK    7  A    between atoms: O_12  and  C_13
REMARK    8  A    between atoms: C_13  and  C_15
REMARK                            x       y       z     vdW  Elec       q    Type
REMARK                         _______ _______ _______ _____ _____    ______ ____
ROOT
ATOM      1  N   UNL     1       2.919   6.395  19.903  0.00  0.00    +0.000 N 
ATOM      2  C   UNL     1       2.685   5.102  19.455  0.00  0.00    +0.000 C 
ATOM      3  O   UNL     1       1.801   4.755  18.677  0.00  0.00    +0.000 OA
ATOM      4  H   UNL     1       3.643   6.519  20.602  0.00  0.00    +0.000 HD
ENDROOT
BRANCH   1   8
ATOM      5  C   UNL     1       0.550   9.823  19.060  0.00  0.00    +0.000 A 
ATOM      6  C   UNL     1       1.308   9.222  18.047  0.00  0.00    +0.000 A 
ATOM      7  C   UNL     1       2.109   8.106  18.306  0.00  0.00    +0.000 A 
ATOM      8  C   UNL     1       2.169   7.551  19.583  0.00  0.00    +0.000 A 
ATOM      9  C   UNL     1       1.427   8.154  20.605  0.00  0.00    +0.000 A 
ATOM     10  C   UNL     1       0.623   9.277  20.345  0.00  0.00    +0.000 A 
BRANCH   5  12
ATOM     11  C   UNL     1      -1.515  10.461  17.821  0.00  0.00    +0.000 C 
ATOM     12  C   UNL     1      -0.376  10.973  18.706  0.00  0.00    +0.000 C 
ATOM     13  C   UNL     1      -0.931  11.730  19.915  0.00  0.00    +0.000 C 
ENDBRANCH   5  12
ENDBRANCH   1   8
BRANCH   2  14
ATOM     14  C   UNL     1       3.642   4.056  20.034  0.00  0.00    +0.000 C 
BRANCH  14  15
ATOM     15  O   UNL     1       4.588   3.620  19.058  0.00  0.00    +0.000 OA
BRANCH  15  16
ATOM     16  C   UNL     1       5.631   4.473  18.888  0.00  0.00    +0.000 C 
ATOM     17  O   UNL     1       6.272   4.981  19.799  0.00  0.00    +0.000 OA
BRANCH  16  18
ATOM     18  C   UNL     1       5.887   4.707  17.434  0.00  0.00    +0.000 C 
ATOM     19  C   UNL     1       4.937   5.356  16.751  0.00  0.00    +0.000 C 
ATOM     20  O   UNL     1       4.972   5.683  15.434  0.00  0.00    +0.000 OA
ATOM     21  C   UNL     1       6.089   5.187  14.708  0.00  0.00    +0.000 C 
ATOM     22  C   UNL     1       7.224   4.510  15.484  0.00  0.00    +0.000 C 
ATOM     23  O   UNL     1       7.062   4.271  16.877  0.00  0.00    +0.000 OA
ENDBRANCH  16  18
ENDBRANCH  15  16
ENDBRANCH  14  15
ENDBRANCH   2  14
TORSDOF 6
ENDMDL
MODEL 7
REMARK VINA RESULT:      -6.8      1.620      2.670
REMARK  Name = 
REMARK  8 active torsions:
REMARK  status: ('A' for Active; 'I' for Inactive)
REMARK    1  A    between atoms: C_1  and  C_2
REMARK    2  A    between atoms: C_2  and  C_3
REMARK    3  A    between atoms: C_2  and  C_4
REMARK    4  A    between atoms: C_7  and  N_8
REMARK    5  A    between atoms: C_9  and  C_11
REMARK    6  A    between atoms: C_11  and  O_12
REMARK    7  A    between atoms: O_12  and  C_13
REMARK    8  A    between atoms: C_13  and  C_15
REMARK                            x       y       z     vdW  Elec       q    Type
REMARK                         _______ _______ _______ _____ _____    ______ ____
ROOT
ATOM      1  N   UNL     1       2.994   5.802  17.986  0.00  0.00    +0.000 N 
ATOM      2  C   UNL     1       2.454   4.550  17.725  0.00  0.00    +0.000 C 
ATOM      3  O   UNL     1       1.336   4.163  18.052  0.00  0.00    +0.000 OA
ATOM      4  H   UNL     1       3.960   5.955  17.716  0.00  0.00    +0.000 HD
ENDROOT
BRANCH   1   8
ATOM      5  C   UNL     1       1.237   9.083  20.040  0.00  0.00    +0.000 A 
ATOM      6  C   UNL     1       1.510   7.889  20.720  0.00  0.00    +0.000 A 
ATOM      7  C   UNL     1       2.069   6.791  20.060  0.00  0.00    +0.000 A 
ATOM      8  C   UNL     1       2.382   6.856  18.704  0.00  0.00    +0.000 A 
ATOM      9  C   UNL     1       2.099   8.041  18.013  0.00  0.00    +0.000 A 
ATOM     10  C   UNL     1       1.535   9.144  18.676  0.00  0.00    +0.000 A 
BRANCH   5  12
ATOM     11  C   UNL     1      -0.308  11.036  19.980  0.00  0.00    +0.000 C 
ATOM     12  C   UNL     1       0.718  10.276  20.824  0.00  0.00    +0.000 C 
ATOM     13  C   UNL     1       0.134   9.923  22.194  0.00  0.00    +0.000 C 
ENDBRANCH   5  12
ENDBRANCH   1   8
BRANCH   2  14
ATOM     14  C   UNL     1       3.396   3.606  16.973  0.00  0.00    +0.000 C 
BRANCH  14  15
ATOM     15  O   UNL     1       4.687   3.567  17.581  0.00  0.00    +0.000 OA
BRANCH  15  16
ATOM     16  C   UNL     1       5.693   3.955  16.757  0.00  0.00    +0.000 C 
ATOM     17  O   UNL     1       5.904   3.487  15.646  0.00  0.00    +0.000 OA
BRANCH  16  18
ATOM     18  C   UNL     1       6.510   5.032  17.396  0.00  0.00    +0.000 C 
ATOM     19  C   UNL     1       6.695   6.151  16.687  0.00  0.00    +0.000 C 
ATOM     20  O   UNL     1       7.387   7.250  17.081  0.00  0.00    +0.000 OA
ATOM     21  C   UNL     1       8.059   7.138  18.329  0.00  0.00    +0.000 C 
ATOM     22  C   UNL     1       7.798   5.898  19.190  0.00  0.00    +0.000 C 
ATOM     23  O   UNL     1       7.012   4.838  18.658  0.00  0.00    +0.000 OA
ENDBRANCH  16  18
ENDBRANCH  15  16
ENDBRANCH  14  15
ENDBRANCH   2  14
TORSDOF 6
ENDMDL
MODEL 8
REMARK VINA RESULT:      -6.8      1.601      2.503
REMARK  Name = 
REMARK  8 active torsions:
REMARK  status: ('A' for Active; 'I' for Inactive)
REMARK    1  A    between atoms: C_1  and  C_2
REMARK    2  A    between atoms: C_2  and  C_3
REMARK    3  A    between atoms: C_2  and  C_4
REMARK    4  A    between atoms: C_7  and  N_8
REMARK    5  A    between atoms: C_9  and  C_11
REMARK    6  A    between atoms: C_11  and  O_12
REMARK    7  A    between atoms: O_12  and  C_13
REMARK    8  A    between atoms: C_13  and  C_15
REMARK                            x       y       z     vdW  Elec       q    Type
REMARK                         _______ _______ _______ _____ _____    ______ ____
ROOT
ATOM      1  N   UNL     1       3.032   5.779  17.953  0.00  0.00    +0.000 N 
ATOM      2  C   UNL     1       2.416   4.566  17.680  0.00  0.00    +0.000 C 
ATOM      3  O   UNL     1       1.252   4.272  17.936  0.00  0.00    +0.000 OA
ATOM      4  H   UNL     1       4.022   5.853  17.747  0.00  0.00    +0.000 HD
ENDROOT
BRANCH   1   8
ATOM      5  C   UNL     1       1.208   9.019  20.015  0.00  0.00    +0.000 A 
ATOM      6  C   UNL     1       1.564   9.151  18.666  0.00  0.00    +0.000 A 
ATOM      7  C   UNL     1       2.182   8.106  17.974  0.00  0.00    +0.000 A 
ATOM      8  C   UNL     1       2.455   6.894  18.605  0.00  0.00    +0.000 A 
ATOM      9  C   UNL     1       2.116   6.758  19.957  0.00  0.00    +0.000 A 
ATOM     10  C   UNL     1       1.497   7.809  20.654  0.00  0.00    +0.000 A 
BRANCH   5  12
ATOM     11  C   UNL     1      -0.708  10.597  19.803  0.00  0.00    +0.000 C 
ATOM     12  C   UNL     1       0.454  10.149  20.693  0.00  0.00    +0.000 C 
ATOM     13  C   UNL     1      -0.044   9.817  22.102  0.00  0.00    +0.000 C 
ENDBRANCH   5  12
ENDBRANCH   1   8
BRANCH   2  14
ATOM     14  C   UNL     1       3.332   3.535  17.013  0.00  0.00    +0.000 C 
BRANCH  14  15
ATOM     15  O   UNL     1       4.644   3.567  17.574  0.00  0.00    +0.000 OA
BRANCH  15  16
ATOM     16  C   UNL     1       5.593   4.034  16.722  0.00  0.00    +0.000 C 
ATOM     17  O   UNL     1       5.729   3.668  15.563  0.00  0.00    +0.000 OA
BRANCH  16  18
ATOM     18  C   UNL     1       6.450   5.054  17.400  0.00  0.00    +0.000 C 
ATOM     19  C   UNL     1       6.788   6.131  16.682  0.00  0.00    +0.000 C 
ATOM     20  O   UNL     1       7.543   7.178  17.105  0.00  0.00    +0.000 OA
ATOM     21  C   UNL     1       8.103   7.045  18.404  0.00  0.00    +0.000 C 
ATOM     22  C   UNL     1       7.668   5.859  19.271  0.00  0.00    +0.000 C 
ATOM     23  O   UNL     1       6.834   4.855  18.701  0.00  0.00    +0.000 OA
ENDBRANCH  16  18
ENDBRANCH  15  16
ENDBRANCH  14  15
ENDBRANCH   2  14
TORSDOF 6
ENDMDL
MODEL 9
REMARK VINA RESULT:      -6.7      5.817      6.943
REMARK  Name = 
REMARK  8 active torsions:
REMARK  status: ('A' for Active; 'I' for Inactive)
REMARK    1  A    between atoms: C_1  and  C_2
REMARK    2  A    between atoms: C_2  and  C_3
REMARK    3  A    between atoms: C_2  and  C_4
REMARK    4  A    between atoms: C_7  and  N_8
REMARK    5  A    between atoms: C_9  and  C_11
REMARK    6  A    between atoms: C_11  and  O_12
REMARK    7  A    between atoms: O_12  and  C_13
REMARK    8  A    between atoms: C_13  and  C_15
REMARK                            x       y       z     vdW  Elec       q    Type
REMARK                         _______ _______ _______ _____ _____    ______ ____
ROOT
ATOM      1  N   UNL     1       8.985   8.926  19.103  0.00  0.00    +0.000 N 
ATOM      2  C   UNL     1       8.122   8.329  18.196  0.00  0.00    +0.000 C 
ATOM      3  O   UNL     1       7.516   8.897  17.292  0.00  0.00    +0.000 OA
ATOM      4  H   UNL     1       9.360   8.339  19.842  0.00  0.00    +0.000 HD
ENDROOT
BRANCH   1   8
ATOM      5  C   UNL     1       9.878  13.063  19.510  0.00  0.00    +0.000 A 
ATOM      6  C   UNL     1       9.647  12.512  18.243  0.00  0.00    +0.000 A 
ATOM      7  C   UNL     1       9.372  11.150  18.084  0.00  0.00    +0.000 A 
ATOM      8  C   UNL     1       9.308  10.301  19.187  0.00  0.00    +0.000 A 
ATOM      9  C   UNL     1       9.552  10.840  20.456  0.00  0.00    +0.000 A 
ATOM     10  C   UNL     1       9.831  12.208  20.616  0.00  0.00    +0.000 A 
BRANCH   5  12
ATOM     11  C   UNL     1       9.325  15.277  18.513  0.00  0.00    +0.000 C 
ATOM     12  C   UNL     1      10.079  14.562  19.637  0.00  0.00    +0.000 C 
ATOM     13  C   UNL     1       9.686  15.137  21.000  0.00  0.00    +0.000 C 
ENDBRANCH   5  12
ENDBRANCH   1   8
BRANCH   2  14
ATOM     14  C   UNL     1       7.936   6.823  18.406  0.00  0.00    +0.000 C 
BRANCH  14  15
ATOM     15  O   UNL     1       7.210   6.233  17.327  0.00  0.00    +0.000 OA
BRANCH  15  16
ATOM     16  C   UNL     1       7.190   4.876  17.358  0.00  0.00    +0.000 C 
ATOM     17  O   UNL     1       8.142   4.158  17.081  0.00  0.00    +0.000 OA
BRANCH  16  18
ATOM     18  C   UNL     1       5.842   4.380  17.772  0.00  0.00    +0.000 C 
ATOM     19  C   UNL     1       4.884   4.383  16.838  0.00  0.00    +0.000 C 
ATOM     20  O   UNL     1       3.602   3.965  16.997  0.00  0.00    +0.000 OA
ATOM     21  C   UNL     1       3.238   3.589  18.318  0.00  0.00    +0.000 C 
ATOM     22  C   UNL     1       4.337   3.504  19.383  0.00  0.00    +0.000 C 
ATOM     23  O   UNL     1       5.651   3.940  19.057  0.00  0.00    +0.000 OA
ENDBRANCH  16  18
ENDBRANCH  15  16
ENDBRANCH  14  15
ENDBRANCH   2  14
TORSDOF 6
ENDMDL
