MODEL 1
REMARK VINA RESULT:      -7.1      0.000      0.000
REMARK  Name = 
REMARK  4 active torsions:
REMARK  status: ('A' for Active; 'I' for Inactive)
REMARK    1  A    between atoms: C_1  and  C_2
REMARK    2  A    between atoms: C_5  and  N_6
REMARK    3  A    between atoms: C_9  and  C_10
REMARK    4  A    between atoms: C_12  and  C_13
REMARK                            x       y       z     vdW  Elec       q    Type
REMARK                         _______ _______ _______ _____ _____    ______ ____
ROOT
ATOM      1  N   UNL     1       3.121   5.318  17.774  0.00  0.00    +0.000 N 
ATOM      2  C   UNL     1       4.461   5.052  17.480  0.00  0.00    +0.000 A 
ATOM      3  N   UNL     1       5.426   5.391  18.346  0.00  0.00    +0.000 NA
ATOM      4  C   UNL     1       6.708   5.236  17.985  0.00  0.00    +0.000 A 
ATOM      5  C   UNL     1       7.736   5.702  18.968  0.00  0.00    +0.000 C 
ATOM      6  C   UNL     1       7.058   4.724  16.759  0.00  0.00    +0.000 A 
ATOM      7  C   UNL     1       6.016   4.364  15.929  0.00  0.00    +0.000 A 
ATOM      8  C   UNL     1       6.285   3.821  14.558  0.00  0.00    +0.000 C 
ATOM      9  N   UNL     1       4.718   4.514  16.279  0.00  0.00    +0.000 NA
ATOM     10  H   UNL     1       2.565   5.101  16.956  0.00  0.00    +0.000 HD
ENDROOT
BRANCH   1  15
ATOM     11  C   UNL     1       0.776   9.357  21.136  0.00  0.00    +0.000 C 
ATOM     12  C   UNL     1       1.420   8.315  20.276  0.00  0.00    +0.000 A 
ATOM     13  C   UNL     1       1.844   8.626  18.987  0.00  0.00    +0.000 A 
ATOM     14  C   UNL     1       2.429   7.650  18.178  0.00  0.00    +0.000 A 
ATOM     15  C   UNL     1       2.577   6.322  18.605  0.00  0.00    +0.000 A 
ATOM     16  C   UNL     1       2.191   6.034  19.927  0.00  0.00    +0.000 A 
ATOM     17 BR   UNL     1       2.395   4.284  20.647  0.00  0.00    +0.000 Br
ATOM     18  C   UNL     1       1.611   7.011  20.750  0.00  0.00    +0.000 A 
ENDBRANCH   1  15
TORSDOF 1
ENDMDL
MODEL 2
REMARK VINA RESULT:      -6.9      2.708      4.060
REMARK  Name = 
REMARK  4 active torsions:
REMARK  status: ('A' for Active; 'I' for Inactive)
REMARK    1  A    between atoms: C_1  and  C_2
REMARK    2  A    between atoms: C_5  and  N_6
REMARK    3  A    between atoms: C_9  and  C_10
REMARK    4  A    between atoms: C_12  and  C_13
REMARK                            x       y       z     vdW  Elec       q    Type
REMARK                         _______ _______ _______ _____ _____    ______ ____
ROOT
ATOM      1  N   UNL     1       4.977   5.901  16.747  0.00  0.00    +0.000 N 
ATOM      2  C   UNL     1       6.148   6.308  17.392  0.00  0.00    +0.000 A 
ATOM      3  N   UNL     1       6.709   5.536  18.332  0.00  0.00    +0.000 NA
ATOM      4  C   UNL     1       7.761   6.007  19.019  0.00  0.00    +0.000 A 
ATOM      5  C   UNL     1       8.294   5.125  20.104  0.00  0.00    +0.000 C 
ATOM      6  C   UNL     1       8.288   7.251  18.772  0.00  0.00    +0.000 A 
ATOM      7  C   UNL     1       7.684   7.981  17.768  0.00  0.00    +0.000 A 
ATOM      8  C   UNL     1       8.161   9.362  17.436  0.00  0.00    +0.000 C 
ATOM      9  N   UNL     1       6.623   7.519  17.067  0.00  0.00    +0.000 NA
ATOM     10  H   UNL     1       4.649   6.663  16.168  0.00  0.00    +0.000 HD
ENDROOT
BRANCH   1  15
ATOM     11  C   UNL     1       0.890   2.402  18.789  0.00  0.00    +0.000 C 
ATOM     12  C   UNL     1       1.933   3.316  18.226  0.00  0.00    +0.000 A 
ATOM     13  C   UNL     1       3.009   2.803  17.509  0.00  0.00    +0.000 A 
ATOM     14  C   UNL     1       3.992   3.654  16.999  0.00  0.00    +0.000 A 
ATOM     15  C   UNL     1       3.960   5.039  17.216  0.00  0.00    +0.000 A 
ATOM     16  C   UNL     1       2.840   5.550  17.899  0.00  0.00    +0.000 A 
ATOM     17 BR   UNL     1       2.650   7.418  18.206  0.00  0.00    +0.000 Br
ATOM     18  C   UNL     1       1.845   4.702  18.406  0.00  0.00    +0.000 A 
ENDBRANCH   1  15
TORSDOF 1
ENDMDL
MODEL 3
REMARK VINA RESULT:      -6.7      1.003      1.039
REMARK  Name = 
REMARK  4 active torsions:
REMARK  status: ('A' for Active; 'I' for Inactive)
REMARK    1  A    between atoms: C_1  and  C_2
REMARK    2  A    between atoms: C_5  and  N_6
REMARK    3  A    between atoms: C_9  and  C_10
REMARK    4  A    between atoms: C_12  and  C_13
REMARK                            x       y       z     vdW  Elec       q    Type
REMARK                         _______ _______ _______ _____ _____    ______ ____
ROOT
ATOM      1  N   UNL     1       3.637   4.693  17.859  0.00  0.00    +0.000 N 
ATOM      2  C   UNL     1       4.833   4.901  17.167  0.00  0.00    +0.000 A 
ATOM      3  N   UNL     1       5.750   5.757  17.638  0.00  0.00    +0.000 NA
ATOM      4  C   UNL     1       6.832   6.028  16.892  0.00  0.00    +0.000 A 
ATOM      5  C   UNL     1       7.779   7.047  17.442  0.00  0.00    +0.000 C 
ATOM      6  C   UNL     1       7.032   5.438  15.667  0.00  0.00    +0.000 A 
ATOM      7  C   UNL     1       6.067   4.540  15.257  0.00  0.00    +0.000 A 
ATOM      8  C   UNL     1       6.173   3.862  13.926  0.00  0.00    +0.000 C 
ATOM      9  N   UNL     1       4.972   4.258  15.999  0.00  0.00    +0.000 NA
ATOM     10  H   UNL     1       3.035   4.113  17.289  0.00  0.00    +0.000 HD
ENDROOT
BRANCH   1  15
ATOM     11  C   UNL     1       0.733   8.204  21.375  0.00  0.00    +0.000 C 
ATOM     12  C   UNL     1       1.521   7.299  20.479  0.00  0.00    +0.000 A 
ATOM     13  C   UNL     1       2.065   7.780  19.292  0.00  0.00    +0.000 A 
ATOM     14  C   UNL     1       2.784   6.931  18.447  0.00  0.00    +0.000 A 
ATOM     15  C   UNL     1       2.955   5.569  18.733  0.00  0.00    +0.000 A 
ATOM     16  C   UNL     1       2.443   5.108  19.960  0.00  0.00    +0.000 A 
ATOM     17 BR   UNL     1       2.659   3.294  20.492  0.00  0.00    +0.000 Br
ATOM     18  C   UNL     1       1.727   5.956  20.818  0.00  0.00    +0.000 A 
ENDBRANCH   1  15
TORSDOF 1
ENDMDL
MODEL 4
REMARK VINA RESULT:      -6.4      2.116      6.237
REMARK  Name = 
REMARK  4 active torsions:
REMARK  status: ('A' for Active; 'I' for Inactive)
REMARK    1  A    between atoms: C_1  and  C_2
REMARK    2  A    between atoms: C_5  and  N_6
REMARK    3  A    between atoms: C_9  and  C_10
REMARK    4  A    between atoms: C_12  and  C_13
REMARK                            x       y       z     vdW  Elec       q    Type
REMARK                         _______ _______ _______ _____ _____    ______ ____
ROOT
ATOM      1  N   UNL     1       4.522   3.501  17.097  0.00  0.00    +0.000 N 
ATOM      2  C   UNL     1       3.733   4.267  17.960  0.00  0.00    +0.000 A 
ATOM      3  N   UNL     1       3.334   5.495  17.604  0.00  0.00    +0.000 NA
ATOM      4  C   UNL     1       2.683   6.253  18.500  0.00  0.00    +0.000 A 
ATOM      5  C   UNL     1       2.330   7.640  18.063  0.00  0.00    +0.000 C 
ATOM      6  C   UNL     1       2.401   5.797  19.765  0.00  0.00    +0.000 A 
ATOM      7  C   UNL     1       2.811   4.511  20.055  0.00  0.00    +0.000 A 
ATOM      8  C   UNL     1       2.579   3.925  21.415  0.00  0.00    +0.000 C 
ATOM      9  N   UNL     1       3.467   3.735  19.162  0.00  0.00    +0.000 NA
ATOM     10  H   UNL     1       4.816   2.667  17.589  0.00  0.00    +0.000 HD
ENDROOT
BRANCH   1  15
ATOM     11  C   UNL     1       8.096   5.400  13.006  0.00  0.00    +0.000 C 
ATOM     12  C   UNL     1       7.186   4.874  14.072  0.00  0.00    +0.000 A 
ATOM     13  C   UNL     1       6.036   4.168  13.734  0.00  0.00    +0.000 A 
ATOM     14  C   UNL     1       5.178   3.692  14.727  0.00  0.00    +0.000 A 
ATOM     15  C   UNL     1       5.412   3.934  16.089  0.00  0.00    +0.000 A 
ATOM     16  C   UNL     1       6.604   4.605  16.419  0.00  0.00    +0.000 A 
ATOM     17 BR   UNL     1       7.066   4.943  18.234  0.00  0.00    +0.000 Br
ATOM     18  C   UNL     1       7.476   5.078  15.427  0.00  0.00    +0.000 A 
ENDBRANCH   1  15
TORSDOF 1
ENDMDL
MODEL 5
REMARK VINA RESULT:      -6.2      2.633      4.354
REMARK  Name = 
REMARK  4 active torsions:
REMARK  status: ('A' for Active; 'I' for Inactive)
REMARK    1  A    between atoms: C_1  and  C_2
REMARK    2  A    between atoms: C_5  and  N_6
REMARK    3  A    between atoms: C_9  and  C_10
REMARK    4  A    between atoms: C_12  and  C_13
REMARK                            x       y       z     vdW  Elec       q    Type
REMARK                         _______ _______ _______ _____ _____    ______ ____
ROOT
ATOM      1  N   UNL     1       2.160   7.926  19.546  0.00  0.00    +0.000 N 
ATOM      2  C   UNL     1       2.521   6.576  19.598  0.00  0.00    +0.000 A 
ATOM      3  N   UNL     1       1.712   5.680  20.180  0.00  0.00    +0.000 NA
ATOM      4  C   UNL     1       2.139   4.416  20.324  0.00  0.00    +0.000 A 
ATOM      5  C   UNL     1       1.218   3.484  21.047  0.00  0.00    +0.000 C 
ATOM      6  C   UNL     1       3.374   4.013  19.878  0.00  0.00    +0.000 A 
ATOM      7  C   UNL     1       4.143   4.978  19.258  0.00  0.00    +0.000 A 
ATOM      8  C   UNL     1       5.518   4.654  18.758  0.00  0.00    +0.000 C 
ATOM      9  N   UNL     1       3.726   6.256  19.105  0.00  0.00    +0.000 NA
ATOM     10  H   UNL     1       2.944   8.452  19.182  0.00  0.00    +0.000 HD
ENDROOT
BRANCH   1  15
ATOM     11  C   UNL     1      -1.194  11.001  23.069  0.00  0.00    +0.000 C 
ATOM     12  C   UNL     1      -0.349  10.175  22.150  0.00  0.00    +0.000 A 
ATOM     13  C   UNL     1       0.532   9.226  22.661  0.00  0.00    +0.000 A 
ATOM     14  C   UNL     1       1.333   8.468  21.805  0.00  0.00    +0.000 A 
ATOM     15  C   UNL     1       1.316   8.653  20.415  0.00  0.00    +0.000 A 
ATOM     16  C   UNL     1       0.385   9.578  19.908  0.00  0.00    +0.000 A 
ATOM     17 BR   UNL     1       0.222   9.877  18.036  0.00  0.00    +0.000 Br
ATOM     18  C   UNL     1      -0.430  10.337  20.761  0.00  0.00    +0.000 A 
ENDBRANCH   1  15
TORSDOF 1
ENDMDL
MODEL 6
REMARK VINA RESULT:      -6.2      2.348      6.321
REMARK  Name = 
REMARK  4 active torsions:
REMARK  status: ('A' for Active; 'I' for Inactive)
REMARK    1  A    between atoms: C_1  and  C_2
REMARK    2  A    between atoms: C_5  and  N_6
REMARK    3  A    between atoms: C_9  and  C_10
REMARK    4  A    between atoms: C_12  and  C_13
REMARK                            x       y       z     vdW  Elec       q    Type
REMARK                         _______ _______ _______ _____ _____    ______ ____
ROOT
ATOM      1  N   UNL     1       4.728   5.863  18.340  0.00  0.00    +0.000 N 
ATOM      2  C   UNL     1       3.631   5.419  19.084  0.00  0.00    +0.000 A 
ATOM      3  N   UNL     1       3.229   4.144  19.005  0.00  0.00    +0.000 NA
ATOM      4  C   UNL     1       2.102   3.777  19.634  0.00  0.00    +0.000 A 
ATOM      5  C   UNL     1       1.670   2.356  19.445  0.00  0.00    +0.000 C 
ATOM      6  C   UNL     1       1.360   4.668  20.369  0.00  0.00    +0.000 A 
ATOM      7  C   UNL     1       1.849   5.958  20.438  0.00  0.00    +0.000 A 
ATOM      8  C   UNL     1       1.103   7.017  21.191  0.00  0.00    +0.000 C 
ATOM      9  N   UNL     1       2.983   6.342  19.810  0.00  0.00    +0.000 NA
ATOM     10  H   UNL     1       4.797   6.868  18.442  0.00  0.00    +0.000 HD
ENDROOT
BRANCH   1  15
ATOM     11  C   UNL     1       6.756   3.927  13.315  0.00  0.00    +0.000 C 
ATOM     12  C   UNL     1       6.248   4.403  14.640  0.00  0.00    +0.000 A 
ATOM     13  C   UNL     1       5.057   3.906  15.161  0.00  0.00    +0.000 A 
ATOM     14  C   UNL     1       4.574   4.363  16.389  0.00  0.00    +0.000 A 
ATOM     15  C   UNL     1       5.236   5.359  17.122  0.00  0.00    +0.000 A 
ATOM     16  C   UNL     1       6.464   5.816  16.609  0.00  0.00    +0.000 A 
ATOM     17 BR   UNL     1       7.488   7.122  17.540  0.00  0.00    +0.000 Br
ATOM     18  C   UNL     1       6.960   5.354  15.381  0.00  0.00    +0.000 A 
ENDBRANCH   1  15
TORSDOF 1
ENDMDL
MODEL 7
REMARK VINA RESULT:      -6.1      1.372      1.800
REMARK  Name = 
REMARK  4 active torsions:
REMARK  status: ('A' for Active; 'I' for Inactive)
REMARK    1  A    between atoms: C_1  and  C_2
REMARK    2  A    between atoms: C_5  and  N_6
REMARK    3  A    between atoms: C_9  and  C_10
REMARK    4  A    between atoms: C_12  and  C_13
REMARK                            x       y       z     vdW  Elec       q    Type
REMARK                         _______ _______ _______ _____ _____    ______ ____
ROOT
ATOM      1  N   UNL     1       3.223   4.770  17.979  0.00  0.00    +0.000 N 
ATOM      2  C   UNL     1       4.568   4.677  17.609  0.00  0.00    +0.000 A 
ATOM      3  N   UNL     1       5.533   5.060  18.456  0.00  0.00    +0.000 NA
ATOM      4  C   UNL     1       6.805   5.075  18.029  0.00  0.00    +0.000 A 
ATOM      5  C   UNL     1       7.824   5.583  18.999  0.00  0.00    +0.000 C 
ATOM      6  C   UNL     1       7.145   4.692  16.754  0.00  0.00    +0.000 A 
ATOM      7  C   UNL     1       6.107   4.275  15.945  0.00  0.00    +0.000 A 
ATOM      8  C   UNL     1       6.363   3.863  14.527  0.00  0.00    +0.000 C 
ATOM      9  N   UNL     1       4.820   4.255  16.361  0.00  0.00    +0.000 NA
ATOM     10  H   UNL     1       2.654   4.550  17.172  0.00  0.00    +0.000 HD
ENDROOT
BRANCH   1  15
ATOM     11  C   UNL     1       0.884   8.377  21.805  0.00  0.00    +0.000 C 
ATOM     12  C   UNL     1       1.459   7.438  20.791  0.00  0.00    +0.000 A 
ATOM     13  C   UNL     1       1.400   6.061  20.989  0.00  0.00    +0.000 A 
ATOM     14  C   UNL     1       1.953   5.186  20.051  0.00  0.00    +0.000 A 
ATOM     15  C   UNL     1       2.617   5.648  18.906  0.00  0.00    +0.000 A 
ATOM     16  C   UNL     1       2.625   7.039  18.693  0.00  0.00    +0.000 A 
ATOM     17 BR   UNL     1       3.443   7.787  17.147  0.00  0.00    +0.000 Br
ATOM     18  C   UNL     1       2.064   7.924  19.625  0.00  0.00    +0.000 A 
ENDBRANCH   1  15
TORSDOF 1
ENDMDL
MODEL 8
REMARK VINA RESULT:      -6.1      2.819      4.190
REMARK  Name = 
REMARK  4 active torsions:
REMARK  status: ('A' for Active; 'I' for Inactive)
REMARK    1  A    between atoms: C_1  and  C_2
REMARK    2  A    between atoms: C_5  and  N_6
REMARK    3  A    between atoms: C_9  and  C_10
REMARK    4  A    between atoms: C_12  and  C_13
REMARK                            x       y       z     vdW  Elec       q    Type
REMARK                         _______ _______ _______ _____ _____    ______ ____
ROOT
ATOM      1  N   UNL     1       5.043   6.369  16.786  0.00  0.00    +0.000 N 
ATOM      2  C   UNL     1       6.244   6.725  17.406  0.00  0.00    +0.000 A 
ATOM      3  N   UNL     1       6.840   5.885  18.263  0.00  0.00    +0.000 NA
ATOM      4  C   UNL     1       7.924   6.303  18.935  0.00  0.00    +0.000 A 
ATOM      5  C   UNL     1       8.498   5.344  19.930  0.00  0.00    +0.000 C 
ATOM      6  C   UNL     1       8.448   7.560  18.755  0.00  0.00    +0.000 A 
ATOM      7  C   UNL     1       7.806   8.362  17.832  0.00  0.00    +0.000 A 
ATOM      8  C   UNL     1       8.277   9.761  17.579  0.00  0.00    +0.000 C 
ATOM      9  N   UNL     1       6.713   7.955  17.147  0.00  0.00    +0.000 NA
ATOM     10  H   UNL     1       4.696   7.172  16.277  0.00  0.00    +0.000 HD
ENDROOT
BRANCH   1  15
ATOM     11  C   UNL     1       0.903   2.755  18.492  0.00  0.00    +0.000 C 
ATOM     12  C   UNL     1       2.000   3.685  18.079  0.00  0.00    +0.000 A 
ATOM     13  C   UNL     1       1.993   5.015  18.491  0.00  0.00    +0.000 A 
ATOM     14  C   UNL     1       3.007   5.887  18.091  0.00  0.00    +0.000 A 
ATOM     15  C   UNL     1       4.042   5.480  17.236  0.00  0.00    +0.000 A 
ATOM     16  C   UNL     1       4.065   4.122  16.869  0.00  0.00    +0.000 A 
ATOM     17 BR   UNL     1       5.450   3.431  15.760  0.00  0.00    +0.000 Br
ATOM     18  C   UNL     1       3.055   3.237  17.274  0.00  0.00    +0.000 A 
ENDBRANCH   1  15
TORSDOF 1
ENDMDL
MODEL 9
REMARK VINA RESULT:      -6.0      3.194      3.689
REMARK  Name = 
REMARK  4 active torsions:
REMARK  status: ('A' for Active; 'I' for Inactive)
REMARK    1  A    between atoms: C_1  and  C_2
REMARK    2  A    between atoms: C_5  and  N_6
REMARK    3  A    between atoms: C_9  and  C_10
REMARK    4  A    between atoms: C_12  and  C_13
REMARK                            x       y       z     vdW  Elec       q    Type
REMARK                         _______ _______ _______ _____ _____    ______ ____
ROOT
ATOM      1  N   UNL     1       4.484   2.805  17.683  0.00  0.00    +0.000 N 
ATOM      2  C   UNL     1       5.507   3.702  17.366  0.00  0.00    +0.000 A 
ATOM      3  N   UNL     1       6.199   4.314  18.337  0.00  0.00    +0.000 NA
ATOM      4  C   UNL     1       7.090   5.260  18.004  0.00  0.00    +0.000 A 
ATOM      5  C   UNL     1       7.775   5.955  19.138  0.00  0.00    +0.000 C 
ATOM      6  C   UNL     1       7.324   5.606  16.695  0.00  0.00    +0.000 A 
ATOM      7  C   UNL     1       6.603   4.913  15.743  0.00  0.00    +0.000 A 
ATOM      8  C   UNL     1       6.761   5.230  14.287  0.00  0.00    +0.000 C 
ATOM      9  N   UNL     1       5.702   3.957  16.063  0.00  0.00    +0.000 NA
ATOM     10  H   UNL     1       4.009   2.546  16.827  0.00  0.00    +0.000 HD
ENDROOT
BRANCH   1  15
ATOM     11  C   UNL     1       1.231   2.732  22.429  0.00  0.00    +0.000 C 
ATOM     12  C   UNL     1       2.061   2.718  21.184  0.00  0.00    +0.000 A 
ATOM     13  C   UNL     1       3.320   2.125  21.180  0.00  0.00    +0.000 A 
ATOM     14  C   UNL     1       4.102   2.128  20.023  0.00  0.00    +0.000 A 
ATOM     15  C   UNL     1       3.677   2.754  18.842  0.00  0.00    +0.000 A 
ATOM     16  C   UNL     1       2.382   3.304  18.844  0.00  0.00    +0.000 A 
ATOM     17 BR   UNL     1       1.667   4.129  17.286  0.00  0.00    +0.000 Br
ATOM     18  C   UNL     1       1.587   3.297  19.999  0.00  0.00    +0.000 A 
ENDBRANCH   1  15
TORSDOF 1
ENDMDL
