MODEL 1
REMARK VINA RESULT:      -7.8      0.000      0.000
REMARK  Name = 
REMARK  6 active torsions:
REMARK  status: ('A' for Active; 'I' for Inactive)
REMARK    1  A    between atoms: C_1  and  C_2
REMARK    2  A    between atoms: C_2  and  C_3
REMARK    3  A    between atoms: N_13  and  C_14
REMARK    4  A    between atoms: C_14  and  C_15
REMARK    5  A    between atoms: C_14  and  C_22
REMARK    6  A    between atoms: C_15  and  C_16
REMARK                            x       y       z     vdW  Elec       q    Type
REMARK                         _______ _______ _______ _____ _____    ______ ____
ROOT
ATOM      1  C   UNL     1       8.110   5.499  19.878  0.00  0.00    +0.000 C 
ATOM      2  C   UNL     1       7.420   5.711  18.522  0.00  0.00    +0.000 C 
ATOM      3  C   UNL     1       7.779   7.117  18.006  0.00  0.00    +0.000 C 
ATOM      4  C   UNL     1       7.914   4.627  17.540  0.00  0.00    +0.000 C 
ATOM      5  C   UNL     1       7.113   4.729  16.277  0.00  0.00    +0.000 A 
ATOM      6  C   UNL     1       7.703   4.672  15.008  0.00  0.00    +0.000 A 
ATOM      7  C   UNL     1       6.914   4.857  13.873  0.00  0.00    +0.000 A 
ATOM      8 CL   UNL     1       7.647   4.892  12.318  0.00  0.00    +0.000 Cl
ATOM      9  C   UNL     1       5.541   5.061  13.995  0.00  0.00    +0.000 A 
ATOM     10  C   UNL     1       4.955   5.114  15.262  0.00  0.00    +0.000 A 
ATOM     11  C   UNL     1       5.737   4.959  16.409  0.00  0.00    +0.000 A 
ATOM     12  C   UNL     1       5.184   5.196  17.791  0.00  0.00    +0.000 C 
ATOM     13  N   UNL     1       3.838   4.956  17.979  0.00  0.00    +0.000 N 
ATOM     14  N   UNL     1       5.956   5.595  18.758  0.00  0.00    +0.000 NA
ATOM     15  H   UNL     1       3.572   3.976  17.880  0.00  0.00    +0.000 HD
ENDROOT
BRANCH  13  16
ATOM     16  C   UNL     1       2.967   5.621  18.977  0.00  0.00    +0.000 C 
BRANCH  16  17
ATOM     17  C   UNL     1       2.247   4.617  19.915  0.00  0.00    +0.000 A 
ATOM     18  N   UNL     1       2.764   4.403  21.147  0.00  0.00    +0.000 NA
ATOM     19  C   UNL     1       2.156   3.449  21.891  0.00  0.00    +0.000 A 
ATOM     20  C   UNL     1       1.103   2.682  21.455  0.00  0.00    +0.000 A 
ATOM     21  C   UNL     1       0.649   2.973  20.194  0.00  0.00    +0.000 A 
ATOM     22  N   UNL     1       1.170   3.953  19.433  0.00  0.00    +0.000 NA
ENDBRANCH  16  17
BRANCH  16  23
ATOM     23  C   UNL     1       1.902   6.480  18.231  0.00  0.00    +0.000 C 
BRANCH  23  24
ATOM     24  C   UNL     1       1.688   7.913  18.724  0.00  0.00    +0.000 A 
ATOM     25  C   UNL     1       1.403   8.150  20.077  0.00  0.00    +0.000 A 
ATOM     26  C   UNL     1       1.148   9.447  20.536  0.00  0.00    +0.000 A 
ATOM     27  C   UNL     1       1.198  10.534  19.665  0.00  0.00    +0.000 A 
ATOM     28  C   UNL     1       1.507  10.318  18.325  0.00  0.00    +0.000 A 
ATOM     29  C   UNL     1       1.739   9.023  17.870  0.00  0.00    +0.000 A 
ENDBRANCH  23  24
ENDBRANCH  16  23
ENDBRANCH  13  16
TORSDOF 4
ENDMDL
MODEL 2
REMARK VINA RESULT:      -7.8      3.008      7.480
REMARK  Name = 
REMARK  6 active torsions:
REMARK  status: ('A' for Active; 'I' for Inactive)
REMARK    1  A    between atoms: C_1  and  C_2
REMARK    2  A    between atoms: C_2  and  C_3
REMARK    3  A    between atoms: N_13  and  C_14
REMARK    4  A    between atoms: C_14  and  C_15
REMARK    5  A    between atoms: C_14  and  C_22
REMARK    6  A    between atoms: C_15  and  C_16
REMARK                            x       y       z     vdW  Elec       q    Type
REMARK                         _______ _______ _______ _____ _____    ______ ____
ROOT
ATOM      1  C   UNL     1       2.441   7.724  17.228  0.00  0.00    +0.000 C 
ATOM      2  C   UNL     1       2.863   6.526  18.093  0.00  0.00    +0.000 C 
ATOM      3  C   UNL     1       3.426   7.060  19.424  0.00  0.00    +0.000 C 
ATOM      4  C   UNL     1       1.628   5.636  18.341  0.00  0.00    +0.000 C 
ATOM      5  C   UNL     1       2.076   4.384  19.034  0.00  0.00    +0.000 A 
ATOM      6  C   UNL     1       1.390   3.847  20.130  0.00  0.00    +0.000 A 
ATOM      7  C   UNL     1       1.905   2.727  20.784  0.00  0.00    +0.000 A 
ATOM      8 CL   UNL     1       1.125   2.125  22.194  0.00  0.00    +0.000 Cl
ATOM      9  C   UNL     1       3.075   2.122  20.329  0.00  0.00    +0.000 A 
ATOM     10  C   UNL     1       3.755   2.659  19.234  0.00  0.00    +0.000 A 
ATOM     11  C   UNL     1       3.267   3.796  18.587  0.00  0.00    +0.000 A 
ATOM     12  C   UNL     1       4.062   4.516  17.528  0.00  0.00    +0.000 C 
ATOM     13  N   UNL     1       4.934   3.758  16.773  0.00  0.00    +0.000 N 
ATOM     14  N   UNL     1       3.911   5.793  17.334  0.00  0.00    +0.000 NA
ATOM     15  H   UNL     1       4.477   3.072  16.173  0.00  0.00    +0.000 HD
ENDROOT
BRANCH  13  16
ATOM     16  C   UNL     1       6.179   4.245  16.132  0.00  0.00    +0.000 C 
BRANCH  16  17
ATOM     17  C   UNL     1       6.978   5.225  17.031  0.00  0.00    +0.000 A 
ATOM     18  N   UNL     1       7.372   4.800  18.254  0.00  0.00    +0.000 NA
ATOM     19  C   UNL     1       7.982   5.721  19.036  0.00  0.00    +0.000 A 
ATOM     20  C   UNL     1       8.175   7.034  18.680  0.00  0.00    +0.000 A 
ATOM     21  C   UNL     1       7.741   7.370  17.422  0.00  0.00    +0.000 A 
ATOM     22  N   UNL     1       7.188   6.483  16.575  0.00  0.00    +0.000 NA
ENDBRANCH  16  17
BRANCH  16  23
ATOM     23  C   UNL     1       5.816   4.958  14.793  0.00  0.00    +0.000 C 
BRANCH  23  24
ATOM     24  C   UNL     1       5.951   4.140  13.507  0.00  0.00    +0.000 A 
ATOM     25  C   UNL     1       4.809   3.581  12.913  0.00  0.00    +0.000 A 
ATOM     26  C   UNL     1       4.917   2.783  11.769  0.00  0.00    +0.000 A 
ATOM     27  C   UNL     1       6.158   2.548  11.179  0.00  0.00    +0.000 A 
ATOM     28  C   UNL     1       7.297   3.118  11.740  0.00  0.00    +0.000 A 
ATOM     29  C   UNL     1       7.185   3.895  12.890  0.00  0.00    +0.000 A 
ENDBRANCH  23  24
ENDBRANCH  16  23
ENDBRANCH  13  16
TORSDOF 4
ENDMDL
MODEL 3
REMARK VINA RESULT:      -7.8      3.249      7.578
REMARK  Name = 
REMARK  6 active torsions:
REMARK  status: ('A' for Active; 'I' for Inactive)
REMARK    1  A    between atoms: C_1  and  C_2
REMARK    2  A    between atoms: C_2  and  C_3
REMARK    3  A    between atoms: N_13  and  C_14
REMARK    4  A    between atoms: C_14  and  C_15
REMARK    5  A    between atoms: C_14  and  C_22
REMARK    6  A    between atoms: C_15  and  C_16
REMARK                            x       y       z     vdW  Elec       q    Type
REMARK                         _______ _______ _______ _____ _____    ______ ____
ROOT
ATOM      1  C   UNL     1       1.717   9.316  22.827  0.00  0.00    +0.000 C 
ATOM      2  C   UNL     1       0.893   9.167  21.538  0.00  0.00    +0.000 C 
ATOM      3  C   UNL     1      -0.417   8.433  21.879  0.00  0.00    +0.000 C 
ATOM      4  C   UNL     1       0.599  10.573  20.974  0.00  0.00    +0.000 C 
ATOM      5  C   UNL     1      -0.051  10.421  19.631  0.00  0.00    +0.000 A 
ATOM      6  C   UNL     1      -1.170  11.171  19.250  0.00  0.00    +0.000 A 
ATOM      7  C   UNL     1      -1.780  10.922  18.020  0.00  0.00    +0.000 A 
ATOM      8 CL   UNL     1      -3.216  11.765  17.591  0.00  0.00    +0.000 Cl
ATOM      9  C   UNL     1      -1.259   9.960  17.158  0.00  0.00    +0.000 A 
ATOM     10  C   UNL     1      -0.140   9.215  17.540  0.00  0.00    +0.000 A 
ATOM     11  C   UNL     1       0.464   9.434  18.780  0.00  0.00    +0.000 A 
ATOM     12  C   UNL     1       1.548   8.531  19.311  0.00  0.00    +0.000 C 
ATOM     13  N   UNL     1       2.357   7.908  18.382  0.00  0.00    +0.000 N 
ATOM     14  N   UNL     1       1.714   8.368  20.589  0.00  0.00    +0.000 NA
ATOM     15  H   UNL     1       2.945   8.547  17.846  0.00  0.00    +0.000 HD
ENDROOT
BRANCH  13  16
ATOM     16  C   UNL     1       3.050   6.610  18.563  0.00  0.00    +0.000 C 
BRANCH  16  17
ATOM     17  C   UNL     1       4.254   6.428  17.602  0.00  0.00    +0.000 A 
ATOM     18  N   UNL     1       4.243   5.377  16.749  0.00  0.00    +0.000 NA
ATOM     19  C   UNL     1       5.357   5.208  15.999  0.00  0.00    +0.000 A 
ATOM     20  C   UNL     1       6.478   5.997  16.089  0.00  0.00    +0.000 A 
ATOM     21  C   UNL     1       6.394   7.037  16.980  0.00  0.00    +0.000 A 
ATOM     22  N   UNL     1       5.290   7.295  17.705  0.00  0.00    +0.000 NA
ENDBRANCH  16  17
BRANCH  16  23
ATOM     23  C   UNL     1       2.031   5.453  18.333  0.00  0.00    +0.000 C 
BRANCH  23  24
ATOM     24  C   UNL     1       1.915   4.393  19.431  0.00  0.00    +0.000 A 
ATOM     25  C   UNL     1       1.388   3.129  19.127  0.00  0.00    +0.000 A 
ATOM     26  C   UNL     1       1.221   2.166  20.129  0.00  0.00    +0.000 A 
ATOM     27  C   UNL     1       1.598   2.433  21.444  0.00  0.00    +0.000 A 
ATOM     28  C   UNL     1       2.149   3.672  21.755  0.00  0.00    +0.000 A 
ATOM     29  C   UNL     1       2.294   4.634  20.759  0.00  0.00    +0.000 A 
ENDBRANCH  23  24
ENDBRANCH  16  23
ENDBRANCH  13  16
TORSDOF 4
ENDMDL
MODEL 4
REMARK VINA RESULT:      -7.6      3.272      7.609
REMARK  Name = 
REMARK  6 active torsions:
REMARK  status: ('A' for Active; 'I' for Inactive)
REMARK    1  A    between atoms: C_1  and  C_2
REMARK    2  A    between atoms: C_2  and  C_3
REMARK    3  A    between atoms: N_13  and  C_14
REMARK    4  A    between atoms: C_14  and  C_15
REMARK    5  A    between atoms: C_14  and  C_22
REMARK    6  A    between atoms: C_15  and  C_16
REMARK                            x       y       z     vdW  Elec       q    Type
REMARK                         _______ _______ _______ _____ _____    ______ ____
ROOT
ATOM      1  C   UNL     1       1.718   9.333  22.915  0.00  0.00    +0.000 C 
ATOM      2  C   UNL     1       0.889   9.207  21.627  0.00  0.00    +0.000 C 
ATOM      3  C   UNL     1      -0.428   8.482  21.964  0.00  0.00    +0.000 C 
ATOM      4  C   UNL     1       0.608  10.622  21.079  0.00  0.00    +0.000 C 
ATOM      5  C   UNL     1      -0.048  10.490  19.737  0.00  0.00    +0.000 A 
ATOM      6  C   UNL     1      -1.161  11.256  19.368  0.00  0.00    +0.000 A 
ATOM      7  C   UNL     1      -1.777  11.026  18.137  0.00  0.00    +0.000 A 
ATOM      8 CL   UNL     1      -3.205  11.888  17.721  0.00  0.00    +0.000 Cl
ATOM      9  C   UNL     1      -1.268  10.068  17.263  0.00  0.00    +0.000 A 
ATOM     10  C   UNL     1      -0.156   9.308  17.633  0.00  0.00    +0.000 A 
ATOM     11  C   UNL     1       0.454   9.507  18.874  0.00  0.00    +0.000 A 
ATOM     12  C   UNL     1       1.531   8.588  19.391  0.00  0.00    +0.000 C 
ATOM     13  N   UNL     1       2.331   7.966  18.453  0.00  0.00    +0.000 N 
ATOM     14  N   UNL     1       1.699   8.410  20.668  0.00  0.00    +0.000 NA
ATOM     15  H   UNL     1       2.923   8.605  17.923  0.00  0.00    +0.000 HD
ENDROOT
BRANCH  13  16
ATOM     16  C   UNL     1       3.011   6.660  18.619  0.00  0.00    +0.000 C 
BRANCH  16  17
ATOM     17  C   UNL     1       4.292   6.532  17.753  0.00  0.00    +0.000 A 
ATOM     18  N   UNL     1       4.216   6.851  16.440  0.00  0.00    +0.000 NA
ATOM     19  C   UNL     1       5.334   6.632  15.709  0.00  0.00    +0.000 A 
ATOM     20  C   UNL     1       6.489   6.081  16.207  0.00  0.00    +0.000 A 
ATOM     21  C   UNL     1       6.470   5.791  17.548  0.00  0.00    +0.000 A 
ATOM     22  N   UNL     1       5.412   6.046  18.340  0.00  0.00    +0.000 NA
ENDBRANCH  16  17
BRANCH  16  23
ATOM     23  C   UNL     1       2.019   5.519  18.238  0.00  0.00    +0.000 C 
BRANCH  23  24
ATOM     24  C   UNL     1       1.873   4.360  19.227  0.00  0.00    +0.000 A 
ATOM     25  C   UNL     1       1.815   4.622  20.604  0.00  0.00    +0.000 A 
ATOM     26  C   UNL     1       1.738   3.573  21.528  0.00  0.00    +0.000 A 
ATOM     27  C   UNL     1       1.692   2.248  21.098  0.00  0.00    +0.000 A 
ATOM     28  C   UNL     1       1.720   1.973  19.734  0.00  0.00    +0.000 A 
ATOM     29  C   UNL     1       1.817   3.019  18.821  0.00  0.00    +0.000 A 
ENDBRANCH  23  24
ENDBRANCH  16  23
ENDBRANCH  13  16
TORSDOF 4
ENDMDL
MODEL 5
REMARK VINA RESULT:      -7.6      7.912     11.645
REMARK  Name = 
REMARK  6 active torsions:
REMARK  status: ('A' for Active; 'I' for Inactive)
REMARK    1  A    between atoms: C_1  and  C_2
REMARK    2  A    between atoms: C_2  and  C_3
REMARK    3  A    between atoms: N_13  and  C_14
REMARK    4  A    between atoms: C_14  and  C_15
REMARK    5  A    between atoms: C_14  and  C_22
REMARK    6  A    between atoms: C_15  and  C_16
REMARK                            x       y       z     vdW  Elec       q    Type
REMARK                         _______ _______ _______ _____ _____    ______ ____
ROOT
ATOM      1  C   UNL     1      -7.744  12.436  19.744  0.00  0.00    +0.000 C 
ATOM      2  C   UNL     1      -6.413  11.805  19.304  0.00  0.00    +0.000 C 
ATOM      3  C   UNL     1      -6.564  10.273  19.338  0.00  0.00    +0.000 C 
ATOM      4  C   UNL     1      -6.084  12.289  17.876  0.00  0.00    +0.000 C 
ATOM      5  C   UNL     1      -4.708  11.814  17.518  0.00  0.00    +0.000 A 
ATOM      6  C   UNL     1      -4.411  11.244  16.274  0.00  0.00    +0.000 A 
ATOM      7  C   UNL     1      -3.131  10.745  16.033  0.00  0.00    +0.000 A 
ATOM      8 CL   UNL     1      -2.787   9.950  14.547  0.00  0.00    +0.000 Cl
ATOM      9  C   UNL     1      -2.141  10.845  17.009  0.00  0.00    +0.000 A 
ATOM     10  C   UNL     1      -2.439  11.417  18.248  0.00  0.00    +0.000 A 
ATOM     11  C   UNL     1      -3.725  11.895  18.513  0.00  0.00    +0.000 A 
ATOM     12  C   UNL     1      -4.141  12.344  19.891  0.00  0.00    +0.000 C 
ATOM     13  N   UNL     1      -3.156  12.864  20.707  0.00  0.00    +0.000 N 
ATOM     14  N   UNL     1      -5.379  12.254  20.275  0.00  0.00    +0.000 NA
ATOM     15  H   UNL     1      -2.765  13.746  20.376  0.00  0.00    +0.000 HD
ENDROOT
BRANCH  13  16
ATOM     16  C   UNL     1      -3.145  12.826  22.188  0.00  0.00    +0.000 C 
BRANCH  16  17
ATOM     17  C   UNL     1      -3.809  14.073  22.830  0.00  0.00    +0.000 A 
ATOM     18  N   UNL     1      -3.027  15.137  23.126  0.00  0.00    +0.000 NA
ATOM     19  C   UNL     1      -3.635  16.161  23.771  0.00  0.00    +0.000 A 
ATOM     20  C   UNL     1      -4.951  16.155  24.164  0.00  0.00    +0.000 A 
ATOM     21  C   UNL     1      -5.662  15.034  23.819  0.00  0.00    +0.000 A 
ATOM     22  N   UNL     1      -5.130  14.013  23.122  0.00  0.00    +0.000 NA
ENDBRANCH  16  17
BRANCH  16  23
ATOM     23  C   UNL     1      -1.670  12.720  22.683  0.00  0.00    +0.000 C 
BRANCH  23  24
ATOM     24  C   UNL     1      -0.902  11.445  22.325  0.00  0.00    +0.000 A 
ATOM     25  C   UNL     1      -0.180  11.380  21.124  0.00  0.00    +0.000 A 
ATOM     26  C   UNL     1       0.482  10.204  20.752  0.00  0.00    +0.000 A 
ATOM     27  C   UNL     1       0.460   9.082  21.577  0.00  0.00    +0.000 A 
ATOM     28  C   UNL     1      -0.229   9.140  22.785  0.00  0.00    +0.000 A 
ATOM     29  C   UNL     1      -0.903  10.306  23.141  0.00  0.00    +0.000 A 
ENDBRANCH  23  24
ENDBRANCH  16  23
ENDBRANCH  13  16
TORSDOF 4
ENDMDL
MODEL 6
REMARK VINA RESULT:      -7.5      2.970      7.516
REMARK  Name = 
REMARK  6 active torsions:
REMARK  status: ('A' for Active; 'I' for Inactive)
REMARK    1  A    between atoms: C_1  and  C_2
REMARK    2  A    between atoms: C_2  and  C_3
REMARK    3  A    between atoms: N_13  and  C_14
REMARK    4  A    between atoms: C_14  and  C_15
REMARK    5  A    between atoms: C_14  and  C_22
REMARK    6  A    between atoms: C_15  and  C_16
REMARK                            x       y       z     vdW  Elec       q    Type
REMARK                         _______ _______ _______ _____ _____    ______ ____
ROOT
ATOM      1  C   UNL     1       2.030   7.605  17.368  0.00  0.00    +0.000 C 
ATOM      2  C   UNL     1       2.532   6.464  18.269  0.00  0.00    +0.000 C 
ATOM      3  C   UNL     1       3.047   7.074  19.586  0.00  0.00    +0.000 C 
ATOM      4  C   UNL     1       1.362   5.495  18.538  0.00  0.00    +0.000 C 
ATOM      5  C   UNL     1       1.894   4.298  19.267  0.00  0.00    +0.000 A 
ATOM      6  C   UNL     1       1.241   3.744  20.376  0.00  0.00    +0.000 A 
ATOM      7  C   UNL     1       1.831   2.683  21.063  0.00  0.00    +0.000 A 
ATOM      8 CL   UNL     1       1.088   2.066  22.486  0.00  0.00    +0.000 Cl
ATOM      9  C   UNL     1       3.044   2.151  20.630  0.00  0.00    +0.000 A 
ATOM     10  C   UNL     1       3.691   2.704  19.522  0.00  0.00    +0.000 A 
ATOM     11  C   UNL     1       3.126   3.785  18.841  0.00  0.00    +0.000 A 
ATOM     12  C   UNL     1       3.874   4.530  17.765  0.00  0.00    +0.000 C 
ATOM     13  N   UNL     1       4.803   3.816  17.035  0.00  0.00    +0.000 N 
ATOM     14  N   UNL     1       3.634   5.787  17.535  0.00  0.00    +0.000 NA
ATOM     15  H   UNL     1       4.399   3.082  16.453  0.00  0.00    +0.000 HD
ENDROOT
BRANCH  13  16
ATOM     16  C   UNL     1       6.013   4.372  16.386  0.00  0.00    +0.000 C 
BRANCH  16  17
ATOM     17  C   UNL     1       6.753   5.407  17.273  0.00  0.00    +0.000 A 
ATOM     18  N   UNL     1       6.935   6.658  16.788  0.00  0.00    +0.000 NA
ATOM     19  C   UNL     1       7.668   7.495  17.559  0.00  0.00    +0.000 A 
ATOM     20  C   UNL     1       8.254   7.138  18.749  0.00  0.00    +0.000 A 
ATOM     21  C   UNL     1       8.012   5.850  19.158  0.00  0.00    +0.000 A 
ATOM     22  N   UNL     1       7.239   4.993  18.468  0.00  0.00    +0.000 NA
ENDBRANCH  16  17
BRANCH  16  23
ATOM     23  C   UNL     1       5.604   5.049  15.043  0.00  0.00    +0.000 C 
BRANCH  23  24
ATOM     24  C   UNL     1       5.887   4.274  13.753  0.00  0.00    +0.000 A 
ATOM     25  C   UNL     1       7.165   4.321  13.178  0.00  0.00    +0.000 A 
ATOM     26  C   UNL     1       7.430   3.666  11.970  0.00  0.00    +0.000 A 
ATOM     27  C   UNL     1       6.436   2.931  11.326  0.00  0.00    +0.000 A 
ATOM     28  C   UNL     1       5.170   2.852  11.899  0.00  0.00    +0.000 A 
ATOM     29  C   UNL     1       4.907   3.522  13.091  0.00  0.00    +0.000 A 
ENDBRANCH  23  24
ENDBRANCH  16  23
ENDBRANCH  13  16
TORSDOF 4
ENDMDL
MODEL 7
REMARK VINA RESULT:      -7.4      7.656     11.501
REMARK  Name = 
REMARK  6 active torsions:
REMARK  status: ('A' for Active; 'I' for Inactive)
REMARK    1  A    between atoms: C_1  and  C_2
REMARK    2  A    between atoms: C_2  and  C_3
REMARK    3  A    between atoms: N_13  and  C_14
REMARK    4  A    between atoms: C_14  and  C_15
REMARK    5  A    between atoms: C_14  and  C_22
REMARK    6  A    between atoms: C_15  and  C_16
REMARK                            x       y       z     vdW  Elec       q    Type
REMARK                         _______ _______ _______ _____ _____    ______ ____
ROOT
ATOM      1  C   UNL     1      -7.576  12.788  20.826  0.00  0.00    +0.000 C 
ATOM      2  C   UNL     1      -6.405  12.061  20.146  0.00  0.00    +0.000 C 
ATOM      3  C   UNL     1      -6.755  10.564  20.041  0.00  0.00    +0.000 C 
ATOM      4  C   UNL     1      -6.192  12.670  18.744  0.00  0.00    +0.000 C 
ATOM      5  C   UNL     1      -4.945  12.081  18.155  0.00  0.00    +0.000 A 
ATOM      6  C   UNL     1      -4.881  11.634  16.829  0.00  0.00    +0.000 A 
ATOM      7  C   UNL     1      -3.718  11.019  16.366  0.00  0.00    +0.000 A 
ATOM      8 CL   UNL     1      -3.668  10.373  14.773  0.00  0.00    +0.000 Cl
ATOM      9  C   UNL     1      -2.612  10.882  17.202  0.00  0.00    +0.000 A 
ATOM     10  C   UNL     1      -2.679  11.332  18.523  0.00  0.00    +0.000 A 
ATOM     11  C   UNL     1      -3.846  11.924  19.009  0.00  0.00    +0.000 A 
ATOM     12  C   UNL     1      -4.027  12.251  20.470  0.00  0.00    +0.000 C 
ATOM     13  N   UNL     1      -2.890  12.548  21.194  0.00  0.00    +0.000 N 
ATOM     14  N   UNL     1      -5.210  12.263  21.008  0.00  0.00    +0.000 NA
ATOM     15  H   UNL     1      -2.427  13.410  20.906  0.00  0.00    +0.000 HD
ENDROOT
BRANCH  13  16
ATOM     16  C   UNL     1      -2.703  12.330  22.648  0.00  0.00    +0.000 C 
BRANCH  16  17
ATOM     17  C   UNL     1      -2.658  13.654  23.456  0.00  0.00    +0.000 A 
ATOM     18  N   UNL     1      -1.455  14.112  23.873  0.00  0.00    +0.000 NA
ATOM     19  C   UNL     1      -1.478  15.218  24.654  0.00  0.00    +0.000 A 
ATOM     20  C   UNL     1      -2.625  15.851  25.066  0.00  0.00    +0.000 A 
ATOM     21  C   UNL     1      -3.795  15.314  24.591  0.00  0.00    +0.000 A 
ATOM     22  N   UNL     1      -3.833  14.256  23.759  0.00  0.00    +0.000 NA
ENDBRANCH  16  17
BRANCH  16  23
ATOM     23  C   UNL     1      -1.376  11.545  22.878  0.00  0.00    +0.000 C 
BRANCH  23  24
ATOM     24  C   UNL     1      -0.515  11.249  21.647  0.00  0.00    +0.000 A 
ATOM     25  C   UNL     1      -0.429   9.939  21.155  0.00  0.00    +0.000 A 
ATOM     26  C   UNL     1       0.397   9.638  20.066  0.00  0.00    +0.000 A 
ATOM     27  C   UNL     1       1.131  10.638  19.431  0.00  0.00    +0.000 A 
ATOM     28  C   UNL     1       1.034  11.948  19.890  0.00  0.00    +0.000 A 
ATOM     29  C   UNL     1       0.226  12.238  20.986  0.00  0.00    +0.000 A 
ENDBRANCH  23  24
ENDBRANCH  16  23
ENDBRANCH  13  16
TORSDOF 4
ENDMDL
MODEL 8
REMARK VINA RESULT:      -7.3      7.942     11.617
REMARK  Name = 
REMARK  6 active torsions:
REMARK  status: ('A' for Active; 'I' for Inactive)
REMARK    1  A    between atoms: C_1  and  C_2
REMARK    2  A    between atoms: C_2  and  C_3
REMARK    3  A    between atoms: N_13  and  C_14
REMARK    4  A    between atoms: C_14  and  C_15
REMARK    5  A    between atoms: C_14  and  C_22
REMARK    6  A    between atoms: C_15  and  C_16
REMARK                            x       y       z     vdW  Elec       q    Type
REMARK                         _______ _______ _______ _____ _____    ______ ____
ROOT
ATOM      1  C   UNL     1      -7.770  12.597  20.068  0.00  0.00    +0.000 C 
ATOM      2  C   UNL     1      -6.468  11.927  19.600  0.00  0.00    +0.000 C 
ATOM      3  C   UNL     1      -6.701  10.406  19.527  0.00  0.00    +0.000 C 
ATOM      4  C   UNL     1      -6.094  12.489  18.212  0.00  0.00    +0.000 C 
ATOM      5  C   UNL     1      -4.739  11.966  17.837  0.00  0.00    +0.000 A 
ATOM      6  C   UNL     1      -4.456  11.467  16.560  0.00  0.00    +0.000 A 
ATOM      7  C   UNL     1      -3.200  10.918  16.299  0.00  0.00    +0.000 A 
ATOM      8 CL   UNL     1      -2.879  10.209  14.765  0.00  0.00    +0.000 Cl
ATOM      9  C   UNL     1      -2.221  10.897  17.289  0.00  0.00    +0.000 A 
ATOM     10  C   UNL     1      -2.506  11.398  18.561  0.00  0.00    +0.000 A 
ATOM     11  C   UNL     1      -3.768  11.926  18.845  0.00  0.00    +0.000 A 
ATOM     12  C   UNL     1      -4.179  12.301  20.246  0.00  0.00    +0.000 C 
ATOM     13  N   UNL     1      -3.180  12.710  21.107  0.00  0.00    +0.000 N 
ATOM     14  N   UNL     1      -5.426  12.252  20.611  0.00  0.00    +0.000 NA
ATOM     15  H   UNL     1      -2.738  13.591  20.841  0.00  0.00    +0.000 HD
ENDROOT
BRANCH  13  16
ATOM     16  C   UNL     1      -3.192  12.570  22.582  0.00  0.00    +0.000 C 
BRANCH  16  17
ATOM     17  C   UNL     1      -3.444  13.915  23.314  0.00  0.00    +0.000 A 
ATOM     18  N   UNL     1      -2.667  14.223  24.379  0.00  0.00    +0.000 NA
ATOM     19  C   UNL     1      -2.988  15.359  25.042  0.00  0.00    +0.000 A 
ATOM     20  C   UNL     1      -4.053  16.166  24.723  0.00  0.00    +0.000 A 
ATOM     21  C   UNL     1      -4.781  15.772  23.629  0.00  0.00    +0.000 A 
ATOM     22  N   UNL     1      -4.472  14.689  22.892  0.00  0.00    +0.000 NA
ENDBRANCH  16  17
BRANCH  16  23
ATOM     23  C   UNL     1      -1.826  11.982  23.048  0.00  0.00    +0.000 C 
BRANCH  23  24
ATOM     24  C   UNL     1      -0.821  11.597  21.958  0.00  0.00    +0.000 A 
ATOM     25  C   UNL     1      -0.068  12.594  21.321  0.00  0.00    +0.000 A 
ATOM     26  C   UNL     1       0.813  12.270  20.284  0.00  0.00    +0.000 A 
ATOM     27  C   UNL     1       0.982  10.947  19.880  0.00  0.00    +0.000 A 
ATOM     28  C   UNL     1       0.263   9.943  20.522  0.00  0.00    +0.000 A 
ATOM     29  C   UNL     1      -0.628  10.274  21.539  0.00  0.00    +0.000 A 
ENDBRANCH  23  24
ENDBRANCH  16  23
ENDBRANCH  13  16
TORSDOF 4
ENDMDL
MODEL 9
REMARK VINA RESULT:      -7.3      3.242      7.567
REMARK  Name = 
REMARK  6 active torsions:
REMARK  status: ('A' for Active; 'I' for Inactive)
REMARK    1  A    between atoms: C_1  and  C_2
REMARK    2  A    between atoms: C_2  and  C_3
REMARK    3  A    between atoms: N_13  and  C_14
REMARK    4  A    between atoms: C_14  and  C_15
REMARK    5  A    between atoms: C_14  and  C_22
REMARK    6  A    between atoms: C_15  and  C_16
REMARK                            x       y       z     vdW  Elec       q    Type
REMARK                         _______ _______ _______ _____ _____    ______ ____
ROOT
ATOM      1  C   UNL     1       1.616   9.439  22.999  0.00  0.00    +0.000 C 
ATOM      2  C   UNL     1       0.832   9.243  21.691  0.00  0.00    +0.000 C 
ATOM      3  C   UNL     1      -0.484   8.511  22.015  0.00  0.00    +0.000 C 
ATOM      4  C   UNL     1       0.548  10.628  21.073  0.00  0.00    +0.000 C 
ATOM      5  C   UNL     1      -0.060  10.428  19.717  0.00  0.00    +0.000 A 
ATOM      6  C   UNL     1      -1.171  11.158  19.278  0.00  0.00    +0.000 A 
ATOM      7  C   UNL     1      -1.741  10.866  18.039  0.00  0.00    +0.000 A 
ATOM      8 CL   UNL     1      -3.168  11.685  17.539  0.00  0.00    +0.000 Cl
ATOM      9  C   UNL     1      -1.189   9.879  17.225  0.00  0.00    +0.000 A 
ATOM     10  C   UNL     1      -0.078   9.155  17.664  0.00  0.00    +0.000 A 
ATOM     11  C   UNL     1       0.486   9.418  18.914  0.00  0.00    +0.000 A 
ATOM     12  C   UNL     1       1.559   8.540  19.506  0.00  0.00    +0.000 C 
ATOM     13  N   UNL     1       2.399   7.892  18.623  0.00  0.00    +0.000 N 
ATOM     14  N   UNL     1       1.686   8.419  20.794  0.00  0.00    +0.000 NA
ATOM     15  H   UNL     1       3.000   8.518  18.086  0.00  0.00    +0.000 HD
ENDROOT
BRANCH  13  16
ATOM     16  C   UNL     1       3.093   6.606  18.868  0.00  0.00    +0.000 C 
BRANCH  16  17
ATOM     17  C   UNL     1       4.300   6.380  17.918  0.00  0.00    +0.000 A 
ATOM     18  N   UNL     1       5.443   5.875  18.439  0.00  0.00    +0.000 NA
ATOM     19  C   UNL     1       6.495   5.786  17.592  0.00  0.00    +0.000 A 
ATOM     20  C   UNL     1       6.473   6.209  16.285  0.00  0.00    +0.000 A 
ATOM     21  C   UNL     1       5.271   6.705  15.848  0.00  0.00    +0.000 A 
ATOM     22  N   UNL     1       4.173   6.758  16.624  0.00  0.00    +0.000 NA
ENDBRANCH  16  17
BRANCH  16  23
ATOM     23  C   UNL     1       2.077   5.437  18.691  0.00  0.00    +0.000 C 
BRANCH  23  24
ATOM     24  C   UNL     1       2.176   4.268  19.674  0.00  0.00    +0.000 A 
ATOM     25  C   UNL     1       1.100   3.982  20.528  0.00  0.00    +0.000 A 
ATOM     26  C   UNL     1       1.193   2.954  21.473  0.00  0.00    +0.000 A 
ATOM     27  C   UNL     1       2.345   2.175  21.567  0.00  0.00    +0.000 A 
ATOM     28  C   UNL     1       3.409   2.428  20.708  0.00  0.00    +0.000 A 
ATOM     29  C   UNL     1       3.320   3.466  19.784  0.00  0.00    +0.000 A 
ENDBRANCH  23  24
ENDBRANCH  16  23
ENDBRANCH  13  16
TORSDOF 4
ENDMDL
