MODEL 1
REMARK VINA RESULT:      -6.3      0.000      0.000
REMARK  Name = 
REMARK  11 active torsions:
REMARK  status: ('A' for Active; 'I' for Inactive)
REMARK    1  A    between atoms: C_1  and  C_2
REMARK    2  A    between atoms: N_4  and  C_5
REMARK    3  A    between atoms: C_8  and  O_9
REMARK    4  A    between atoms: O_9  and  C_10
REMARK    5  A    between atoms: C_10  and  C_11
REMARK    6  A    between atoms: C_11  and  C_12
REMARK    7  A    between atoms: C_12  and  C_13
REMARK    8  A    between atoms: C_13  and  C_14
REMARK    9  A    between atoms: C_14  and  C_15
REMARK   10  A    between atoms: C_15  and  O_16
REMARK   11  A    between atoms: O_16  and  N_17
REMARK                            x       y       z     vdW  Elec       q    Type
REMARK                         _______ _______ _______ _____ _____    ______ ____
ROOT
ATOM      1  C   UNL     1       6.102   4.944  15.245  0.00  0.00    +0.000 A 
ATOM      2  C   UNL     1       5.259   6.057  15.313  0.00  0.00    +0.000 A 
ATOM      3  C   UNL     1       4.852   6.570  16.545  0.00  0.00    +0.000 A 
ATOM      4  C   UNL     1       5.284   5.982  17.733  0.00  0.00    +0.000 A 
ATOM      5  C   UNL     1       6.155   4.893  17.676  0.00  0.00    +0.000 A 
ATOM      6  C   UNL     1       6.546   4.365  16.439  0.00  0.00    +0.000 A 
ENDROOT
BRANCH   1  10
ATOM      7  C   UNL     1       5.604   2.301  11.247  0.00  0.00    +0.000 C 
ATOM      8  C   UNL     1       6.203   3.216  12.256  0.00  0.00    +0.000 C 
ATOM      9  N   UNL     1       5.718   3.404  13.443  0.00  0.00    +0.000 NA
ATOM     10  N   UNL     1       6.478   4.416  13.997  0.00  0.00    +0.000 N 
ATOM     11  C   UNL     1       7.483   4.909  13.153  0.00  0.00    +0.000 C 
ATOM     12  O   UNL     1       8.260   5.839  13.286  0.00  0.00    +0.000 OA
ATOM     13  C   UNL     1       7.443   3.998  11.969  0.00  0.00    +0.000 C 
ENDBRANCH   1  10
BRANCH   4  14
ATOM     14  O   UNL     1       4.814   6.569  18.878  0.00  0.00    +0.000 OA
BRANCH  14  15
ATOM     15  C   UNL     1       3.396   6.746  18.948  0.00  0.00    +0.000 C 
BRANCH  15  16
ATOM     16  C   UNL     1       2.730   5.386  19.170  0.00  0.00    +0.000 C 
BRANCH  16  17
ATOM     17  C   UNL     1       1.846   5.008  17.979  0.00  0.00    +0.000 C 
BRANCH  17  18
ATOM     18  C   UNL     1       2.299   3.706  17.316  0.00  0.00    +0.000 C 
BRANCH  18  19
ATOM     19  C   UNL     1       3.262   2.933  18.216  0.00  0.00    +0.000 C 
BRANCH  19  20
ATOM     20  C   UNL     1       2.537   1.911  19.091  0.00  0.00    +0.000 C 
BRANCH  20  21
ATOM     21  O   UNL     1       2.876   2.184  20.448  0.00  0.00    +0.000 OA
BRANCH  21  22
ATOM     22  N   UNL     1       1.800   2.730  21.188  0.00  0.00    +0.000 N 
ATOM     23  O   UNL     1       0.726   2.880  20.587  0.00  0.00    +0.000 OA
ATOM     24  O   UNL     1       2.094   2.989  22.344  0.00  0.00    +0.000 OA
ENDBRANCH  21  22
ENDBRANCH  20  21
ENDBRANCH  19  20
ENDBRANCH  18  19
ENDBRANCH  17  18
ENDBRANCH  16  17
ENDBRANCH  15  16
ENDBRANCH  14  15
ENDBRANCH   4  14
TORSDOF 10
ENDMDL
MODEL 2
REMARK VINA RESULT:      -6.3      1.746      2.336
REMARK  Name = 
REMARK  11 active torsions:
REMARK  status: ('A' for Active; 'I' for Inactive)
REMARK    1  A    between atoms: C_1  and  C_2
REMARK    2  A    between atoms: N_4  and  C_5
REMARK    3  A    between atoms: C_8  and  O_9
REMARK    4  A    between atoms: O_9  and  C_10
REMARK    5  A    between atoms: C_10  and  C_11
REMARK    6  A    between atoms: C_11  and  C_12
REMARK    7  A    between atoms: C_12  and  C_13
REMARK    8  A    between atoms: C_13  and  C_14
REMARK    9  A    between atoms: C_14  and  C_15
REMARK   10  A    between atoms: C_15  and  O_16
REMARK   11  A    between atoms: O_16  and  N_17
REMARK                            x       y       z     vdW  Elec       q    Type
REMARK                         _______ _______ _______ _____ _____    ______ ____
ROOT
ATOM      1  C   UNL     1       5.537   4.850  15.474  0.00  0.00    +0.000 A 
ATOM      2  C   UNL     1       5.604   4.043  16.614  0.00  0.00    +0.000 A 
ATOM      3  C   UNL     1       5.159   4.516  17.849  0.00  0.00    +0.000 A 
ATOM      4  C   UNL     1       4.634   5.802  17.966  0.00  0.00    +0.000 A 
ATOM      5  C   UNL     1       4.530   6.601  16.826  0.00  0.00    +0.000 A 
ATOM      6  C   UNL     1       4.997   6.135  15.592  0.00  0.00    +0.000 A 
ENDROOT
BRANCH   1  10
ATOM      7  C   UNL     1       5.307   2.589  11.224  0.00  0.00    +0.000 C 
ATOM      8  C   UNL     1       5.858   3.347  12.380  0.00  0.00    +0.000 C 
ATOM      9  N   UNL     1       5.237   3.505  13.507  0.00  0.00    +0.000 NA
ATOM     10  N   UNL     1       6.021   4.374  14.242  0.00  0.00    +0.000 N 
ATOM     11  C   UNL     1       7.181   4.801  13.582  0.00  0.00    +0.000 C 
ATOM     12  O   UNL     1       8.031   5.618  13.896  0.00  0.00    +0.000 OA
ATOM     13  C   UNL     1       7.204   3.992  12.326  0.00  0.00    +0.000 C 
ENDBRANCH   1  10
BRANCH   4  14
ATOM     14  O   UNL     1       4.236   6.156  19.229  0.00  0.00    +0.000 OA
BRANCH  14  15
ATOM     15  C   UNL     1       2.910   6.680  19.339  0.00  0.00    +0.000 C 
BRANCH  15  16
ATOM     16  C   UNL     1       2.129   5.863  20.371  0.00  0.00    +0.000 C 
BRANCH  16  17
ATOM     17  C   UNL     1       2.807   4.515  20.630  0.00  0.00    +0.000 C 
BRANCH  17  18
ATOM     18  C   UNL     1       1.998   3.638  21.587  0.00  0.00    +0.000 C 
BRANCH  18  19
ATOM     19  C   UNL     1       0.897   2.879  20.845  0.00  0.00    +0.000 C 
BRANCH  19  20
ATOM     20  C   UNL     1       1.451   2.054  19.684  0.00  0.00    +0.000 C 
BRANCH  20  21
ATOM     21  O   UNL     1       0.770   2.461  18.500  0.00  0.00    +0.000 OA
BRANCH  21  22
ATOM     22  N   UNL     1       1.579   3.236  17.635  0.00  0.00    +0.000 N 
ATOM     23  O   UNL     1       1.176   4.378  17.364  0.00  0.00    +0.000 OA
ATOM     24  O   UNL     1       2.583   2.651  17.261  0.00  0.00    +0.000 OA
ENDBRANCH  21  22
ENDBRANCH  20  21
ENDBRANCH  19  20
ENDBRANCH  18  19
ENDBRANCH  17  18
ENDBRANCH  16  17
ENDBRANCH  15  16
ENDBRANCH  14  15
ENDBRANCH   4  14
TORSDOF 10
ENDMDL
MODEL 3
REMARK VINA RESULT:      -6.3      1.682      2.026
REMARK  Name = 
REMARK  11 active torsions:
REMARK  status: ('A' for Active; 'I' for Inactive)
REMARK    1  A    between atoms: C_1  and  C_2
REMARK    2  A    between atoms: N_4  and  C_5
REMARK    3  A    between atoms: C_8  and  O_9
REMARK    4  A    between atoms: O_9  and  C_10
REMARK    5  A    between atoms: C_10  and  C_11
REMARK    6  A    between atoms: C_11  and  C_12
REMARK    7  A    between atoms: C_12  and  C_13
REMARK    8  A    between atoms: C_13  and  C_14
REMARK    9  A    between atoms: C_14  and  C_15
REMARK   10  A    between atoms: C_15  and  O_16
REMARK   11  A    between atoms: O_16  and  N_17
REMARK                            x       y       z     vdW  Elec       q    Type
REMARK                         _______ _______ _______ _____ _____    ______ ____
ROOT
ATOM      1  C   UNL     1       5.385   5.008  15.742  0.00  0.00    +0.000 A 
ATOM      2  C   UNL     1       5.023   6.351  15.873  0.00  0.00    +0.000 A 
ATOM      3  C   UNL     1       4.479   6.830  17.065  0.00  0.00    +0.000 A 
ATOM      4  C   UNL     1       4.292   5.976  18.151  0.00  0.00    +0.000 A 
ATOM      5  C   UNL     1       4.684   4.640  18.041  0.00  0.00    +0.000 A 
ATOM      6  C   UNL     1       5.210   4.155  16.837  0.00  0.00    +0.000 A 
ENDROOT
BRANCH   1  10
ATOM      7  C   UNL     1       5.230   2.876  11.423  0.00  0.00    +0.000 C 
ATOM      8  C   UNL     1       5.768   3.564  12.628  0.00  0.00    +0.000 C 
ATOM      9  N   UNL     1       5.100   3.737  13.724  0.00  0.00    +0.000 NA
ATOM     10  N   UNL     1       5.901   4.530  14.524  0.00  0.00    +0.000 N 
ATOM     11  C   UNL     1       7.122   4.891  13.937  0.00  0.00    +0.000 C 
ATOM     12  O   UNL     1       8.008   5.638  14.319  0.00  0.00    +0.000 OA
ATOM     13  C   UNL     1       7.157   4.114  12.662  0.00  0.00    +0.000 C 
ENDBRANCH   1  10
BRANCH   4  14
ATOM     14  O   UNL     1       3.745   6.559  19.264  0.00  0.00    +0.000 OA
BRANCH  14  15
ATOM     15  C   UNL     1       2.384   6.217  19.539  0.00  0.00    +0.000 C 
BRANCH  15  16
ATOM     16  C   UNL     1       2.292   5.608  20.941  0.00  0.00    +0.000 C 
BRANCH  16  17
ATOM     17  C   UNL     1       1.423   4.347  20.935  0.00  0.00    +0.000 C 
BRANCH  17  18
ATOM     18  C   UNL     1       2.140   3.150  21.561  0.00  0.00    +0.000 C 
BRANCH  18  19
ATOM     19  C   UNL     1       3.167   2.556  20.596  0.00  0.00    +0.000 C 
BRANCH  19  20
ATOM     20  C   UNL     1       2.514   1.675  19.532  0.00  0.00    +0.000 C 
BRANCH  20  21
ATOM     21  O   UNL     1       2.464   2.424  18.321  0.00  0.00    +0.000 OA
BRANCH  21  22
ATOM     22  N   UNL     1       1.174   2.930  18.035  0.00  0.00    +0.000 N 
ATOM     23  O   UNL     1       0.209   2.270  18.450  0.00  0.00    +0.000 OA
ATOM     24  O   UNL     1       1.194   3.970  17.396  0.00  0.00    +0.000 OA
ENDBRANCH  21  22
ENDBRANCH  20  21
ENDBRANCH  19  20
ENDBRANCH  18  19
ENDBRANCH  17  18
ENDBRANCH  16  17
ENDBRANCH  15  16
ENDBRANCH  14  15
ENDBRANCH   4  14
TORSDOF 10
ENDMDL
MODEL 4
REMARK VINA RESULT:      -6.2      5.519      9.159
REMARK  Name = 
REMARK  11 active torsions:
REMARK  status: ('A' for Active; 'I' for Inactive)
REMARK    1  A    between atoms: C_1  and  C_2
REMARK    2  A    between atoms: N_4  and  C_5
REMARK    3  A    between atoms: C_8  and  O_9
REMARK    4  A    between atoms: O_9  and  C_10
REMARK    5  A    between atoms: C_10  and  C_11
REMARK    6  A    between atoms: C_11  and  C_12
REMARK    7  A    between atoms: C_12  and  C_13
REMARK    8  A    between atoms: C_13  and  C_14
REMARK    9  A    between atoms: C_14  and  C_15
REMARK   10  A    between atoms: C_15  and  O_16
REMARK   11  A    between atoms: O_16  and  N_17
REMARK                            x       y       z     vdW  Elec       q    Type
REMARK                         _______ _______ _______ _____ _____    ______ ____
ROOT
ATOM      1  C   UNL     1       4.248   4.708  18.421  0.00  0.00    +0.000 A 
ATOM      2  C   UNL     1       5.477   4.894  19.059  0.00  0.00    +0.000 A 
ATOM      3  C   UNL     1       6.426   5.774  18.538  0.00  0.00    +0.000 A 
ATOM      4  C   UNL     1       6.161   6.488  17.370  0.00  0.00    +0.000 A 
ATOM      5  C   UNL     1       4.922   6.336  16.746  0.00  0.00    +0.000 A 
ATOM      6  C   UNL     1       3.979   5.437  17.257  0.00  0.00    +0.000 A 
ENDROOT
BRANCH   1  10
ATOM      7  C   UNL     1       1.525   2.628  21.809  0.00  0.00    +0.000 C 
ATOM      8  C   UNL     1       2.144   2.907  20.485  0.00  0.00    +0.000 C 
ATOM      9  N   UNL     1       3.143   3.712  20.307  0.00  0.00    +0.000 NA
ATOM     10  N   UNL     1       3.313   3.793  18.938  0.00  0.00    +0.000 N 
ATOM     11  C   UNL     1       2.400   3.028  18.199  0.00  0.00    +0.000 C 
ATOM     12  O   UNL     1       2.213   2.939  16.997  0.00  0.00    +0.000 OA
ATOM     13  C   UNL     1       1.648   2.257  19.234  0.00  0.00    +0.000 C 
ENDBRANCH   1  10
BRANCH   4  14
ATOM     14  O   UNL     1       7.170   7.315  16.953  0.00  0.00    +0.000 OA
BRANCH  14  15
ATOM     15  C   UNL     1       8.067   7.765  17.971  0.00  0.00    +0.000 C 
BRANCH  15  16
ATOM     16  C   UNL     1       8.161   9.292  17.921  0.00  0.00    +0.000 C 
BRANCH  16  17
ATOM     17  C   UNL     1       9.048   9.825  19.050  0.00  0.00    +0.000 C 
BRANCH  17  18
ATOM     18  C   UNL     1       9.891  11.021  18.604  0.00  0.00    +0.000 C 
BRANCH  18  19
ATOM     19  C   UNL     1       9.249  12.340  19.033  0.00  0.00    +0.000 C 
BRANCH  19  20
ATOM     20  C   UNL     1       8.813  13.183  17.835  0.00  0.00    +0.000 C 
BRANCH  20  21
ATOM     21  O   UNL     1       9.691  14.302  17.750  0.00  0.00    +0.000 OA
BRANCH  21  22
ATOM     22  N   UNL     1       9.093  15.511  18.178  0.00  0.00    +0.000 N 
ATOM     23  O   UNL     1       7.960  15.761  17.739  0.00  0.00    +0.000 OA
ATOM     24  O   UNL     1       9.800  16.157  18.935  0.00  0.00    +0.000 OA
ENDBRANCH  21  22
ENDBRANCH  20  21
ENDBRANCH  19  20
ENDBRANCH  18  19
ENDBRANCH  17  18
ENDBRANCH  16  17
ENDBRANCH  15  16
ENDBRANCH  14  15
ENDBRANCH   4  14
TORSDOF 10
ENDMDL
MODEL 5
REMARK VINA RESULT:      -6.1      5.417      8.834
REMARK  Name = 
REMARK  11 active torsions:
REMARK  status: ('A' for Active; 'I' for Inactive)
REMARK    1  A    between atoms: C_1  and  C_2
REMARK    2  A    between atoms: N_4  and  C_5
REMARK    3  A    between atoms: C_8  and  O_9
REMARK    4  A    between atoms: O_9  and  C_10
REMARK    5  A    between atoms: C_10  and  C_11
REMARK    6  A    between atoms: C_11  and  C_12
REMARK    7  A    between atoms: C_12  and  C_13
REMARK    8  A    between atoms: C_13  and  C_14
REMARK    9  A    between atoms: C_14  and  C_15
REMARK   10  A    between atoms: C_15  and  O_16
REMARK   11  A    between atoms: O_16  and  N_17
REMARK                            x       y       z     vdW  Elec       q    Type
REMARK                         _______ _______ _______ _____ _____    ______ ____
ROOT
ATOM      1  C   UNL     1       3.881   4.803  18.278  0.00  0.00    +0.000 A 
ATOM      2  C   UNL     1       3.647   6.103  17.821  0.00  0.00    +0.000 A 
ATOM      3  C   UNL     1       4.686   6.871  17.296  0.00  0.00    +0.000 A 
ATOM      4  C   UNL     1       5.977   6.353  17.214  0.00  0.00    +0.000 A 
ATOM      5  C   UNL     1       6.213   5.043  17.635  0.00  0.00    +0.000 A 
ATOM      6  C   UNL     1       5.174   4.280  18.182  0.00  0.00    +0.000 A 
ENDROOT
BRANCH   1  10
ATOM      7  C   UNL     1       1.427   2.584  21.783  0.00  0.00    +0.000 C 
ATOM      8  C   UNL     1       1.800   3.077  20.429  0.00  0.00    +0.000 C 
ATOM      9  N   UNL     1       2.946   3.609  20.142  0.00  0.00    +0.000 NA
ATOM     10  N   UNL     1       2.831   4.051  18.837  0.00  0.00    +0.000 N 
ATOM     11  C   UNL     1       1.579   3.809  18.256  0.00  0.00    +0.000 C 
ATOM     12  O   UNL     1       1.116   4.137  17.176  0.00  0.00    +0.000 OA
ATOM     13  C   UNL     1       0.858   2.986  19.273  0.00  0.00    +0.000 C 
ENDBRANCH   1  10
BRANCH   4  14
ATOM     14  O   UNL     1       6.914   7.203  16.687  0.00  0.00    +0.000 OA
BRANCH  14  15
ATOM     15  C   UNL     1       7.916   7.664  17.596  0.00  0.00    +0.000 C 
BRANCH  15  16
ATOM     16  C   UNL     1       7.798   9.183  17.748  0.00  0.00    +0.000 C 
BRANCH  16  17
ATOM     17  C   UNL     1       8.878   9.726  18.687  0.00  0.00    +0.000 C 
BRANCH  17  18
ATOM     18  C   UNL     1       9.570  10.964  18.114  0.00  0.00    +0.000 C 
BRANCH  18  19
ATOM     19  C   UNL     1       9.222  12.215  18.921  0.00  0.00    +0.000 C 
BRANCH  19  20
ATOM     20  C   UNL     1       9.365  11.987  20.425  0.00  0.00    +0.000 C 
BRANCH  20  21
ATOM     21  O   UNL     1      10.513  12.707  20.865  0.00  0.00    +0.000 OA
BRANCH  21  22
ATOM     22  N   UNL     1      10.194  13.952  21.458  0.00  0.00    +0.000 N 
ATOM     23  O   UNL     1       9.346  13.940  22.363  0.00  0.00    +0.000 OA
ATOM     24  O   UNL     1      10.810  14.888  20.975  0.00  0.00    +0.000 OA
ENDBRANCH  21  22
ENDBRANCH  20  21
ENDBRANCH  19  20
ENDBRANCH  18  19
ENDBRANCH  17  18
ENDBRANCH  16  17
ENDBRANCH  15  16
ENDBRANCH  14  15
ENDBRANCH   4  14
TORSDOF 10
ENDMDL
MODEL 6
REMARK VINA RESULT:      -6.0      3.072      4.432
REMARK  Name = 
REMARK  11 active torsions:
REMARK  status: ('A' for Active; 'I' for Inactive)
REMARK    1  A    between atoms: C_1  and  C_2
REMARK    2  A    between atoms: N_4  and  C_5
REMARK    3  A    between atoms: C_8  and  O_9
REMARK    4  A    between atoms: O_9  and  C_10
REMARK    5  A    between atoms: C_10  and  C_11
REMARK    6  A    between atoms: C_11  and  C_12
REMARK    7  A    between atoms: C_12  and  C_13
REMARK    8  A    between atoms: C_13  and  C_14
REMARK    9  A    between atoms: C_14  and  C_15
REMARK   10  A    between atoms: C_15  and  O_16
REMARK   11  A    between atoms: O_16  and  N_17
REMARK                            x       y       z     vdW  Elec       q    Type
REMARK                         _______ _______ _______ _____ _____    ______ ____
ROOT
ATOM      1  C   UNL     1       5.156   4.090  16.892  0.00  0.00    +0.000 A 
ATOM      2  C   UNL     1       3.850   3.598  16.804  0.00  0.00    +0.000 A 
ATOM      3  C   UNL     1       3.088   3.390  17.954  0.00  0.00    +0.000 A 
ATOM      4  C   UNL     1       3.615   3.674  19.213  0.00  0.00    +0.000 A 
ATOM      5  C   UNL     1       4.905   4.199  19.308  0.00  0.00    +0.000 A 
ATOM      6  C   UNL     1       5.677   4.387  18.156  0.00  0.00    +0.000 A 
ENDROOT
BRANCH   1  10
ATOM      7  C   UNL     1       6.335   3.496  12.258  0.00  0.00    +0.000 C 
ATOM      8  C   UNL     1       6.401   3.950  13.673  0.00  0.00    +0.000 C 
ATOM      9  N   UNL     1       5.646   3.488  14.619  0.00  0.00    +0.000 NA
ATOM     10  N   UNL     1       5.926   4.263  15.728  0.00  0.00    +0.000 N 
ATOM     11  C   UNL     1       6.884   5.262  15.505  0.00  0.00    +0.000 C 
ATOM     12  O   UNL     1       7.293   6.159  16.223  0.00  0.00    +0.000 OA
ATOM     13  C   UNL     1       7.372   4.995  14.118  0.00  0.00    +0.000 C 
ENDBRANCH   1  10
BRANCH   4  14
ATOM     14  O   UNL     1       2.775   3.423  20.266  0.00  0.00    +0.000 OA
BRANCH  14  15
ATOM     15  C   UNL     1       2.464   4.546  21.095  0.00  0.00    +0.000 C 
BRANCH  15  16
ATOM     16  C   UNL     1       1.486   5.462  20.356  0.00  0.00    +0.000 C 
BRANCH  16  17
ATOM     17  C   UNL     1       2.076   6.863  20.174  0.00  0.00    +0.000 C 
BRANCH  17  18
ATOM     18  C   UNL     1       2.727   7.039  18.801  0.00  0.00    +0.000 C 
BRANCH  18  19
ATOM     19  C   UNL     1       1.833   7.852  17.865  0.00  0.00    +0.000 C 
BRANCH  19  20
ATOM     20  C   UNL     1       1.995   9.356  18.079  0.00  0.00    +0.000 C 
BRANCH  20  21
ATOM     21  O   UNL     1       0.695   9.939  18.054  0.00  0.00    +0.000 OA
BRANCH  21  22
ATOM     22  N   UNL     1       0.158  10.151  19.347  0.00  0.00    +0.000 N 
ATOM     23  O   UNL     1       0.968  10.236  20.283  0.00  0.00    +0.000 OA
ATOM     24  O   UNL     1      -1.061  10.216  19.358  0.00  0.00    +0.000 OA
ENDBRANCH  21  22
ENDBRANCH  20  21
ENDBRANCH  19  20
ENDBRANCH  18  19
ENDBRANCH  17  18
ENDBRANCH  16  17
ENDBRANCH  15  16
ENDBRANCH  14  15
ENDBRANCH   4  14
TORSDOF 10
ENDMDL
MODEL 7
REMARK VINA RESULT:      -6.0      4.426      8.016
REMARK  Name = 
REMARK  11 active torsions:
REMARK  status: ('A' for Active; 'I' for Inactive)
REMARK    1  A    between atoms: C_1  and  C_2
REMARK    2  A    between atoms: N_4  and  C_5
REMARK    3  A    between atoms: C_8  and  O_9
REMARK    4  A    between atoms: O_9  and  C_10
REMARK    5  A    between atoms: C_10  and  C_11
REMARK    6  A    between atoms: C_11  and  C_12
REMARK    7  A    between atoms: C_12  and  C_13
REMARK    8  A    between atoms: C_13  and  C_14
REMARK    9  A    between atoms: C_14  and  C_15
REMARK   10  A    between atoms: C_15  and  O_16
REMARK   11  A    between atoms: O_16  and  N_17
REMARK                            x       y       z     vdW  Elec       q    Type
REMARK                         _______ _______ _______ _____ _____    ______ ____
ROOT
ATOM      1  C   UNL     1       1.412   9.199  19.300  0.00  0.00    +0.000 A 
ATOM      2  C   UNL     1       2.060   8.478  18.293  0.00  0.00    +0.000 A 
ATOM      3  C   UNL     1       2.561   7.200  18.541  0.00  0.00    +0.000 A 
ATOM      4  C   UNL     1       2.420   6.616  19.799  0.00  0.00    +0.000 A 
ATOM      5  C   UNL     1       1.742   7.314  20.801  0.00  0.00    +0.000 A 
ATOM      6  C   UNL     1       1.259   8.606  20.558  0.00  0.00    +0.000 A 
ENDROOT
BRANCH   1  10
ATOM      7  C   UNL     1       1.767  13.886  18.239  0.00  0.00    +0.000 C 
ATOM      8  C   UNL     1       1.167  12.570  18.588  0.00  0.00    +0.000 C 
ATOM      9  N   UNL     1       1.853  11.535  18.958  0.00  0.00    +0.000 NA
ATOM     10  N   UNL     1       0.942  10.500  19.048  0.00  0.00    +0.000 N 
ATOM     11  C   UNL     1      -0.373  10.862  18.723  0.00  0.00    +0.000 C 
ATOM     12  O   UNL     1      -1.388  10.193  18.614  0.00  0.00    +0.000 OA
ATOM     13  C   UNL     1      -0.309  12.343  18.541  0.00  0.00    +0.000 C 
ENDBRANCH   1  10
BRANCH   4  14
ATOM     14  O   UNL     1       2.957   5.362  19.923  0.00  0.00    +0.000 OA
BRANCH  14  15
ATOM     15  C   UNL     1       4.087   5.085  19.092  0.00  0.00    +0.000 C 
BRANCH  15  16
ATOM     16  C   UNL     1       3.902   3.717  18.430  0.00  0.00    +0.000 C 
BRANCH  16  17
ATOM     17  C   UNL     1       3.774   3.856  16.910  0.00  0.00    +0.000 C 
BRANCH  17  18
ATOM     18  C   UNL     1       4.740   4.898  16.344  0.00  0.00    +0.000 C 
BRANCH  18  19
ATOM     19  C   UNL     1       6.024   4.243  15.835  0.00  0.00    +0.000 C 
BRANCH  19  20
ATOM     20  C   UNL     1       7.255   4.712  16.610  0.00  0.00    +0.000 C 
BRANCH  20  21
ATOM     21  O   UNL     1       7.491   6.074  16.265  0.00  0.00    +0.000 OA
BRANCH  21  22
ATOM     22  N   UNL     1       7.594   6.922  17.394  0.00  0.00    +0.000 N 
ATOM     23  O   UNL     1       7.649   8.141  17.175  0.00  0.00    +0.000 OA
ATOM     24  O   UNL     1       7.621   6.314  18.452  0.00  0.00    +0.000 OA
ENDBRANCH  21  22
ENDBRANCH  20  21
ENDBRANCH  19  20
ENDBRANCH  18  19
ENDBRANCH  17  18
ENDBRANCH  16  17
ENDBRANCH  15  16
ENDBRANCH  14  15
ENDBRANCH   4  14
TORSDOF 10
ENDMDL
MODEL 8
REMARK VINA RESULT:      -6.0      0.666      1.239
REMARK  Name = 
REMARK  11 active torsions:
REMARK  status: ('A' for Active; 'I' for Inactive)
REMARK    1  A    between atoms: C_1  and  C_2
REMARK    2  A    between atoms: N_4  and  C_5
REMARK    3  A    between atoms: C_8  and  O_9
REMARK    4  A    between atoms: O_9  and  C_10
REMARK    5  A    between atoms: C_10  and  C_11
REMARK    6  A    between atoms: C_11  and  C_12
REMARK    7  A    between atoms: C_12  and  C_13
REMARK    8  A    between atoms: C_13  and  C_14
REMARK    9  A    between atoms: C_14  and  C_15
REMARK   10  A    between atoms: C_15  and  O_16
REMARK   11  A    between atoms: O_16  and  N_17
REMARK                            x       y       z     vdW  Elec       q    Type
REMARK                         _______ _______ _______ _____ _____    ______ ____
ROOT
ATOM      1  C   UNL     1       6.055   4.818  15.334  0.00  0.00    +0.000 A 
ATOM      2  C   UNL     1       6.397   4.066  16.461  0.00  0.00    +0.000 A 
ATOM      3  C   UNL     1       6.087   4.521  17.742  0.00  0.00    +0.000 A 
ATOM      4  C   UNL     1       5.426   5.735  17.921  0.00  0.00    +0.000 A 
ATOM      5  C   UNL     1       5.049   6.476  16.800  0.00  0.00    +0.000 A 
ATOM      6  C   UNL     1       5.379   6.030  15.515  0.00  0.00    +0.000 A 
ENDROOT
BRANCH   1  10
ATOM      7  C   UNL     1       5.436   2.474  11.169  0.00  0.00    +0.000 C 
ATOM      8  C   UNL     1       6.074   3.297  12.233  0.00  0.00    +0.000 C 
ATOM      9  N   UNL     1       5.604   3.420  13.434  0.00  0.00    +0.000 NA
ATOM     10  N   UNL     1       6.403   4.365  14.048  0.00  0.00    +0.000 N 
ATOM     11  C   UNL     1       7.419   4.879  13.230  0.00  0.00    +0.000 C 
ATOM     12  O   UNL     1       8.229   5.771  13.419  0.00  0.00    +0.000 OA
ATOM     13  C   UNL     1       7.339   4.054  11.987  0.00  0.00    +0.000 C 
ENDBRANCH   1  10
BRANCH   4  14
ATOM     14  O   UNL     1       5.182   6.079  19.225  0.00  0.00    +0.000 OA
BRANCH  14  15
ATOM     15  C   UNL     1       3.988   5.540  19.798  0.00  0.00    +0.000 C 
BRANCH  15  16
ATOM     16  C   UNL     1       2.797   6.411  19.391  0.00  0.00    +0.000 C 
BRANCH  16  17
ATOM     17  C   UNL     1       1.975   5.736  18.290  0.00  0.00    +0.000 C 
BRANCH  17  18
ATOM     18  C   UNL     1       2.368   4.271  18.093  0.00  0.00    +0.000 C 
BRANCH  18  19
ATOM     19  C   UNL     1       1.156   3.349  18.230  0.00  0.00    +0.000 C 
BRANCH  19  20
ATOM     20  C   UNL     1       1.499   2.054  18.965  0.00  0.00    +0.000 C 
BRANCH  20  21
ATOM     21  O   UNL     1       2.513   2.353  19.920  0.00  0.00    +0.000 OA
BRANCH  21  22
ATOM     22  N   UNL     1       1.999   2.593  21.217  0.00  0.00    +0.000 N 
ATOM     23  O   UNL     1       0.766   2.568  21.344  0.00  0.00    +0.000 OA
ATOM     24  O   UNL     1       2.868   2.802  22.049  0.00  0.00    +0.000 OA
ENDBRANCH  21  22
ENDBRANCH  20  21
ENDBRANCH  19  20
ENDBRANCH  18  19
ENDBRANCH  17  18
ENDBRANCH  16  17
ENDBRANCH  15  16
ENDBRANCH  14  15
ENDBRANCH   4  14
TORSDOF 10
ENDMDL
MODEL 9
REMARK VINA RESULT:      -6.0      1.714      1.991
REMARK  Name = 
REMARK  11 active torsions:
REMARK  status: ('A' for Active; 'I' for Inactive)
REMARK    1  A    between atoms: C_1  and  C_2
REMARK    2  A    between atoms: N_4  and  C_5
REMARK    3  A    between atoms: C_8  and  O_9
REMARK    4  A    between atoms: O_9  and  C_10
REMARK    5  A    between atoms: C_10  and  C_11
REMARK    6  A    between atoms: C_11  and  C_12
REMARK    7  A    between atoms: C_12  and  C_13
REMARK    8  A    between atoms: C_13  and  C_14
REMARK    9  A    between atoms: C_14  and  C_15
REMARK   10  A    between atoms: C_15  and  O_16
REMARK   11  A    between atoms: O_16  and  N_17
REMARK                            x       y       z     vdW  Elec       q    Type
REMARK                         _______ _______ _______ _____ _____    ______ ____
ROOT
ATOM      1  C   UNL     1       5.245   4.961  15.477  0.00  0.00    +0.000 A 
ATOM      2  C   UNL     1       5.219   6.338  15.711  0.00  0.00    +0.000 A 
ATOM      3  C   UNL     1       4.605   6.856  16.851  0.00  0.00    +0.000 A 
ATOM      4  C   UNL     1       4.009   6.006  17.782  0.00  0.00    +0.000 A 
ATOM      5  C   UNL     1       4.062   4.626  17.574  0.00  0.00    +0.000 A 
ATOM      6  C   UNL     1       4.659   4.108  16.418  0.00  0.00    +0.000 A 
ENDROOT
BRANCH   1  10
ATOM      7  C   UNL     1       5.379   2.662  11.243  0.00  0.00    +0.000 C 
ATOM      8  C   UNL     1       5.833   3.413  12.445  0.00  0.00    +0.000 C 
ATOM      9  N   UNL     1       5.104   3.605  13.499  0.00  0.00    +0.000 NA
ATOM     10  N   UNL     1       5.838   4.453  14.306  0.00  0.00    +0.000 N 
ATOM     11  C   UNL     1       7.076   4.831  13.769  0.00  0.00    +0.000 C 
ATOM     12  O   UNL     1       7.918   5.620  14.165  0.00  0.00    +0.000 OA
ATOM     13  C   UNL     1       7.202   4.008  12.528  0.00  0.00    +0.000 C 
ENDBRANCH   1  10
BRANCH   4  14
ATOM     14  O   UNL     1       3.433   6.630  18.857  0.00  0.00    +0.000 OA
BRANCH  14  15
ATOM     15  C   UNL     1       3.186   5.804  19.997  0.00  0.00    +0.000 C 
BRANCH  15  16
ATOM     16  C   UNL     1       1.721   5.949  20.417  0.00  0.00    +0.000 C 
BRANCH  16  17
ATOM     17  C   UNL     1       1.017   4.590  20.432  0.00  0.00    +0.000 C 
BRANCH  17  18
ATOM     18  C   UNL     1       1.960   3.458  20.842  0.00  0.00    +0.000 C 
BRANCH  18  19
ATOM     19  C   UNL     1       1.776   2.233  19.946  0.00  0.00    +0.000 C 
BRANCH  19  20
ATOM     20  C   UNL     1       2.965   2.022  19.010  0.00  0.00    +0.000 C 
BRANCH  20  21
ATOM     21  O   UNL     1       3.906   1.192  19.685  0.00  0.00    +0.000 OA
BRANCH  21  22
ATOM     22  N   UNL     1       4.915   1.928  20.353  0.00  0.00    +0.000 N 
ATOM     23  O   UNL     1       5.295   2.976  19.810  0.00  0.00    +0.000 OA
ATOM     24  O   UNL     1       5.281   1.407  21.394  0.00  0.00    +0.000 OA
ENDBRANCH  21  22
ENDBRANCH  20  21
ENDBRANCH  19  20
ENDBRANCH  18  19
ENDBRANCH  17  18
ENDBRANCH  16  17
ENDBRANCH  15  16
ENDBRANCH  14  15
ENDBRANCH   4  14
TORSDOF 10
ENDMDL
