MODEL 1
REMARK VINA RESULT:      -7.4      0.000      0.000
REMARK  Name = 
REMARK  6 active torsions:
REMARK  status: ('A' for Active; 'I' for Inactive)
REMARK    1  A    between atoms: C_5  and  N_6
REMARK    2  A    between atoms: C_9  and  O_10
REMARK    3  A    between atoms: O_10  and  C_11
REMARK    4  A    between atoms: C_11  and  C_12
REMARK    5  A    between atoms: C_12  and  C_13
REMARK    6  A    between atoms: C_13  and  N_14
REMARK                            x       y       z     vdW  Elec       q    Type
REMARK                         _______ _______ _______ _____ _____    ______ ____
ROOT
ATOM      1  N   UNL     1       5.418   4.743  17.594  0.00  0.00    +0.000 N 
ATOM      2  C   UNL     1       6.092   4.322  16.465  0.00  0.00    +0.000 A 
ATOM      3  C   UNL     1       7.226   5.089  16.360  0.00  0.00    +0.000 A 
ATOM      4  C   UNL     1       7.174   5.926  17.478  0.00  0.00    +0.000 A 
ATOM      5  N   UNL     1       6.087   5.748  18.224  0.00  0.00    +0.000 NA
ENDROOT
BRANCH   1  10
ATOM      6 CL   UNL     1       0.220   2.682  19.662  0.00  0.00    +0.000 Cl
ATOM      7  C   UNL     1       1.748   3.270  19.111  0.00  0.00    +0.000 A 
ATOM      8  C   UNL     1       1.813   3.783  17.812  0.00  0.00    +0.000 A 
ATOM      9  C   UNL     1       3.020   4.275  17.306  0.00  0.00    +0.000 A 
ATOM     10  C   UNL     1       4.178   4.249  18.096  0.00  0.00    +0.000 A 
ATOM     11  C   UNL     1       4.112   3.732  19.399  0.00  0.00    +0.000 A 
ATOM     12  C   UNL     1       2.899   3.248  19.906  0.00  0.00    +0.000 A 
ATOM     13 CL   UNL     1       2.884   2.643  21.525  0.00  0.00    +0.000 Cl
ENDBRANCH   1  10
BRANCH   4  14
ATOM     14  O   UNL     1       8.065   6.897  17.751  0.00  0.00    +0.000 OA
BRANCH  14  15
ATOM     15  C   UNL     1       7.565   8.229  17.588  0.00  0.00    +0.000 C 
BRANCH  15  16
ATOM     16  C   UNL     1       8.518   9.135  18.367  0.00  0.00    +0.000 C 
BRANCH  16  17
ATOM     17  C   UNL     1       8.605  10.564  17.827  0.00  0.00    +0.000 C 
BRANCH  17  18
ATOM     18  N   UNL     1       9.533  11.452  18.548  0.00  0.00    +0.000 NA
ATOM     19  C   UNL     1       9.800  10.987  19.920  0.00  0.00    +0.000 C 
ATOM     20  C   UNL     1      10.738  11.944  20.658  0.00  0.00    +0.000 C 
ATOM     21  C   UNL     1      12.047  12.133  19.902  0.00  0.00    +0.000 C 
ATOM     22  C   UNL     1      11.768  12.535  18.459  0.00  0.00    +0.000 C 
ATOM     23  C   UNL     1      10.795  11.564  17.791  0.00  0.00    +0.000 C 
ENDBRANCH  17  18
ENDBRANCH  16  17
ENDBRANCH  15  16
ENDBRANCH  14  15
ENDBRANCH   4  14
TORSDOF 6
ENDMDL
MODEL 2
REMARK VINA RESULT:      -7.4      6.123      8.766
REMARK  Name = 
REMARK  6 active torsions:
REMARK  status: ('A' for Active; 'I' for Inactive)
REMARK    1  A    between atoms: C_5  and  N_6
REMARK    2  A    between atoms: C_9  and  O_10
REMARK    3  A    between atoms: O_10  and  C_11
REMARK    4  A    between atoms: C_11  and  C_12
REMARK    5  A    between atoms: C_12  and  C_13
REMARK    6  A    between atoms: C_13  and  N_14
REMARK                            x       y       z     vdW  Elec       q    Type
REMARK                         _______ _______ _______ _____ _____    ______ ____
ROOT
ATOM      1  N   UNL     1       1.829   8.465  19.284  0.00  0.00    +0.000 N 
ATOM      2  C   UNL     1       2.097   8.833  17.981  0.00  0.00    +0.000 A 
ATOM      3  C   UNL     1       2.944   7.887  17.459  0.00  0.00    +0.000 A 
ATOM      4  C   UNL     1       3.113   6.971  18.500  0.00  0.00    +0.000 A 
ATOM      5  N   UNL     1       2.466   7.308  19.613  0.00  0.00    +0.000 NA
ENDROOT
BRANCH   1  10
ATOM      6 CL   UNL     1      -1.574  11.331  23.253  0.00  0.00    +0.000 Cl
ATOM      7  C   UNL     1      -0.609  10.531  22.065  0.00  0.00    +0.000 A 
ATOM      8  C   UNL     1       0.193   9.469  22.491  0.00  0.00    +0.000 A 
ATOM      9  C   UNL     1       0.997   8.779  21.578  0.00  0.00    +0.000 A 
ATOM     10  C   UNL     1       1.012   9.155  20.227  0.00  0.00    +0.000 A 
ATOM     11  C   UNL     1       0.209  10.224  19.801  0.00  0.00    +0.000 A 
ATOM     12  C   UNL     1      -0.603  10.906  20.717  0.00  0.00    +0.000 A 
ATOM     13 CL   UNL     1      -1.582  12.200  20.120  0.00  0.00    +0.000 Cl
ENDBRANCH   1  10
BRANCH   4  14
ATOM     14  O   UNL     1       3.923   5.896  18.452  0.00  0.00    +0.000 OA
BRANCH  14  15
ATOM     15  C   UNL     1       4.165   5.390  17.135  0.00  0.00    +0.000 C 
BRANCH  15  16
ATOM     16  C   UNL     1       4.270   3.873  17.279  0.00  0.00    +0.000 C 
BRANCH  16  17
ATOM     17  C   UNL     1       2.920   3.156  17.363  0.00  0.00    +0.000 C 
BRANCH  17  18
ATOM     18  N   UNL     1       2.488   2.787  18.722  0.00  0.00    +0.000 NA
ATOM     19  C   UNL     1       3.583   2.887  19.703  0.00  0.00    +0.000 C 
ATOM     20  C   UNL     1       3.119   2.465  21.098  0.00  0.00    +0.000 C 
ATOM     21  C   UNL     1       1.922   3.286  21.559  0.00  0.00    +0.000 C 
ATOM     22  C   UNL     1       0.821   3.249  20.506  0.00  0.00    +0.000 C 
ATOM     23  C   UNL     1       1.356   3.641  19.129  0.00  0.00    +0.000 C 
ENDBRANCH  17  18
ENDBRANCH  16  17
ENDBRANCH  15  16
ENDBRANCH  14  15
ENDBRANCH   4  14
TORSDOF 6
ENDMDL
MODEL 3
REMARK VINA RESULT:      -7.3      1.559      2.060
REMARK  Name = 
REMARK  6 active torsions:
REMARK  status: ('A' for Active; 'I' for Inactive)
REMARK    1  A    between atoms: C_5  and  N_6
REMARK    2  A    between atoms: C_9  and  O_10
REMARK    3  A    between atoms: O_10  and  C_11
REMARK    4  A    between atoms: C_11  and  C_12
REMARK    5  A    between atoms: C_12  and  C_13
REMARK    6  A    between atoms: C_13  and  N_14
REMARK                            x       y       z     vdW  Elec       q    Type
REMARK                         _______ _______ _______ _____ _____    ______ ____
ROOT
ATOM      1  N   UNL     1       5.957   5.758  18.432  0.00  0.00    +0.000 N 
ATOM      2  C   UNL     1       7.080   5.490  19.189  0.00  0.00    +0.000 A 
ATOM      3  C   UNL     1       8.040   6.402  18.827  0.00  0.00    +0.000 A 
ATOM      4  C   UNL     1       7.407   7.200  17.870  0.00  0.00    +0.000 A 
ATOM      5  N   UNL     1       6.160   6.820  17.604  0.00  0.00    +0.000 NA
ENDROOT
BRANCH   1  10
ATOM      6 CL   UNL     1       0.744   2.865  18.502  0.00  0.00    +0.000 Cl
ATOM      7  C   UNL     1       2.280   3.656  18.485  0.00  0.00    +0.000 A 
ATOM      8  C   UNL     1       2.287   5.054  18.477  0.00  0.00    +0.000 A 
ATOM      9  C   UNL     1       3.497   5.755  18.464  0.00  0.00    +0.000 A 
ATOM     10  C   UNL     1       4.714   5.059  18.450  0.00  0.00    +0.000 A 
ATOM     11  C   UNL     1       4.705   3.656  18.454  0.00  0.00    +0.000 A 
ATOM     12  C   UNL     1       3.492   2.957  18.477  0.00  0.00    +0.000 A 
ATOM     13 CL   UNL     1       3.554   1.230  18.501  0.00  0.00    +0.000 Cl
ENDBRANCH   1  10
BRANCH   4  14
ATOM     14  O   UNL     1       8.001   8.199  17.191  0.00  0.00    +0.000 OA
BRANCH  14  15
ATOM     15  C   UNL     1       7.895   9.486  17.809  0.00  0.00    +0.000 C 
BRANCH  15  16
ATOM     16  C   UNL     1       9.144   9.641  18.675  0.00  0.00    +0.000 C 
BRANCH  16  17
ATOM     17  C   UNL     1       9.158  10.908  19.533  0.00  0.00    +0.000 C 
BRANCH  17  18
ATOM     18  N   UNL     1       9.994  12.007  19.018  0.00  0.00    +0.000 NA
ATOM     19  C   UNL     1      11.032  11.530  18.088  0.00  0.00    +0.000 C 
ATOM     20  C   UNL     1      11.907  12.684  17.595  0.00  0.00    +0.000 C 
ATOM     21  C   UNL     1      11.072  13.775  16.938  0.00  0.00    +0.000 C 
ATOM     22  C   UNL     1       9.947  14.210  17.869  0.00  0.00    +0.000 C 
ATOM     23  C   UNL     1       9.136  13.010  18.359  0.00  0.00    +0.000 C 
ENDBRANCH  17  18
ENDBRANCH  16  17
ENDBRANCH  15  16
ENDBRANCH  14  15
ENDBRANCH   4  14
TORSDOF 6
ENDMDL
MODEL 4
REMARK VINA RESULT:      -7.2      4.607      9.580
REMARK  Name = 
REMARK  6 active torsions:
REMARK  status: ('A' for Active; 'I' for Inactive)
REMARK    1  A    between atoms: C_5  and  N_6
REMARK    2  A    between atoms: C_9  and  O_10
REMARK    3  A    between atoms: O_10  and  C_11
REMARK    4  A    between atoms: C_11  and  C_12
REMARK    5  A    between atoms: C_12  and  C_13
REMARK    6  A    between atoms: C_13  and  N_14
REMARK                            x       y       z     vdW  Elec       q    Type
REMARK                         _______ _______ _______ _____ _____    ______ ____
ROOT
ATOM      1  N   UNL     1       8.507   8.867  18.486  0.00  0.00    +0.000 N 
ATOM      2  C   UNL     1       8.646   7.630  19.084  0.00  0.00    +0.000 A 
ATOM      3  C   UNL     1       7.831   6.758  18.404  0.00  0.00    +0.000 A 
ATOM      4  C   UNL     1       7.259   7.541  17.398  0.00  0.00    +0.000 A 
ATOM      5  N   UNL     1       7.638   8.817  17.439  0.00  0.00    +0.000 NA
ENDROOT
BRANCH   1  10
ATOM      6 CL   UNL     1      11.176  13.952  20.086  0.00  0.00    +0.000 Cl
ATOM      7  C   UNL     1      10.410  12.492  19.571  0.00  0.00    +0.000 A 
ATOM      8  C   UNL     1       9.887  11.653  20.559  0.00  0.00    +0.000 A 
ATOM      9  C   UNL     1       9.253  10.457  20.208  0.00  0.00    +0.000 A 
ATOM     10  C   UNL     1       9.145  10.085  18.861  0.00  0.00    +0.000 A 
ATOM     11  C   UNL     1       9.674  10.927  17.870  0.00  0.00    +0.000 A 
ATOM     12  C   UNL     1      10.300  12.130  18.225  0.00  0.00    +0.000 A 
ATOM     13 CL   UNL     1      10.910  13.128  16.953  0.00  0.00    +0.000 Cl
ENDBRANCH   1  10
BRANCH   4  14
ATOM     14  O   UNL     1       6.337   7.107  16.519  0.00  0.00    +0.000 OA
BRANCH  14  15
ATOM     15  C   UNL     1       5.984   5.727  16.658  0.00  0.00    +0.000 C 
BRANCH  15  16
ATOM     16  C   UNL     1       4.464   5.694  16.810  0.00  0.00    +0.000 C 
BRANCH  16  17
ATOM     17  C   UNL     1       3.970   5.987  18.229  0.00  0.00    +0.000 C 
BRANCH  17  18
ATOM     18  N   UNL     1       2.708   5.326  18.604  0.00  0.00    +0.000 NA
ATOM     19  C   UNL     1       2.591   3.976  18.026  0.00  0.00    +0.000 C 
ATOM     20  C   UNL     1       1.258   3.326  18.400  0.00  0.00    +0.000 C 
ATOM     21  C   UNL     1       1.071   3.270  19.911  0.00  0.00    +0.000 C 
ATOM     22  C   UNL     1       1.273   4.653  20.518  0.00  0.00    +0.000 C 
ATOM     23  C   UNL     1       2.601   5.265  20.074  0.00  0.00    +0.000 C 
ENDBRANCH  17  18
ENDBRANCH  16  17
ENDBRANCH  15  16
ENDBRANCH  14  15
ENDBRANCH   4  14
TORSDOF 6
ENDMDL
MODEL 5
REMARK VINA RESULT:      -7.2      5.419      7.475
REMARK  Name = 
REMARK  6 active torsions:
REMARK  status: ('A' for Active; 'I' for Inactive)
REMARK    1  A    between atoms: C_5  and  N_6
REMARK    2  A    between atoms: C_9  and  O_10
REMARK    3  A    between atoms: O_10  and  C_11
REMARK    4  A    between atoms: C_11  and  C_12
REMARK    5  A    between atoms: C_12  and  C_13
REMARK    6  A    between atoms: C_13  and  N_14
REMARK                            x       y       z     vdW  Elec       q    Type
REMARK                         _______ _______ _______ _____ _____    ______ ____
ROOT
ATOM      1  N   UNL     1       1.650   8.111  19.917  0.00  0.00    +0.000 N 
ATOM      2  C   UNL     1       2.190   8.223  18.650  0.00  0.00    +0.000 A 
ATOM      3  C   UNL     1       2.775   7.018  18.351  0.00  0.00    +0.000 A 
ATOM      4  C   UNL     1       2.521   6.228  19.475  0.00  0.00    +0.000 A 
ATOM      5  N   UNL     1       1.861   6.871  20.436  0.00  0.00    +0.000 NA
ENDROOT
BRANCH   1  10
ATOM      6 CL   UNL     1      -1.242  12.294  23.028  0.00  0.00    +0.000 Cl
ATOM      7  C   UNL     1      -0.404  11.115  22.084  0.00  0.00    +0.000 A 
ATOM      8  C   UNL     1      -0.130   9.882  22.684  0.00  0.00    +0.000 A 
ATOM      9  C   UNL     1       0.543   8.884  21.973  0.00  0.00    +0.000 A 
ATOM     10  C   UNL     1       0.958   9.116  20.654  0.00  0.00    +0.000 A 
ATOM     11  C   UNL     1       0.685  10.355  20.054  0.00  0.00    +0.000 A 
ATOM     12  C   UNL     1       0.001  11.349  20.766  0.00  0.00    +0.000 A 
ATOM     13 CL   UNL     1      -0.319  12.845  19.960  0.00  0.00    +0.000 Cl
ENDBRANCH   1  10
BRANCH   4  14
ATOM     14  O   UNL     1       2.969   4.971  19.647  0.00  0.00    +0.000 OA
BRANCH  14  15
ATOM     15  C   UNL     1       2.578   4.053  18.621  0.00  0.00    +0.000 C 
BRANCH  15  16
ATOM     16  C   UNL     1       3.849   3.309  18.214  0.00  0.00    +0.000 C 
BRANCH  16  17
ATOM     17  C   UNL     1       5.063   3.614  19.095  0.00  0.00    +0.000 C 
BRANCH  17  18
ATOM     18  N   UNL     1       6.140   4.374  18.438  0.00  0.00    +0.000 NA
ATOM     19  C   UNL     1       5.720   4.931  17.141  0.00  0.00    +0.000 C 
ATOM     20  C   UNL     1       6.866   5.685  16.463  0.00  0.00    +0.000 C 
ATOM     21  C   UNL     1       7.411   6.790  17.359  0.00  0.00    +0.000 C 
ATOM     22  C   UNL     1       7.769   6.228  18.729  0.00  0.00    +0.000 C 
ATOM     23  C   UNL     1       6.599   5.453  19.334  0.00  0.00    +0.000 C 
ENDBRANCH  17  18
ENDBRANCH  16  17
ENDBRANCH  15  16
ENDBRANCH  14  15
ENDBRANCH   4  14
TORSDOF 6
ENDMDL
MODEL 6
REMARK VINA RESULT:      -7.2      1.374      1.610
REMARK  Name = 
REMARK  6 active torsions:
REMARK  status: ('A' for Active; 'I' for Inactive)
REMARK    1  A    between atoms: C_5  and  N_6
REMARK    2  A    between atoms: C_9  and  O_10
REMARK    3  A    between atoms: O_10  and  C_11
REMARK    4  A    between atoms: C_11  and  C_12
REMARK    5  A    between atoms: C_12  and  C_13
REMARK    6  A    between atoms: C_13  and  N_14
REMARK                            x       y       z     vdW  Elec       q    Type
REMARK                         _______ _______ _______ _____ _____    ______ ____
ROOT
ATOM      1  N   UNL     1       5.372   5.267  17.411  0.00  0.00    +0.000 N 
ATOM      2  C   UNL     1       6.490   4.708  16.825  0.00  0.00    +0.000 A 
ATOM      3  C   UNL     1       7.385   5.726  16.605  0.00  0.00    +0.000 A 
ATOM      4  C   UNL     1       6.741   6.858  17.111  0.00  0.00    +0.000 A 
ATOM      5  N   UNL     1       5.522   6.609  17.585  0.00  0.00    +0.000 NA
ENDROOT
BRANCH   1  10
ATOM      6 CL   UNL     1       0.375   2.446  19.029  0.00  0.00    +0.000 Cl
ATOM      7  C   UNL     1       1.813   3.300  18.598  0.00  0.00    +0.000 A 
ATOM      8  C   UNL     1       2.549   2.820  17.511  0.00  0.00    +0.000 A 
ATOM      9  C   UNL     1       3.722   3.466  17.110  0.00  0.00    +0.000 A 
ATOM     10  C   UNL     1       4.175   4.598  17.803  0.00  0.00    +0.000 A 
ATOM     11  C   UNL     1       3.437   5.077  18.896  0.00  0.00    +0.000 A 
ATOM     12  C   UNL     1       2.256   4.433  19.288  0.00  0.00    +0.000 A 
ATOM     13 CL   UNL     1       1.386   5.088  20.631  0.00  0.00    +0.000 Cl
ENDBRANCH   1  10
BRANCH   4  14
ATOM     14  O   UNL     1       7.232   8.110  17.052  0.00  0.00    +0.000 OA
BRANCH  14  15
ATOM     15  C   UNL     1       8.203   8.418  18.057  0.00  0.00    +0.000 C 
BRANCH  15  16
ATOM     16  C   UNL     1       8.247   9.943  18.148  0.00  0.00    +0.000 C 
BRANCH  16  17
ATOM     17  C   UNL     1       9.598  10.505  18.596  0.00  0.00    +0.000 C 
BRANCH  17  18
ATOM     18  N   UNL     1      10.002  11.764  17.947  0.00  0.00    +0.000 NA
ATOM     19  C   UNL     1       9.415  12.945  18.604  0.00  0.00    +0.000 C 
ATOM     20  C   UNL     1       9.819  14.235  17.890  0.00  0.00    +0.000 C 
ATOM     21  C   UNL     1      11.334  14.376  17.810  0.00  0.00    +0.000 C 
ATOM     22  C   UNL     1      11.948  13.119  17.205  0.00  0.00    +0.000 C 
ATOM     23  C   UNL     1      11.474  11.863  17.935  0.00  0.00    +0.000 C 
ENDBRANCH  17  18
ENDBRANCH  16  17
ENDBRANCH  15  16
ENDBRANCH  14  15
ENDBRANCH   4  14
TORSDOF 6
ENDMDL
MODEL 7
REMARK VINA RESULT:      -7.2      5.369      7.379
REMARK  Name = 
REMARK  6 active torsions:
REMARK  status: ('A' for Active; 'I' for Inactive)
REMARK    1  A    between atoms: C_5  and  N_6
REMARK    2  A    between atoms: C_9  and  O_10
REMARK    3  A    between atoms: O_10  and  C_11
REMARK    4  A    between atoms: C_11  and  C_12
REMARK    5  A    between atoms: C_12  and  C_13
REMARK    6  A    between atoms: C_13  and  N_14
REMARK                            x       y       z     vdW  Elec       q    Type
REMARK                         _______ _______ _______ _____ _____    ______ ____
ROOT
ATOM      1  N   UNL     1       1.679   8.484  19.328  0.00  0.00    +0.000 N 
ATOM      2  C   UNL     1       2.340   8.422  18.117  0.00  0.00    +0.000 A 
ATOM      3  C   UNL     1       2.985   7.211  18.068  0.00  0.00    +0.000 A 
ATOM      4  C   UNL     1       2.639   6.594  19.273  0.00  0.00    +0.000 A 
ATOM      5  N   UNL     1       1.869   7.348  20.053  0.00  0.00    +0.000 NA
ENDROOT
BRANCH   1  10
ATOM      6 CL   UNL     1      -1.621  13.000  21.392  0.00  0.00    +0.000 Cl
ATOM      7  C   UNL     1      -0.669  11.668  20.841  0.00  0.00    +0.000 A 
ATOM      8  C   UNL     1      -0.145  11.738  19.547  0.00  0.00    +0.000 A 
ATOM      9  C   UNL     1       0.634  10.693  19.042  0.00  0.00    +0.000 A 
ATOM     10  C   UNL     1       0.890   9.560  19.829  0.00  0.00    +0.000 A 
ATOM     11  C   UNL     1       0.361   9.490  21.127  0.00  0.00    +0.000 A 
ATOM     12  C   UNL     1      -0.411  10.543  21.633  0.00  0.00    +0.000 A 
ATOM     13 CL   UNL     1      -1.015  10.400  23.247  0.00  0.00    +0.000 Cl
ENDBRANCH   1  10
BRANCH   4  14
ATOM     14  O   UNL     1       3.101   5.397  19.682  0.00  0.00    +0.000 OA
BRANCH  14  15
ATOM     15  C   UNL     1       2.527   4.274  19.005  0.00  0.00    +0.000 C 
BRANCH  15  16
ATOM     16  C   UNL     1       3.702   3.471  18.449  0.00  0.00    +0.000 C 
BRANCH  16  17
ATOM     17  C   UNL     1       5.004   3.638  19.238  0.00  0.00    +0.000 C 
BRANCH  17  18
ATOM     18  N   UNL     1       6.084   4.341  18.525  0.00  0.00    +0.000 NA
ATOM     19  C   UNL     1       5.666   4.799  17.189  0.00  0.00    +0.000 C 
ATOM     20  C   UNL     1       6.815   5.494  16.456  0.00  0.00    +0.000 C 
ATOM     21  C   UNL     1       7.366   6.662  17.265  0.00  0.00    +0.000 C 
ATOM     22  C   UNL     1       7.721   6.204  18.675  0.00  0.00    +0.000 C 
ATOM     23  C   UNL     1       6.548   5.482  19.337  0.00  0.00    +0.000 C 
ENDBRANCH  17  18
ENDBRANCH  16  17
ENDBRANCH  15  16
ENDBRANCH  14  15
ENDBRANCH   4  14
TORSDOF 6
ENDMDL
MODEL 8
REMARK VINA RESULT:      -7.2      4.382      9.423
REMARK  Name = 
REMARK  6 active torsions:
REMARK  status: ('A' for Active; 'I' for Inactive)
REMARK    1  A    between atoms: C_5  and  N_6
REMARK    2  A    between atoms: C_9  and  O_10
REMARK    3  A    between atoms: O_10  and  C_11
REMARK    4  A    between atoms: C_11  and  C_12
REMARK    5  A    between atoms: C_12  and  C_13
REMARK    6  A    between atoms: C_13  and  N_14
REMARK                            x       y       z     vdW  Elec       q    Type
REMARK                         _______ _______ _______ _____ _____    ______ ____
ROOT
ATOM      1  N   UNL     1       8.164   8.746  18.091  0.00  0.00    +0.000 N 
ATOM      2  C   UNL     1       8.483   7.639  18.853  0.00  0.00    +0.000 A 
ATOM      3  C   UNL     1       7.785   6.576  18.335  0.00  0.00    +0.000 A 
ATOM      4  C   UNL     1       7.095   7.120  17.248  0.00  0.00    +0.000 A 
ATOM      5  N   UNL     1       7.295   8.427  17.093  0.00  0.00    +0.000 NA
ENDROOT
BRANCH   1  10
ATOM      6 CL   UNL     1      10.106  14.338  18.799  0.00  0.00    +0.000 Cl
ATOM      7  C   UNL     1       9.580  12.702  18.630  0.00  0.00    +0.000 A 
ATOM      8  C   UNL     1       8.577  12.439  17.692  0.00  0.00    +0.000 A 
ATOM      9  C   UNL     1       8.108  11.135  17.506  0.00  0.00    +0.000 A 
ATOM     10  C   UNL     1       8.635  10.081  18.266  0.00  0.00    +0.000 A 
ATOM     11  C   UNL     1       9.640  10.347  19.208  0.00  0.00    +0.000 A 
ATOM     12  C   UNL     1      10.114  11.653  19.386  0.00  0.00    +0.000 A 
ATOM     13 CL   UNL     1      11.367  11.906  20.549  0.00  0.00    +0.000 Cl
ENDBRANCH   1  10
BRANCH   4  14
ATOM     14  O   UNL     1       6.228   6.442  16.473  0.00  0.00    +0.000 OA
BRANCH  14  15
ATOM     15  C   UNL     1       4.861   6.537  16.885  0.00  0.00    +0.000 C 
BRANCH  15  16
ATOM     16  C   UNL     1       4.496   5.166  17.454  0.00  0.00    +0.000 C 
BRANCH  16  17
ATOM     17  C   UNL     1       4.369   5.134  18.979  0.00  0.00    +0.000 C 
BRANCH  17  18
ATOM     18  N   UNL     1       3.346   4.212  19.504  0.00  0.00    +0.000 NA
ATOM     19  C   UNL     1       2.116   4.915  19.909  0.00  0.00    +0.000 C 
ATOM     20  C   UNL     1       1.085   3.942  20.483  0.00  0.00    +0.000 C 
ATOM     21  C   UNL     1       0.756   2.831  19.493  0.00  0.00    +0.000 C 
ATOM     22  C   UNL     1       2.036   2.159  19.012  0.00  0.00    +0.000 C 
ATOM     23  C   UNL     1       3.040   3.186  18.489  0.00  0.00    +0.000 C 
ENDBRANCH  17  18
ENDBRANCH  16  17
ENDBRANCH  15  16
ENDBRANCH  14  15
ENDBRANCH   4  14
TORSDOF 6
ENDMDL
MODEL 9
REMARK VINA RESULT:      -7.2      5.577      8.326
REMARK  Name = 
REMARK  6 active torsions:
REMARK  status: ('A' for Active; 'I' for Inactive)
REMARK    1  A    between atoms: C_5  and  N_6
REMARK    2  A    between atoms: C_9  and  O_10
REMARK    3  A    between atoms: O_10  and  C_11
REMARK    4  A    between atoms: C_11  and  C_12
REMARK    5  A    between atoms: C_12  and  C_13
REMARK    6  A    between atoms: C_13  and  N_14
REMARK                            x       y       z     vdW  Elec       q    Type
REMARK                         _______ _______ _______ _____ _____    ______ ____
ROOT
ATOM      1  N   UNL     1       3.041   7.243  18.493  0.00  0.00    +0.000 N 
ATOM      2  C   UNL     1       3.660   7.628  17.320  0.00  0.00    +0.000 A 
ATOM      3  C   UNL     1       4.484   6.598  16.941  0.00  0.00    +0.000 A 
ATOM      4  C   UNL     1       4.282   5.623  17.921  0.00  0.00    +0.000 A 
ATOM      5  N   UNL     1       3.431   5.996  18.873  0.00  0.00    +0.000 NA
ENDROOT
BRANCH   1  10
ATOM      6 CL   UNL     1      -0.841  10.376  21.759  0.00  0.00    +0.000 Cl
ATOM      7  C   UNL     1       0.273   9.500  20.772  0.00  0.00    +0.000 A 
ATOM      8  C   UNL     1       0.896   8.382  21.334  0.00  0.00    +0.000 A 
ATOM      9  C   UNL     1       1.807   7.630  20.586  0.00  0.00    +0.000 A 
ATOM     10  C   UNL     1       2.111   7.997  19.268  0.00  0.00    +0.000 A 
ATOM     11  C   UNL     1       1.487   9.121  18.705  0.00  0.00    +0.000 A 
ATOM     12  C   UNL     1       0.567   9.867  19.454  0.00  0.00    +0.000 A 
ATOM     13 CL   UNL     1      -0.179  11.228  18.693  0.00  0.00    +0.000 Cl
ENDBRANCH   1  10
BRANCH   4  14
ATOM     14  O   UNL     1       4.940   4.450  17.983  0.00  0.00    +0.000 OA
BRANCH  14  15
ATOM     15  C   UNL     1       4.835   3.644  16.804  0.00  0.00    +0.000 C 
BRANCH  15  16
ATOM     16  C   UNL     1       3.518   2.879  16.934  0.00  0.00    +0.000 C 
BRANCH  16  17
ATOM     17  C   UNL     1       3.534   1.781  18.001  0.00  0.00    +0.000 C 
BRANCH  17  18
ATOM     18  N   UNL     1       2.675   2.029  19.171  0.00  0.00    +0.000 NA
ATOM     19  C   UNL     1       3.431   2.567  20.315  0.00  0.00    +0.000 C 
ATOM     20  C   UNL     1       2.523   2.783  21.528  0.00  0.00    +0.000 C 
ATOM     21  C   UNL     1       1.354   3.699  21.191  0.00  0.00    +0.000 C 
ATOM     22  C   UNL     1       0.622   3.187  19.957  0.00  0.00    +0.000 C 
ATOM     23  C   UNL     1       1.587   2.953  18.796  0.00  0.00    +0.000 C 
ENDBRANCH  17  18
ENDBRANCH  16  17
ENDBRANCH  15  16
ENDBRANCH  14  15
ENDBRANCH   4  14
TORSDOF 6
ENDMDL
