MODEL 1
REMARK VINA RESULT:      -8.5      0.000      0.000
REMARK  Name = 
REMARK  9 active torsions:
REMARK  status: ('A' for Active; 'I' for Inactive)
REMARK    1  A    between atoms: C_1  and  O_2
REMARK    2  A    between atoms: O_2  and  C_3
REMARK    3  A    between atoms: C_3  and  C_4
REMARK    4  A    between atoms: C_8  and  C_9
REMARK    5  A    between atoms: C_15  and  C_16
REMARK    6  A    between atoms: C_20  and  O_21
REMARK    7  A    between atoms: O_21  and  C_22
REMARK    8  A    between atoms: C_22  and  C_23
REMARK    9  A    between atoms: C_22  and  C_24
REMARK                            x       y       z     vdW  Elec       q    Type
REMARK                         _______ _______ _______ _____ _____    ______ ____
ROOT
ATOM      1  C   UNL     1       4.432   3.842  18.734  0.00  0.00    +0.000 A 
ATOM      2  N   UNL     1       4.408   2.662  19.333  0.00  0.00    +0.000 NA
ATOM      3  N   UNL     1       3.461   2.687  20.333  0.00  0.00    +0.000 NA
ATOM      4  C   UNL     1       2.900   3.872  20.317  0.00  0.00    +0.000 A 
ATOM      5  C   UNL     1       1.882   4.461  21.107  0.00  0.00    +0.000 A 
ATOM      6  C   UNL     1       1.464   5.711  20.830  0.00  0.00    +0.000 A 
ATOM      7  C   UNL     1       2.036   6.517  19.739  0.00  0.00    +0.000 A 
ATOM      8  C   UNL     1       2.998   5.927  18.999  0.00  0.00    +0.000 A 
ATOM      9  N   UNL     1       3.443   4.633  19.294  0.00  0.00    +0.000 N 
ENDROOT
BRANCH   1  14
ATOM     10  C   UNL     1       5.825   4.365  15.237  0.00  0.00    +0.000 A 
ATOM     11  C   UNL     1       7.110   4.818  15.546  0.00  0.00    +0.000 A 
ATOM     12  C   UNL     1       7.497   4.988  16.876  0.00  0.00    +0.000 A 
ATOM     13  C   UNL     1       6.613   4.676  17.910  0.00  0.00    +0.000 A 
ATOM     14  C   UNL     1       5.322   4.209  17.629  0.00  0.00    +0.000 A 
ATOM     15  C   UNL     1       4.931   4.108  16.284  0.00  0.00    +0.000 A 
BRANCH  10  16
ATOM     16  C   UNL     1       5.411   4.098  13.812  0.00  0.00    +0.000 C 
BRANCH  16  18
ATOM     17  C   UNL     1       6.850   3.902  11.966  0.00  0.00    +0.000 C 
ATOM     18  O   UNL     1       6.397   3.295  13.170  0.00  0.00    +0.000 OA
ENDBRANCH  16  18
ENDBRANCH  10  16
ENDBRANCH   1  14
BRANCH   7  19
ATOM     19  C   UNL     1       1.700   7.945  19.495  0.00  0.00    +0.000 A 
ATOM     20  C   UNL     1       1.895   8.575  18.254  0.00  0.00    +0.000 A 
ATOM     21  C   UNL     1       1.667   9.946  18.102  0.00  0.00    +0.000 A 
ATOM     22  C   UNL     1       1.262  10.708  19.195  0.00  0.00    +0.000 A 
ATOM     23  C   UNL     1       1.087  10.112  20.440  0.00  0.00    +0.000 A 
ATOM     24  C   UNL     1       1.253   8.732  20.570  0.00  0.00    +0.000 A 
BRANCH  23  25
ATOM     25  O   UNL     1       0.794  10.963  21.469  0.00  0.00    +0.000 OA
BRANCH  25  26
ATOM     26  C   UNL     1      -0.536  10.924  22.014  0.00  0.00    +0.000 C 
ATOM     27  C   UNL     1      -0.651   9.968  23.205  0.00  0.00    +0.000 C 
ATOM     28  C   UNL     1      -0.849  12.340  22.496  0.00  0.00    +0.000 C 
ENDBRANCH  25  26
ENDBRANCH  23  25
ENDBRANCH   7  19
TORSDOF 6
ENDMDL
MODEL 2
REMARK VINA RESULT:      -8.1      1.999      3.246
REMARK  Name = 
REMARK  9 active torsions:
REMARK  status: ('A' for Active; 'I' for Inactive)
REMARK    1  A    between atoms: C_1  and  O_2
REMARK    2  A    between atoms: O_2  and  C_3
REMARK    3  A    between atoms: C_3  and  C_4
REMARK    4  A    between atoms: C_8  and  C_9
REMARK    5  A    between atoms: C_15  and  C_16
REMARK    6  A    between atoms: C_20  and  O_21
REMARK    7  A    between atoms: O_21  and  C_22
REMARK    8  A    between atoms: C_22  and  C_23
REMARK    9  A    between atoms: C_22  and  C_24
REMARK                            x       y       z     vdW  Elec       q    Type
REMARK                         _______ _______ _______ _____ _____    ______ ____
ROOT
ATOM      1  C   UNL     1       4.131   3.720  18.375  0.00  0.00    +0.000 A 
ATOM      2  N   UNL     1       3.946   2.412  18.456  0.00  0.00    +0.000 NA
ATOM      3  N   UNL     1       2.861   2.162  19.267  0.00  0.00    +0.000 NA
ATOM      4  C   UNL     1       2.380   3.320  19.651  0.00  0.00    +0.000 A 
ATOM      5  C   UNL     1       1.290   3.676  20.484  0.00  0.00    +0.000 A 
ATOM      6  C   UNL     1       0.993   4.976  20.672  0.00  0.00    +0.000 A 
ATOM      7  C   UNL     1       1.771   6.066  20.060  0.00  0.00    +0.000 A 
ATOM      8  C   UNL     1       2.798   5.695  19.267  0.00  0.00    +0.000 A 
ATOM      9  N   UNL     1       3.116   4.345  19.081  0.00  0.00    +0.000 N 
ENDROOT
BRANCH   1  14
ATOM     10  C   UNL     1       7.045   5.977  17.450  0.00  0.00    +0.000 A 
ATOM     11  C   UNL     1       7.160   5.690  16.088  0.00  0.00    +0.000 A 
ATOM     12  C   UNL     1       6.323   4.744  15.494  0.00  0.00    +0.000 A 
ATOM     13  C   UNL     1       5.343   4.098  16.250  0.00  0.00    +0.000 A 
ATOM     14  C   UNL     1       5.199   4.376  17.616  0.00  0.00    +0.000 A 
ATOM     15  C   UNL     1       6.094   5.281  18.207  0.00  0.00    +0.000 A 
BRANCH  10  16
ATOM     16  C   UNL     1       7.882   7.051  18.096  0.00  0.00    +0.000 C 
BRANCH  16  18
ATOM     17  C   UNL     1       8.281   9.365  18.035  0.00  0.00    +0.000 C 
ATOM     18  O   UNL     1       7.849   8.230  17.297  0.00  0.00    +0.000 OA
ENDBRANCH  16  18
ENDBRANCH  10  16
ENDBRANCH   1  14
BRANCH   7  19
ATOM     19  C   UNL     1       1.561   7.507  20.358  0.00  0.00    +0.000 A 
ATOM     20  C   UNL     1       1.198   7.979  21.631  0.00  0.00    +0.000 A 
ATOM     21  C   UNL     1       0.905   9.330  21.838  0.00  0.00    +0.000 A 
ATOM     22  C   UNL     1       0.948  10.222  20.769  0.00  0.00    +0.000 A 
ATOM     23  C   UNL     1       1.279   9.774  19.494  0.00  0.00    +0.000 A 
ATOM     24  C   UNL     1       1.635   8.437  19.307  0.00  0.00    +0.000 A 
BRANCH  23  25
ATOM     25  O   UNL     1       1.189  10.705  18.497  0.00  0.00    +0.000 OA
BRANCH  25  26
ATOM     26  C   UNL     1       1.287  12.092  18.862  0.00  0.00    +0.000 C 
ATOM     27  C   UNL     1       2.447  12.801  18.155  0.00  0.00    +0.000 C 
ATOM     28  C   UNL     1      -0.022  12.749  18.427  0.00  0.00    +0.000 C 
ENDBRANCH  25  26
ENDBRANCH  23  25
ENDBRANCH   7  19
TORSDOF 6
ENDMDL
MODEL 3
REMARK VINA RESULT:      -8.1      1.407      2.200
REMARK  Name = 
REMARK  9 active torsions:
REMARK  status: ('A' for Active; 'I' for Inactive)
REMARK    1  A    between atoms: C_1  and  O_2
REMARK    2  A    between atoms: O_2  and  C_3
REMARK    3  A    between atoms: C_3  and  C_4
REMARK    4  A    between atoms: C_8  and  C_9
REMARK    5  A    between atoms: C_15  and  C_16
REMARK    6  A    between atoms: C_20  and  O_21
REMARK    7  A    between atoms: O_21  and  C_22
REMARK    8  A    between atoms: C_22  and  C_23
REMARK    9  A    between atoms: C_22  and  C_24
REMARK                            x       y       z     vdW  Elec       q    Type
REMARK                         _______ _______ _______ _____ _____    ______ ____
ROOT
ATOM      1  C   UNL     1       4.401   3.984  18.719  0.00  0.00    +0.000 A 
ATOM      2  N   UNL     1       4.281   2.671  18.842  0.00  0.00    +0.000 NA
ATOM      3  N   UNL     1       3.182   2.394  19.623  0.00  0.00    +0.000 NA
ATOM      4  C   UNL     1       2.627   3.537  19.947  0.00  0.00    +0.000 A 
ATOM      5  C   UNL     1       1.490   3.864  20.726  0.00  0.00    +0.000 A 
ATOM      6  C   UNL     1       1.120   5.153  20.855  0.00  0.00    +0.000 A 
ATOM      7  C   UNL     1       1.863   6.260  20.231  0.00  0.00    +0.000 A 
ATOM      8  C   UNL     1       2.937   5.916  19.488  0.00  0.00    +0.000 A 
ATOM      9  N   UNL     1       3.331   4.579  19.364  0.00  0.00    +0.000 N 
ENDROOT
BRANCH   1  14
ATOM     10  C   UNL     1       6.675   5.125  15.895  0.00  0.00    +0.000 A 
ATOM     11  C   UNL     1       7.583   5.910  16.608  0.00  0.00    +0.000 A 
ATOM     12  C   UNL     1       7.428   6.095  17.983  0.00  0.00    +0.000 A 
ATOM     13  C   UNL     1       6.381   5.470  18.662  0.00  0.00    +0.000 A 
ATOM     14  C   UNL     1       5.462   4.668  17.974  0.00  0.00    +0.000 A 
ATOM     15  C   UNL     1       5.598   4.549  16.581  0.00  0.00    +0.000 A 
BRANCH  10  16
ATOM     16  C   UNL     1       6.866   4.845  14.426  0.00  0.00    +0.000 C 
BRANCH  16  18
ATOM     17  C   UNL     1       5.948   3.514  12.723  0.00  0.00    +0.000 C 
ATOM     18  O   UNL     1       6.292   3.583  14.100  0.00  0.00    +0.000 OA
ENDBRANCH  16  18
ENDBRANCH  10  16
ENDBRANCH   1  14
BRANCH   7  19
ATOM     19  C   UNL     1       1.568   7.698  20.467  0.00  0.00    +0.000 A 
ATOM     20  C   UNL     1       1.440   8.250  21.753  0.00  0.00    +0.000 A 
ATOM     21  C   UNL     1       1.055   9.583  21.925  0.00  0.00    +0.000 A 
ATOM     22  C   UNL     1       0.769  10.373  20.815  0.00  0.00    +0.000 A 
ATOM     23  C   UNL     1       0.863   9.841  19.532  0.00  0.00    +0.000 A 
ATOM     24  C   UNL     1       1.312   8.530  19.364  0.00  0.00    +0.000 A 
BRANCH  23  25
ATOM     25  O   UNL     1       0.459  10.664  18.518  0.00  0.00    +0.000 OA
BRANCH  25  26
ATOM     26  C   UNL     1      -0.904  11.120  18.526  0.00  0.00    +0.000 C 
ATOM     27  C   UNL     1      -1.026  12.601  18.154  0.00  0.00    +0.000 C 
ATOM     28  C   UNL     1      -1.645  10.292  17.477  0.00  0.00    +0.000 C 
ENDBRANCH  25  26
ENDBRANCH  23  25
ENDBRANCH   7  19
TORSDOF 6
ENDMDL
MODEL 4
REMARK VINA RESULT:      -8.0      1.545      2.319
REMARK  Name = 
REMARK  9 active torsions:
REMARK  status: ('A' for Active; 'I' for Inactive)
REMARK    1  A    between atoms: C_1  and  O_2
REMARK    2  A    between atoms: O_2  and  C_3
REMARK    3  A    between atoms: C_3  and  C_4
REMARK    4  A    between atoms: C_8  and  C_9
REMARK    5  A    between atoms: C_15  and  C_16
REMARK    6  A    between atoms: C_20  and  O_21
REMARK    7  A    between atoms: O_21  and  C_22
REMARK    8  A    between atoms: C_22  and  C_23
REMARK    9  A    between atoms: C_22  and  C_24
REMARK                            x       y       z     vdW  Elec       q    Type
REMARK                         _______ _______ _______ _____ _____    ______ ____
ROOT
ATOM      1  C   UNL     1       4.431   3.903  18.704  0.00  0.00    +0.000 A 
ATOM      2  N   UNL     1       4.441   2.710  19.278  0.00  0.00    +0.000 NA
ATOM      3  N   UNL     1       3.527   2.700  20.307  0.00  0.00    +0.000 NA
ATOM      4  C   UNL     1       2.950   3.877  20.335  0.00  0.00    +0.000 A 
ATOM      5  C   UNL     1       1.950   4.436  21.169  0.00  0.00    +0.000 A 
ATOM      6  C   UNL     1       1.507   5.685  20.933  0.00  0.00    +0.000 A 
ATOM      7  C   UNL     1       2.034   6.522  19.842  0.00  0.00    +0.000 A 
ATOM      8  C   UNL     1       2.979   5.961  19.060  0.00  0.00    +0.000 A 
ATOM      9  N   UNL     1       3.450   4.668  19.312  0.00  0.00    +0.000 N 
ENDROOT
BRANCH   1  14
ATOM     10  C   UNL     1       6.958   5.782  16.576  0.00  0.00    +0.000 A 
ATOM     11  C   UNL     1       6.808   5.111  15.360  0.00  0.00    +0.000 A 
ATOM     12  C   UNL     1       5.924   4.037  15.253  0.00  0.00    +0.000 A 
ATOM     13  C   UNL     1       5.159   3.643  16.352  0.00  0.00    +0.000 A 
ATOM     14  C   UNL     1       5.281   4.305  17.580  0.00  0.00    +0.000 A 
ATOM     15  C   UNL     1       6.224   5.340  17.685  0.00  0.00    +0.000 A 
BRANCH  10  16
ATOM     16  C   UNL     1       7.845   6.994  16.697  0.00  0.00    +0.000 C 
BRANCH  16  18
ATOM     17  C   UNL     1       7.995   8.980  17.943  0.00  0.00    +0.000 C 
ATOM     18  O   UNL     1       7.120   8.060  17.304  0.00  0.00    +0.000 OA
ENDBRANCH  16  18
ENDBRANCH  10  16
ENDBRANCH   1  14
BRANCH   7  19
ATOM     19  C   UNL     1       1.671   7.950  19.640  0.00  0.00    +0.000 A 
ATOM     20  C   UNL     1       1.836   8.614  18.413  0.00  0.00    +0.000 A 
ATOM     21  C   UNL     1       1.584   9.984  18.299  0.00  0.00    +0.000 A 
ATOM     22  C   UNL     1       1.186  10.712  19.418  0.00  0.00    +0.000 A 
ATOM     23  C   UNL     1       1.041  10.083  20.650  0.00  0.00    +0.000 A 
ATOM     24  C   UNL     1       1.230   8.703  20.742  0.00  0.00    +0.000 A 
BRANCH  23  25
ATOM     25  O   UNL     1       0.751  10.903  21.705  0.00  0.00    +0.000 OA
BRANCH  25  26
ATOM     26  C   UNL     1      -0.601  11.375  21.837  0.00  0.00    +0.000 C 
ATOM     27  C   UNL     1      -1.250  10.924  23.150  0.00  0.00    +0.000 C 
ATOM     28  C   UNL     1      -0.530  12.901  21.827  0.00  0.00    +0.000 C 
ENDBRANCH  25  26
ENDBRANCH  23  25
ENDBRANCH   7  19
TORSDOF 6
ENDMDL
MODEL 5
REMARK VINA RESULT:      -8.0      1.418      2.286
REMARK  Name = 
REMARK  9 active torsions:
REMARK  status: ('A' for Active; 'I' for Inactive)
REMARK    1  A    between atoms: C_1  and  O_2
REMARK    2  A    between atoms: O_2  and  C_3
REMARK    3  A    between atoms: C_3  and  C_4
REMARK    4  A    between atoms: C_8  and  C_9
REMARK    5  A    between atoms: C_15  and  C_16
REMARK    6  A    between atoms: C_20  and  O_21
REMARK    7  A    between atoms: O_21  and  C_22
REMARK    8  A    between atoms: C_22  and  C_23
REMARK    9  A    between atoms: C_22  and  C_24
REMARK                            x       y       z     vdW  Elec       q    Type
REMARK                         _______ _______ _______ _____ _____    ______ ____
ROOT
ATOM      1  C   UNL     1       4.242   3.911  18.704  0.00  0.00    +0.000 A 
ATOM      2  N   UNL     1       4.064   2.602  18.797  0.00  0.00    +0.000 NA
ATOM      3  N   UNL     1       2.937   2.355  19.548  0.00  0.00    +0.000 NA
ATOM      4  C   UNL     1       2.424   3.514  19.885  0.00  0.00    +0.000 A 
ATOM      5  C   UNL     1       1.285   3.873  20.648  0.00  0.00    +0.000 A 
ATOM      6  C   UNL     1       0.967   5.173  20.797  0.00  0.00    +0.000 A 
ATOM      7  C   UNL     1       1.770   6.260  20.212  0.00  0.00    +0.000 A 
ATOM      8  C   UNL     1       2.843   5.887  19.485  0.00  0.00    +0.000 A 
ATOM      9  N   UNL     1       3.183   4.537  19.340  0.00  0.00    +0.000 N 
ENDROOT
BRANCH   1  14
ATOM     10  C   UNL     1       6.592   5.051  15.943  0.00  0.00    +0.000 A 
ATOM     11  C   UNL     1       7.546   5.739  16.697  0.00  0.00    +0.000 A 
ATOM     12  C   UNL     1       7.398   5.861  18.079  0.00  0.00    +0.000 A 
ATOM     13  C   UNL     1       6.311   5.269  18.725  0.00  0.00    +0.000 A 
ATOM     14  C   UNL     1       5.346   4.564  17.996  0.00  0.00    +0.000 A 
ATOM     15  C   UNL     1       5.478   4.510  16.599  0.00  0.00    +0.000 A 
BRANCH  10  16
ATOM     16  C   UNL     1       6.770   4.838  14.462  0.00  0.00    +0.000 C 
BRANCH  16  18
ATOM     17  C   UNL     1       8.047   5.474  12.596  0.00  0.00    +0.000 C 
ATOM     18  O   UNL     1       7.910   5.561  14.008  0.00  0.00    +0.000 OA
ENDBRANCH  16  18
ENDBRANCH  10  16
ENDBRANCH   1  14
BRANCH   7  19
ATOM     19  C   UNL     1       1.530   7.704  20.473  0.00  0.00    +0.000 A 
ATOM     20  C   UNL     1       1.195   8.206  21.742  0.00  0.00    +0.000 A 
ATOM     21  C   UNL     1       0.872   9.555  21.918  0.00  0.00    +0.000 A 
ATOM     22  C   UNL     1       0.858  10.414  20.822  0.00  0.00    +0.000 A 
ATOM     23  C   UNL     1       1.160   9.935  19.551  0.00  0.00    +0.000 A 
ATOM     24  C   UNL     1       1.545   8.603  19.393  0.00  0.00    +0.000 A 
BRANCH  23  25
ATOM     25  O   UNL     1       1.013  10.832  18.529  0.00  0.00    +0.000 OA
BRANCH  25  26
ATOM     26  C   UNL     1       1.144  12.230  18.839  0.00  0.00    +0.000 C 
ATOM     27  C   UNL     1       2.343  12.873  18.135  0.00  0.00    +0.000 C 
ATOM     28  C   UNL     1      -0.133  12.906  18.341  0.00  0.00    +0.000 C 
ENDBRANCH  25  26
ENDBRANCH  23  25
ENDBRANCH   7  19
TORSDOF 6
ENDMDL
MODEL 6
REMARK VINA RESULT:      -7.7      1.467      8.641
REMARK  Name = 
REMARK  9 active torsions:
REMARK  status: ('A' for Active; 'I' for Inactive)
REMARK    1  A    between atoms: C_1  and  O_2
REMARK    2  A    between atoms: O_2  and  C_3
REMARK    3  A    between atoms: C_3  and  C_4
REMARK    4  A    between atoms: C_8  and  C_9
REMARK    5  A    between atoms: C_15  and  C_16
REMARK    6  A    between atoms: C_20  and  O_21
REMARK    7  A    between atoms: O_21  and  C_22
REMARK    8  A    between atoms: C_22  and  C_23
REMARK    9  A    between atoms: C_22  and  C_24
REMARK                            x       y       z     vdW  Elec       q    Type
REMARK                         _______ _______ _______ _____ _____    ______ ____
ROOT
ATOM      1  C   UNL     1       1.743   4.994  19.770  0.00  0.00    +0.000 A 
ATOM      2  N   UNL     1       0.962   4.202  20.487  0.00  0.00    +0.000 NA
ATOM      3  N   UNL     1       1.260   2.891  20.190  0.00  0.00    +0.000 NA
ATOM      4  C   UNL     1       2.236   2.895  19.316  0.00  0.00    +0.000 A 
ATOM      5  C   UNL     1       2.938   1.855  18.657  0.00  0.00    +0.000 A 
ATOM      6  C   UNL     1       3.950   2.160  17.822  0.00  0.00    +0.000 A 
ATOM      7  C   UNL     1       4.357   3.546  17.540  0.00  0.00    +0.000 A 
ATOM      8  C   UNL     1       3.676   4.514  18.187  0.00  0.00    +0.000 A 
ATOM      9  N   UNL     1       2.616   4.200  19.045  0.00  0.00    +0.000 N 
ENDROOT
BRANCH   1  14
ATOM     10  C   UNL     1       1.261   8.577  20.943  0.00  0.00    +0.000 A 
ATOM     11  C   UNL     1       1.558   9.266  19.765  0.00  0.00    +0.000 A 
ATOM     12  C   UNL     1       1.949   8.571  18.620  0.00  0.00    +0.000 A 
ATOM     13  C   UNL     1       2.016   7.176  18.633  0.00  0.00    +0.000 A 
ATOM     14  C   UNL     1       1.712   6.459  19.797  0.00  0.00    +0.000 A 
ATOM     15  C   UNL     1       1.386   7.181  20.956  0.00  0.00    +0.000 A 
BRANCH  10  16
ATOM     16  C   UNL     1       0.761   9.299  22.168  0.00  0.00    +0.000 C 
BRANCH  16  18
ATOM     17  C   UNL     1      -0.510  11.274  22.190  0.00  0.00    +0.000 C 
ATOM     18  O   UNL     1       0.766  10.703  21.931  0.00  0.00    +0.000 OA
ENDBRANCH  16  18
ENDBRANCH  10  16
ENDBRANCH   1  14
BRANCH   7  19
ATOM     19  C   UNL     1       5.372   3.923  16.520  0.00  0.00    +0.000 A 
ATOM     20  C   UNL     1       6.586   4.550  16.845  0.00  0.00    +0.000 A 
ATOM     21  C   UNL     1       7.460   4.984  15.844  0.00  0.00    +0.000 A 
ATOM     22  C   UNL     1       7.119   4.818  14.504  0.00  0.00    +0.000 A 
ATOM     23  C   UNL     1       5.910   4.224  14.156  0.00  0.00    +0.000 A 
ATOM     24  C   UNL     1       5.073   3.733  15.160  0.00  0.00    +0.000 A 
BRANCH  23  25
ATOM     25  O   UNL     1       5.622   4.204  12.820  0.00  0.00    +0.000 OA
BRANCH  25  26
ATOM     26  C   UNL     1       5.149   2.970  12.253  0.00  0.00    +0.000 C 
ATOM     27  C   UNL     1       4.048   3.191  11.210  0.00  0.00    +0.000 C 
ATOM     28  C   UNL     1       6.349   2.321  11.564  0.00  0.00    +0.000 C 
ENDBRANCH  25  26
ENDBRANCH  23  25
ENDBRANCH   7  19
TORSDOF 6
ENDMDL
MODEL 7
REMARK VINA RESULT:      -7.7      0.782      1.074
REMARK  Name = 
REMARK  9 active torsions:
REMARK  status: ('A' for Active; 'I' for Inactive)
REMARK    1  A    between atoms: C_1  and  O_2
REMARK    2  A    between atoms: O_2  and  C_3
REMARK    3  A    between atoms: C_3  and  C_4
REMARK    4  A    between atoms: C_8  and  C_9
REMARK    5  A    between atoms: C_15  and  C_16
REMARK    6  A    between atoms: C_20  and  O_21
REMARK    7  A    between atoms: O_21  and  C_22
REMARK    8  A    between atoms: C_22  and  C_23
REMARK    9  A    between atoms: C_22  and  C_24
REMARK                            x       y       z     vdW  Elec       q    Type
REMARK                         _______ _______ _______ _____ _____    ______ ____
ROOT
ATOM      1  C   UNL     1       4.451   3.922  18.766  0.00  0.00    +0.000 A 
ATOM      2  N   UNL     1       4.395   2.783  19.439  0.00  0.00    +0.000 NA
ATOM      3  N   UNL     1       3.443   2.894  20.427  0.00  0.00    +0.000 NA
ATOM      4  C   UNL     1       2.909   4.088  20.331  0.00  0.00    +0.000 A 
ATOM      5  C   UNL     1       1.899   4.749  21.073  0.00  0.00    +0.000 A 
ATOM      6  C   UNL     1       1.512   5.988  20.713  0.00  0.00    +0.000 A 
ATOM      7  C   UNL     1       2.111   6.709  19.578  0.00  0.00    +0.000 A 
ATOM      8  C   UNL     1       3.064   6.051  18.885  0.00  0.00    +0.000 A 
ATOM      9  N   UNL     1       3.477   4.769  19.266  0.00  0.00    +0.000 N 
ENDROOT
BRANCH   1  14
ATOM     10  C   UNL     1       5.849   4.268  15.249  0.00  0.00    +0.000 A 
ATOM     11  C   UNL     1       7.168   4.625  15.539  0.00  0.00    +0.000 A 
ATOM     12  C   UNL     1       7.579   4.789  16.863  0.00  0.00    +0.000 A 
ATOM     13  C   UNL     1       6.683   4.566  17.910  0.00  0.00    +0.000 A 
ATOM     14  C   UNL     1       5.357   4.197  17.647  0.00  0.00    +0.000 A 
ATOM     15  C   UNL     1       4.948   4.102  16.308  0.00  0.00    +0.000 A 
BRANCH  10  16
ATOM     16  C   UNL     1       5.403   4.008  13.833  0.00  0.00    +0.000 C 
BRANCH  16  18
ATOM     17  C   UNL     1       6.272   2.976  11.910  0.00  0.00    +0.000 C 
ATOM     18  O   UNL     1       6.542   3.857  12.992  0.00  0.00    +0.000 OA
ENDBRANCH  16  18
ENDBRANCH  10  16
ENDBRANCH   1  14
BRANCH   7  19
ATOM     19  C   UNL     1       1.810   8.126  19.240  0.00  0.00    +0.000 A 
ATOM     20  C   UNL     1       2.268   8.746  18.066  0.00  0.00    +0.000 A 
ATOM     21  C   UNL     1       2.052  10.109  17.843  0.00  0.00    +0.000 A 
ATOM     22  C   UNL     1       1.395  10.874  18.803  0.00  0.00    +0.000 A 
ATOM     23  C   UNL     1       0.955  10.289  19.986  0.00  0.00    +0.000 A 
ATOM     24  C   UNL     1       1.115   8.915  20.173  0.00  0.00    +0.000 A 
BRANCH  23  25
ATOM     25  O   UNL     1       0.419  11.145  20.908  0.00  0.00    +0.000 OA
BRANCH  25  26
ATOM     26  C   UNL     1      -0.980  11.458  20.799  0.00  0.00    +0.000 C 
ATOM     27  C   UNL     1      -1.247  12.966  20.857  0.00  0.00    +0.000 C 
ATOM     28  C   UNL     1      -1.437  10.935  19.438  0.00  0.00    +0.000 C 
ENDBRANCH  25  26
ENDBRANCH  23  25
ENDBRANCH   7  19
TORSDOF 6
ENDMDL
MODEL 8
REMARK VINA RESULT:      -7.7      1.943      7.810
REMARK  Name = 
REMARK  9 active torsions:
REMARK  status: ('A' for Active; 'I' for Inactive)
REMARK    1  A    between atoms: C_1  and  O_2
REMARK    2  A    between atoms: O_2  and  C_3
REMARK    3  A    between atoms: C_3  and  C_4
REMARK    4  A    between atoms: C_8  and  C_9
REMARK    5  A    between atoms: C_15  and  C_16
REMARK    6  A    between atoms: C_20  and  O_21
REMARK    7  A    between atoms: O_21  and  C_22
REMARK    8  A    between atoms: C_22  and  C_23
REMARK    9  A    between atoms: C_22  and  C_24
REMARK                            x       y       z     vdW  Elec       q    Type
REMARK                         _______ _______ _______ _____ _____    ______ ____
ROOT
ATOM      1  C   UNL     1       1.507   4.975  20.099  0.00  0.00    +0.000 A 
ATOM      2  N   UNL     1       0.753   4.110  20.759  0.00  0.00    +0.000 NA
ATOM      3  N   UNL     1       1.077   2.834  20.355  0.00  0.00    +0.000 NA
ATOM      4  C   UNL     1       2.042   2.931  19.472  0.00  0.00    +0.000 A 
ATOM      5  C   UNL     1       2.758   1.964  18.725  0.00  0.00    +0.000 A 
ATOM      6  C   UNL     1       3.752   2.358  17.906  0.00  0.00    +0.000 A 
ATOM      7  C   UNL     1       4.124   3.772  17.731  0.00  0.00    +0.000 A 
ATOM      8  C   UNL     1       3.429   4.669  18.461  0.00  0.00    +0.000 A 
ATOM      9  N   UNL     1       2.387   4.262  19.303  0.00  0.00    +0.000 N 
ENDROOT
BRANCH   1  14
ATOM     10  C   UNL     1       0.666   8.443  21.407  0.00  0.00    +0.000 A 
ATOM     11  C   UNL     1       1.251   9.232  20.414  0.00  0.00    +0.000 A 
ATOM     12  C   UNL     1       1.944   8.638  19.358  0.00  0.00    +0.000 A 
ATOM     13  C   UNL     1       2.030   7.248  19.268  0.00  0.00    +0.000 A 
ATOM     14  C   UNL     1       1.443   6.432  20.244  0.00  0.00    +0.000 A 
ATOM     15  C   UNL     1       0.808   7.051  21.332  0.00  0.00    +0.000 A 
BRANCH  10  16
ATOM     16  C   UNL     1      -0.154   9.056  22.513  0.00  0.00    +0.000 C 
BRANCH  16  18
ATOM     17  C   UNL     1      -0.781  11.313  22.700  0.00  0.00    +0.000 C 
ATOM     18  O   UNL     1       0.295  10.385  22.761  0.00  0.00    +0.000 OA
ENDBRANCH  16  18
ENDBRANCH  10  16
ENDBRANCH   1  14
BRANCH   7  19
ATOM     19  C   UNL     1       5.116   4.253  16.733  0.00  0.00    +0.000 A 
ATOM     20  C   UNL     1       5.451   3.528  15.577  0.00  0.00    +0.000 A 
ATOM     21  C   UNL     1       6.467   3.968  14.724  0.00  0.00    +0.000 A 
ATOM     22  C   UNL     1       7.178   5.126  15.029  0.00  0.00    +0.000 A 
ATOM     23  C   UNL     1       6.883   5.847  16.182  0.00  0.00    +0.000 A 
ATOM     24  C   UNL     1       5.824   5.439  16.995  0.00  0.00    +0.000 A 
BRANCH  23  25
ATOM     25  O   UNL     1       7.707   6.905  16.447  0.00  0.00    +0.000 OA
BRANCH  25  26
ATOM     26  C   UNL     1       7.566   7.565  17.716  0.00  0.00    +0.000 C 
ATOM     27  C   UNL     1       8.254   6.800  18.851  0.00  0.00    +0.000 C 
ATOM     28  C   UNL     1       8.239   8.930  17.572  0.00  0.00    +0.000 C 
ENDBRANCH  25  26
ENDBRANCH  23  25
ENDBRANCH   7  19
TORSDOF 6
ENDMDL
MODEL 9
REMARK VINA RESULT:      -7.6      4.604      6.678
REMARK  Name = 
REMARK  9 active torsions:
REMARK  status: ('A' for Active; 'I' for Inactive)
REMARK    1  A    between atoms: C_1  and  O_2
REMARK    2  A    between atoms: O_2  and  C_3
REMARK    3  A    between atoms: C_3  and  C_4
REMARK    4  A    between atoms: C_8  and  C_9
REMARK    5  A    between atoms: C_15  and  C_16
REMARK    6  A    between atoms: C_20  and  O_21
REMARK    7  A    between atoms: O_21  and  C_22
REMARK    8  A    between atoms: C_22  and  C_23
REMARK    9  A    between atoms: C_22  and  C_24
REMARK                            x       y       z     vdW  Elec       q    Type
REMARK                         _______ _______ _______ _____ _____    ______ ____
ROOT
ATOM      1  C   UNL     1       1.290   8.692  20.829  0.00  0.00    +0.000 A 
ATOM      2  N   UNL     1       1.776   9.089  21.995  0.00  0.00    +0.000 NA
ATOM      3  N   UNL     1       1.121  10.235  22.386  0.00  0.00    +0.000 NA
ATOM      4  C   UNL     1       0.226  10.512  21.469  0.00  0.00    +0.000 A 
ATOM      5  C   UNL     1      -0.721  11.558  21.338  0.00  0.00    +0.000 A 
ATOM      6  C   UNL     1      -1.564  11.566  20.288  0.00  0.00    +0.000 A 
ATOM      7  C   UNL     1      -1.538  10.532  19.240  0.00  0.00    +0.000 A 
ATOM      8  C   UNL     1      -0.631   9.545  19.396  0.00  0.00    +0.000 A 
ATOM      9  N   UNL     1       0.255   9.543  20.479  0.00  0.00    +0.000 N 
ENDROOT
BRANCH   1  14
ATOM     10  C   UNL     1       2.080   5.098  19.876  0.00  0.00    +0.000 A 
ATOM     11  C   UNL     1       2.740   5.302  18.662  0.00  0.00    +0.000 A 
ATOM     12  C   UNL     1       2.886   6.591  18.147  0.00  0.00    +0.000 A 
ATOM     13  C   UNL     1       2.402   7.691  18.856  0.00  0.00    +0.000 A 
ATOM     14  C   UNL     1       1.746   7.517  20.082  0.00  0.00    +0.000 A 
ATOM     15  C   UNL     1       1.551   6.207  20.549  0.00  0.00    +0.000 A 
BRANCH  10  16
ATOM     16  C   UNL     1       1.979   3.727  20.492  0.00  0.00    +0.000 C 
BRANCH  16  18
ATOM     17  C   UNL     1       1.175   2.172  18.925  0.00  0.00    +0.000 C 
ATOM     18  O   UNL     1       0.830   3.057  19.983  0.00  0.00    +0.000 OA
ENDBRANCH  16  18
ENDBRANCH  10  16
ENDBRANCH   1  14
BRANCH   7  19
ATOM     19  C   UNL     1      -2.355  10.585  17.999  0.00  0.00    +0.000 A 
ATOM     20  C   UNL     1      -1.946   9.998  16.790  0.00  0.00    +0.000 A 
ATOM     21  C   UNL     1      -2.695  10.166  15.622  0.00  0.00    +0.000 A 
ATOM     22  C   UNL     1      -3.850  10.944  15.643  0.00  0.00    +0.000 A 
ATOM     23  C   UNL     1      -4.261  11.558  16.822  0.00  0.00    +0.000 A 
ATOM     24  C   UNL     1      -3.545  11.331  17.999  0.00  0.00    +0.000 A 
BRANCH  23  25
ATOM     25  O   UNL     1      -5.344  12.384  16.714  0.00  0.00    +0.000 OA
BRANCH  25  26
ATOM     26  C   UNL     1      -6.100  12.661  17.906  0.00  0.00    +0.000 C 
ATOM     27  C   UNL     1      -7.016  13.878  17.746  0.00  0.00    +0.000 C 
ATOM     28  C   UNL     1      -6.967  11.429  18.164  0.00  0.00    +0.000 C 
ENDBRANCH  25  26
ENDBRANCH  23  25
ENDBRANCH   7  19
TORSDOF 6
ENDMDL
