MODEL 1
REMARK VINA RESULT:      -8.9      0.000      0.000
REMARK  Name = 
REMARK  8 active torsions:
REMARK  status: ('A' for Active; 'I' for Inactive)
REMARK    1  A    between atoms: C_1  and  C_2
REMARK    2  A    between atoms: C_2  and  C_3
REMARK    3  A    between atoms: C_3  and  N_4
REMARK    4  A    between atoms: C_7  and  N_8
REMARK    5  A    between atoms: N_8  and  C_9
REMARK    6  A    between atoms: C_20  and  C_21
REMARK    7  A    between atoms: C_25  and  C_26
REMARK    8  A    between atoms: C_31  and  C_32
REMARK                            x       y       z     vdW  Elec       q    Type
REMARK                         _______ _______ _______ _____ _____    ______ ____
ROOT
ATOM      1  C   UNL     1      -0.858  10.955  18.556  0.00  0.00    +0.000 A 
ATOM      2  C   UNL     1      -1.365  11.845  19.424  0.00  0.00    +0.000 A 
ATOM      3  C   UNL     1      -0.838  11.874  20.831  0.00  0.00    +0.000 A 
ATOM      4  N   UNL     1      -1.333  12.812  21.722  0.00  0.00    +0.000 N 
ATOM      5  C   UNL     1      -1.869  14.111  21.341  0.00  0.00    +0.000 C 
ATOM      6  C   UNL     1      -1.327  15.054  22.404  0.00  0.00    +0.000 C 
ATOM      7  C   UNL     1      -1.326  14.192  23.653  0.00  0.00    +0.000 C 
ATOM      8  C   UNL     1      -0.948  12.808  23.134  0.00  0.00    +0.000 C 
ATOM      9  N   UNL     1       0.086  11.035  21.241  0.00  0.00    +0.000 NA
ATOM     10  C   UNL     1       0.584  10.134  20.345  0.00  0.00    +0.000 A 
ATOM     11  C   UNL     1       1.536   9.153  20.482  0.00  0.00    +0.000 A 
ATOM     12  C   UNL     1       1.608   8.495  19.230  0.00  0.00    +0.000 A 
ATOM     13  N   UNL     1       0.794   9.082  18.339  0.00  0.00    +0.000 NA
ATOM     14  N   UNL     1       0.144  10.066  19.025  0.00  0.00    +0.000 N 
ENDROOT
BRANCH  12  15
ATOM     15  C   UNL     1       2.406   7.301  18.915  0.00  0.00    +0.000 A 
ATOM     16  N   UNL     1       3.199   7.415  17.809  0.00  0.00    +0.000 NA
ATOM     17  C   UNL     1       4.005   6.377  17.509  0.00  0.00    +0.000 A 
ATOM     18  C   UNL     1       4.852   6.440  16.404  0.00  0.00    +0.000 A 
ATOM     19  C   UNL     1       5.708   5.383  16.066  0.00  0.00    +0.000 A 
ATOM     20  C   UNL     1       6.599   5.455  14.862  0.00  0.00    +0.000 C 
ATOM     21  C   UNL     1       5.702   4.235  16.859  0.00  0.00    +0.000 A 
ATOM     22  C   UNL     1       4.859   4.161  17.966  0.00  0.00    +0.000 A 
ATOM     23  C   UNL     1       4.009   5.206  18.298  0.00  0.00    +0.000 A 
ATOM     24  N   UNL     1       3.207   5.080  19.374  0.00  0.00    +0.000 NA
ATOM     25  C   UNL     1       2.399   6.134  19.681  0.00  0.00    +0.000 A 
ATOM     26  C   UNL     1       1.500   5.921  20.862  0.00  0.00    +0.000 C 
ENDBRANCH  12  15
BRANCH   1  27
ATOM     27  N   UNL     1      -1.243  10.911  17.206  0.00  0.00    +0.000 N 
ATOM     28  H   UNL     1      -1.601  11.834  16.956  0.00  0.00    +0.000 HD
BRANCH  27  32
ATOM     29  N   UNL     1      -4.832  11.098  16.702  0.00  0.00    +0.000 NA
ATOM     30  C   UNL     1      -3.815  11.479  15.701  0.00  0.00    +0.000 C 
ATOM     31  C   UNL     1      -2.839  10.340  15.415  0.00  0.00    +0.000 C 
ATOM     32  C   UNL     1      -2.150   9.866  16.689  0.00  0.00    +0.000 C 
ATOM     33  C   UNL     1      -3.207   9.517  17.738  0.00  0.00    +0.000 C 
ATOM     34  C   UNL     1      -4.192  10.666  17.957  0.00  0.00    +0.000 C 
BRANCH  29  35
ATOM     35  C   UNL     1      -5.745  12.224  16.985  0.00  0.00    +0.000 C 
BRANCH  35  37
ATOM     36  C   UNL     1      -7.577  13.135  18.505  0.00  0.00    +0.000 C 
ATOM     37  C   UNL     1      -6.893  11.896  17.949  0.00  0.00    +0.000 C 
ENDBRANCH  35  37
ENDBRANCH  29  35
ENDBRANCH  27  32
ENDBRANCH   1  27
TORSDOF 5
ENDMDL
MODEL 2
REMARK VINA RESULT:      -8.7      3.209      7.209
REMARK  Name = 
REMARK  8 active torsions:
REMARK  status: ('A' for Active; 'I' for Inactive)
REMARK    1  A    between atoms: C_1  and  C_2
REMARK    2  A    between atoms: C_2  and  C_3
REMARK    3  A    between atoms: C_3  and  N_4
REMARK    4  A    between atoms: C_7  and  N_8
REMARK    5  A    between atoms: N_8  and  C_9
REMARK    6  A    between atoms: C_20  and  C_21
REMARK    7  A    between atoms: C_25  and  C_26
REMARK    8  A    between atoms: C_31  and  C_32
REMARK                            x       y       z     vdW  Elec       q    Type
REMARK                         _______ _______ _______ _____ _____    ______ ____
ROOT
ATOM      1  C   UNL     1       2.417   6.707  20.229  0.00  0.00    +0.000 A 
ATOM      2  C   UNL     1       1.653   7.720  20.667  0.00  0.00    +0.000 A 
ATOM      3  C   UNL     1       1.480   8.933  19.796  0.00  0.00    +0.000 A 
ATOM      4  N   UNL     1       0.666   9.968  20.228  0.00  0.00    +0.000 N 
ATOM      5  C   UNL     1      -0.469   9.807  21.127  0.00  0.00    +0.000 C 
ATOM      6  C   UNL     1      -1.529  10.728  20.543  0.00  0.00    +0.000 C 
ATOM      7  C   UNL     1      -0.711  11.888  20.006  0.00  0.00    +0.000 C 
ATOM      8  C   UNL     1       0.558  11.222  19.481  0.00  0.00    +0.000 C 
ATOM      9  N   UNL     1       2.077   9.039  18.632  0.00  0.00    +0.000 NA
ATOM     10  C   UNL     1       2.854   8.001  18.207  0.00  0.00    +0.000 A 
ATOM     11  C   UNL     1       3.588   7.830  17.058  0.00  0.00    +0.000 A 
ATOM     12  C   UNL     1       4.232   6.575  17.184  0.00  0.00    +0.000 A 
ATOM     13  N   UNL     1       3.863   5.965  18.322  0.00  0.00    +0.000 NA
ATOM     14  N   UNL     1       3.043   6.846  18.964  0.00  0.00    +0.000 N 
ENDROOT
BRANCH  12  15
ATOM     15  C   UNL     1       5.216   6.001  16.254  0.00  0.00    +0.000 A 
ATOM     16  N   UNL     1       4.692   5.174  15.302  0.00  0.00    +0.000 NA
ATOM     17  C   UNL     1       5.535   4.671  14.379  0.00  0.00    +0.000 A 
ATOM     18  C   UNL     1       5.058   3.837  13.369  0.00  0.00    +0.000 A 
ATOM     19  C   UNL     1       5.906   3.301  12.389  0.00  0.00    +0.000 A 
ATOM     20  C   UNL     1       5.383   2.387  11.321  0.00  0.00    +0.000 C 
ATOM     21  C   UNL     1       7.265   3.611  12.435  0.00  0.00    +0.000 A 
ATOM     22  C   UNL     1       7.753   4.444  13.441  0.00  0.00    +0.000 A 
ATOM     23  C   UNL     1       6.915   4.971  14.413  0.00  0.00    +0.000 A 
ATOM     24  N   UNL     1       7.439   5.764  15.368  0.00  0.00    +0.000 NA
ATOM     25  C   UNL     1       6.584   6.279  16.295  0.00  0.00    +0.000 A 
ATOM     26  C   UNL     1       7.228   7.119  17.357  0.00  0.00    +0.000 C 
ENDBRANCH  12  15
BRANCH   1  27
ATOM     27  N   UNL     1       2.570   5.510  20.948  0.00  0.00    +0.000 N 
ATOM     28  H   UNL     1       3.385   5.024  20.571  0.00  0.00    +0.000 HD
BRANCH  27  32
ATOM     29  N   UNL     1       2.176   2.220  19.469  0.00  0.00    +0.000 NA
ATOM     30  C   UNL     1       2.857   2.496  20.750  0.00  0.00    +0.000 C 
ATOM     31  C   UNL     1       1.956   3.252  21.725  0.00  0.00    +0.000 C 
ATOM     32  C   UNL     1       1.455   4.558  21.120  0.00  0.00    +0.000 C 
ATOM     33  C   UNL     1       0.791   4.271  19.772  0.00  0.00    +0.000 C 
ATOM     34  C   UNL     1       1.708   3.471  18.846  0.00  0.00    +0.000 C 
BRANCH  29  35
ATOM     35  C   UNL     1       3.075   1.517  18.531  0.00  0.00    +0.000 C 
BRANCH  35  37
ATOM     36  C   UNL     1       5.100   2.989  18.052  0.00  0.00    +0.000 C 
ATOM     37  C   UNL     1       3.791   2.425  17.522  0.00  0.00    +0.000 C 
ENDBRANCH  35  37
ENDBRANCH  29  35
ENDBRANCH  27  32
ENDBRANCH   1  27
TORSDOF 5
ENDMDL
MODEL 3
REMARK VINA RESULT:      -8.2      1.523      2.549
REMARK  Name = 
REMARK  8 active torsions:
REMARK  status: ('A' for Active; 'I' for Inactive)
REMARK    1  A    between atoms: C_1  and  C_2
REMARK    2  A    between atoms: C_2  and  C_3
REMARK    3  A    between atoms: C_3  and  N_4
REMARK    4  A    between atoms: C_7  and  N_8
REMARK    5  A    between atoms: N_8  and  C_9
REMARK    6  A    between atoms: C_20  and  C_21
REMARK    7  A    between atoms: C_25  and  C_26
REMARK    8  A    between atoms: C_31  and  C_32
REMARK                            x       y       z     vdW  Elec       q    Type
REMARK                         _______ _______ _______ _____ _____    ______ ____
ROOT
ATOM      1  C   UNL     1      -1.032  11.482  18.804  0.00  0.00    +0.000 A 
ATOM      2  C   UNL     1      -1.512  12.453  19.597  0.00  0.00    +0.000 A 
ATOM      3  C   UNL     1      -1.048  12.526  21.025  0.00  0.00    +0.000 A 
ATOM      4  N   UNL     1      -1.514  13.546  21.839  0.00  0.00    +0.000 N 
ATOM      5  C   UNL     1      -1.937  14.855  21.363  0.00  0.00    +0.000 C 
ATOM      6  C   UNL     1      -1.377  15.817  22.399  0.00  0.00    +0.000 C 
ATOM      7  C   UNL     1      -1.494  15.030  23.691  0.00  0.00    +0.000 C 
ATOM      8  C   UNL     1      -1.195  13.595  23.267  0.00  0.00    +0.000 C 
ATOM      9  N   UNL     1      -0.207  11.649  21.525  0.00  0.00    +0.000 NA
ATOM     10  C   UNL     1       0.264  10.667  20.704  0.00  0.00    +0.000 A 
ATOM     11  C   UNL     1       1.136   9.630  20.940  0.00  0.00    +0.000 A 
ATOM     12  C   UNL     1       1.216   8.898  19.730  0.00  0.00    +0.000 A 
ATOM     13  N   UNL     1       0.488   9.490  18.769  0.00  0.00    +0.000 NA
ATOM     14  N   UNL     1      -0.119  10.554  19.369  0.00  0.00    +0.000 N 
ENDROOT
BRANCH  12  15
ATOM     15  C   UNL     1       1.940   7.635  19.520  0.00  0.00    +0.000 A 
ATOM     16  N   UNL     1       1.652   6.652  20.422  0.00  0.00    +0.000 NA
ATOM     17  C   UNL     1       2.234   5.449  20.242  0.00  0.00    +0.000 A 
ATOM     18  C   UNL     1       1.965   4.398  21.117  0.00  0.00    +0.000 A 
ATOM     19  C   UNL     1       2.547   3.133  20.955  0.00  0.00    +0.000 A 
ATOM     20  C   UNL     1       2.266   2.017  21.917  0.00  0.00    +0.000 C 
ATOM     21  C   UNL     1       3.422   2.928  19.889  0.00  0.00    +0.000 A 
ATOM     22  C   UNL     1       3.698   3.972  19.008  0.00  0.00    +0.000 A 
ATOM     23  C   UNL     1       3.126   5.226  19.170  0.00  0.00    +0.000 A 
ATOM     24  N   UNL     1       3.433   6.203  18.294  0.00  0.00    +0.000 NA
ATOM     25  C   UNL     1       2.838   7.416  18.473  0.00  0.00    +0.000 A 
ATOM     26  C   UNL     1       3.248   8.475  17.496  0.00  0.00    +0.000 C 
ENDBRANCH  12  15
BRANCH   1  27
ATOM     27  N   UNL     1      -1.357  11.388  17.441  0.00  0.00    +0.000 N 
ATOM     28  H   UNL     1      -1.799  12.267  17.167  0.00  0.00    +0.000 HD
BRANCH  27  32
ATOM     29  N   UNL     1      -4.933  11.173  16.861  0.00  0.00    +0.000 NA
ATOM     30  C   UNL     1      -3.945  11.671  15.883  0.00  0.00    +0.000 C 
ATOM     31  C   UNL     1      -2.841  10.650  15.615  0.00  0.00    +0.000 C 
ATOM     32  C   UNL     1      -2.129  10.251  16.903  0.00  0.00    +0.000 C 
ATOM     33  C   UNL     1      -3.162   9.779  17.928  0.00  0.00    +0.000 C 
ATOM     34  C   UNL     1      -4.275  10.809  18.128  0.00  0.00    +0.000 C 
BRANCH  29  35
ATOM     35  C   UNL     1      -5.973  12.188  17.127  0.00  0.00    +0.000 C 
BRANCH  35  37
ATOM     36  C   UNL     1      -7.470  12.377  19.181  0.00  0.00    +0.000 C 
ATOM     37  C   UNL     1      -6.089  12.622  18.595  0.00  0.00    +0.000 C 
ENDBRANCH  35  37
ENDBRANCH  29  35
ENDBRANCH  27  32
ENDBRANCH   1  27
TORSDOF 5
ENDMDL
MODEL 4
REMARK VINA RESULT:      -8.2      3.095      5.286
REMARK  Name = 
REMARK  8 active torsions:
REMARK  status: ('A' for Active; 'I' for Inactive)
REMARK    1  A    between atoms: C_1  and  C_2
REMARK    2  A    between atoms: C_2  and  C_3
REMARK    3  A    between atoms: C_3  and  N_4
REMARK    4  A    between atoms: C_7  and  N_8
REMARK    5  A    between atoms: N_8  and  C_9
REMARK    6  A    between atoms: C_20  and  C_21
REMARK    7  A    between atoms: C_25  and  C_26
REMARK    8  A    between atoms: C_31  and  C_32
REMARK                            x       y       z     vdW  Elec       q    Type
REMARK                         _______ _______ _______ _____ _____    ______ ____
ROOT
ATOM      1  C   UNL     1      -1.392  13.767  20.241  0.00  0.00    +0.000 A 
ATOM      2  C   UNL     1      -1.191  15.040  19.863  0.00  0.00    +0.000 A 
ATOM      3  C   UNL     1       0.003  15.368  19.011  0.00  0.00    +0.000 A 
ATOM      4  N   UNL     1       0.198  16.674  18.590  0.00  0.00    +0.000 N 
ATOM      5  C   UNL     1      -0.868  17.644  18.387  0.00  0.00    +0.000 C 
ATOM      6  C   UNL     1      -0.461  18.371  17.114  0.00  0.00    +0.000 C 
ATOM      7  C   UNL     1       1.052  18.410  17.216  0.00  0.00    +0.000 C 
ATOM      8  C   UNL     1       1.405  17.074  17.864  0.00  0.00    +0.000 C 
ATOM      9  N   UNL     1       0.868  14.449  18.649  0.00  0.00    +0.000 NA
ATOM     10  C   UNL     1       0.649  13.162  19.048  0.00  0.00    +0.000 A 
ATOM     11  C   UNL     1       1.367  12.011  18.828  0.00  0.00    +0.000 A 
ATOM     12  C   UNL     1       0.688  10.983  19.527  0.00  0.00    +0.000 A 
ATOM     13  N   UNL     1      -0.433  11.456  20.094  0.00  0.00    +0.000 NA
ATOM     14  N   UNL     1      -0.445  12.794  19.829  0.00  0.00    +0.000 N 
ENDROOT
BRANCH  12  15
ATOM     15  C   UNL     1       1.135   9.591  19.683  0.00  0.00    +0.000 A 
ATOM     16  N   UNL     1       1.890   9.111  18.651  0.00  0.00    +0.000 NA
ATOM     17  C   UNL     1       2.386   7.863  18.768  0.00  0.00    +0.000 A 
ATOM     18  C   UNL     1       3.181   7.324  17.758  0.00  0.00    +0.000 A 
ATOM     19  C   UNL     1       3.718   6.032  17.848  0.00  0.00    +0.000 A 
ATOM     20  C   UNL     1       4.554   5.456  16.745  0.00  0.00    +0.000 C 
ATOM     21  C   UNL     1       3.440   5.268  18.982  0.00  0.00    +0.000 A 
ATOM     22  C   UNL     1       2.646   5.798  19.998  0.00  0.00    +0.000 A 
ATOM     23  C   UNL     1       2.111   7.074  19.907  0.00  0.00    +0.000 A 
ATOM     24  N   UNL     1       1.343   7.535  20.913  0.00  0.00    +0.000 NA
ATOM     25  C   UNL     1       0.850   8.800  20.798  0.00  0.00    +0.000 A 
ATOM     26  C   UNL     1      -0.032   9.244  21.926  0.00  0.00    +0.000 C 
ENDBRANCH  12  15
BRANCH   1  27
ATOM     27  N   UNL     1      -2.521  13.365  20.974  0.00  0.00    +0.000 N 
ATOM     28  H   UNL     1      -3.191  14.135  20.958  0.00  0.00    +0.000 HD
BRANCH  27  32
ATOM     29  N   UNL     1      -3.955  14.695  24.030  0.00  0.00    +0.000 NA
ATOM     30  C   UNL     1      -4.624  13.737  23.128  0.00  0.00    +0.000 C 
ATOM     31  C   UNL     1      -3.783  12.483  22.900  0.00  0.00    +0.000 C 
ATOM     32  C   UNL     1      -2.406  12.831  22.346  0.00  0.00    +0.000 C 
ATOM     33  C   UNL     1      -1.737  13.859  23.260  0.00  0.00    +0.000 C 
ATOM     34  C   UNL     1      -2.633  15.074  23.502  0.00  0.00    +0.000 C 
BRANCH  29  35
ATOM     35  C   UNL     1      -4.772  15.912  24.212  0.00  0.00    +0.000 C 
BRANCH  35  37
ATOM     36  C   UNL     1      -5.089  18.115  25.455  0.00  0.00    +0.000 C 
ATOM     37  C   UNL     1      -4.125  16.999  25.080  0.00  0.00    +0.000 C 
ENDBRANCH  35  37
ENDBRANCH  29  35
ENDBRANCH  27  32
ENDBRANCH   1  27
TORSDOF 5
ENDMDL
MODEL 5
REMARK VINA RESULT:      -8.2      3.611      6.097
REMARK  Name = 
REMARK  8 active torsions:
REMARK  status: ('A' for Active; 'I' for Inactive)
REMARK    1  A    between atoms: C_1  and  C_2
REMARK    2  A    between atoms: C_2  and  C_3
REMARK    3  A    between atoms: C_3  and  N_4
REMARK    4  A    between atoms: C_7  and  N_8
REMARK    5  A    between atoms: N_8  and  C_9
REMARK    6  A    between atoms: C_20  and  C_21
REMARK    7  A    between atoms: C_25  and  C_26
REMARK    8  A    between atoms: C_31  and  C_32
REMARK                            x       y       z     vdW  Elec       q    Type
REMARK                         _______ _______ _______ _____ _____    ______ ____
ROOT
ATOM      1  C   UNL     1       0.588  13.253  21.091  0.00  0.00    +0.000 A 
ATOM      2  C   UNL     1      -0.363  13.893  21.792  0.00  0.00    +0.000 A 
ATOM      3  C   UNL     1      -1.403  13.085  22.516  0.00  0.00    +0.000 A 
ATOM      4  N   UNL     1      -2.367  13.738  23.268  0.00  0.00    +0.000 N 
ATOM      5  C   UNL     1      -2.182  15.035  23.902  0.00  0.00    +0.000 C 
ATOM      6  C   UNL     1      -2.854  14.877  25.257  0.00  0.00    +0.000 C 
ATOM      7  C   UNL     1      -4.027  13.965  24.949  0.00  0.00    +0.000 C 
ATOM      8  C   UNL     1      -3.474  13.012  23.893  0.00  0.00    +0.000 C 
ATOM      9  N   UNL     1      -1.422  11.773  22.461  0.00  0.00    +0.000 NA
ATOM     10  C   UNL     1      -0.451  11.143  21.739  0.00  0.00    +0.000 A 
ATOM     11  C   UNL     1      -0.220   9.808  21.503  0.00  0.00    +0.000 A 
ATOM     12  C   UNL     1       0.903   9.749  20.642  0.00  0.00    +0.000 A 
ATOM     13  N   UNL     1       1.389  10.979  20.411  0.00  0.00    +0.000 NA
ATOM     14  N   UNL     1       0.546  11.836  21.055  0.00  0.00    +0.000 N 
ENDROOT
BRANCH  12  15
ATOM     15  C   UNL     1       1.463   8.540  20.020  0.00  0.00    +0.000 A 
ATOM     16  N   UNL     1       1.496   7.440  20.830  0.00  0.00    +0.000 NA
ATOM     17  C   UNL     1       1.936   6.284  20.295  0.00  0.00    +0.000 A 
ATOM     18  C   UNL     1       1.975   5.122  21.063  0.00  0.00    +0.000 A 
ATOM     19  C   UNL     1       2.421   3.901  20.538  0.00  0.00    +0.000 A 
ATOM     20  C   UNL     1       2.477   2.663  21.383  0.00  0.00    +0.000 C 
ATOM     21  C   UNL     1       2.842   3.856  19.209  0.00  0.00    +0.000 A 
ATOM     22  C   UNL     1       2.808   5.012  18.431  0.00  0.00    +0.000 A 
ATOM     23  C   UNL     1       2.370   6.222  18.952  0.00  0.00    +0.000 A 
ATOM     24  N   UNL     1       2.365   7.312  18.160  0.00  0.00    +0.000 NA
ATOM     25  C   UNL     1       1.912   8.477  18.699  0.00  0.00    +0.000 A 
ATOM     26  C   UNL     1       1.968   9.665  17.786  0.00  0.00    +0.000 C 
ENDBRANCH  12  15
BRANCH   1  27
ATOM     27  N   UNL     1       1.636  13.931  20.447  0.00  0.00    +0.000 N 
ATOM     28  H   UNL     1       1.980  14.649  21.086  0.00  0.00    +0.000 HD
BRANCH  27  32
ATOM     29  N   UNL     1       4.173  15.438  18.335  0.00  0.00    +0.000 NA
ATOM     30  C   UNL     1       3.840  13.999  18.363  0.00  0.00    +0.000 C 
ATOM     31  C   UNL     1       2.356  13.751  18.096  0.00  0.00    +0.000 C 
ATOM     32  C   UNL     1       1.479  14.498  19.094  0.00  0.00    +0.000 C 
ATOM     33  C   UNL     1       1.861  15.980  19.093  0.00  0.00    +0.000 C 
ATOM     34  C   UNL     1       3.360  16.181  19.313  0.00  0.00    +0.000 C 
BRANCH  29  35
ATOM     35  C   UNL     1       5.604  15.656  18.626  0.00  0.00    +0.000 C 
BRANCH  35  37
ATOM     36  C   UNL     1       7.768  14.312  18.531  0.00  0.00    +0.000 C 
ATOM     37  C   UNL     1       6.571  14.840  17.757  0.00  0.00    +0.000 C 
ENDBRANCH  35  37
ENDBRANCH  29  35
ENDBRANCH  27  32
ENDBRANCH   1  27
TORSDOF 5
ENDMDL
MODEL 6
REMARK VINA RESULT:      -8.1      3.495      5.258
REMARK  Name = 
REMARK  8 active torsions:
REMARK  status: ('A' for Active; 'I' for Inactive)
REMARK    1  A    between atoms: C_1  and  C_2
REMARK    2  A    between atoms: C_2  and  C_3
REMARK    3  A    between atoms: C_3  and  N_4
REMARK    4  A    between atoms: C_7  and  N_8
REMARK    5  A    between atoms: N_8  and  C_9
REMARK    6  A    between atoms: C_20  and  C_21
REMARK    7  A    between atoms: C_25  and  C_26
REMARK    8  A    between atoms: C_31  and  C_32
REMARK                            x       y       z     vdW  Elec       q    Type
REMARK                         _______ _______ _______ _____ _____    ______ ____
ROOT
ATOM      1  C   UNL     1       0.035  12.801  20.521  0.00  0.00    +0.000 A 
ATOM      2  C   UNL     1      -0.915  13.389  21.265  0.00  0.00    +0.000 A 
ATOM      3  C   UNL     1      -1.713  12.552  22.224  0.00  0.00    +0.000 A 
ATOM      4  N   UNL     1      -2.672  13.159  23.019  0.00  0.00    +0.000 N 
ATOM      5  C   UNL     1      -2.626  14.547  23.455  0.00  0.00    +0.000 C 
ATOM      6  C   UNL     1      -3.095  14.490  24.901  0.00  0.00    +0.000 C 
ATOM      7  C   UNL     1      -4.131  13.382  24.878  0.00  0.00    +0.000 C 
ATOM      8  C   UNL     1      -3.563  12.378  23.880  0.00  0.00    +0.000 C 
ATOM      9  N   UNL     1      -1.525  11.257  22.335  0.00  0.00    +0.000 NA
ATOM     10  C   UNL     1      -0.559  10.677  21.565  0.00  0.00    +0.000 A 
ATOM     11  C   UNL     1      -0.143   9.371  21.466  0.00  0.00    +0.000 A 
ATOM     12  C   UNL     1       0.862   9.351  20.467  0.00  0.00    +0.000 A 
ATOM     13  N   UNL     1       1.109  10.592  20.019  0.00  0.00    +0.000 NA
ATOM     14  N   UNL     1       0.222  11.402  20.666  0.00  0.00    +0.000 N 
ENDROOT
BRANCH  12  15
ATOM     15  C   UNL     1       1.532   8.159  19.927  0.00  0.00    +0.000 A 
ATOM     16  N   UNL     1       1.541   7.077  20.760  0.00  0.00    +0.000 NA
ATOM     17  C   UNL     1       2.082   5.935  20.294  0.00  0.00    +0.000 A 
ATOM     18  C   UNL     1       2.103   4.790  21.088  0.00  0.00    +0.000 A 
ATOM     19  C   UNL     1       2.651   3.582  20.633  0.00  0.00    +0.000 A 
ATOM     20  C   UNL     1       2.687   2.364  21.507  0.00  0.00    +0.000 C 
ATOM     21  C   UNL     1       3.195   3.534  19.349  0.00  0.00    +0.000 A 
ATOM     22  C   UNL     1       3.179   4.673  18.546  0.00  0.00    +0.000 A 
ATOM     23  C   UNL     1       2.640   5.869  18.998  0.00  0.00    +0.000 A 
ATOM     24  N   UNL     1       2.657   6.943  18.184  0.00  0.00    +0.000 NA
ATOM     25  C   UNL     1       2.103   8.095  18.654  0.00  0.00    +0.000 A 
ATOM     26  C   UNL     1       2.188   9.267  17.723  0.00  0.00    +0.000 C 
ENDBRANCH  12  15
BRANCH   1  27
ATOM     27  N   UNL     1       0.873  13.523  19.656  0.00  0.00    +0.000 N 
ATOM     28  H   UNL     1       1.018  12.956  18.820  0.00  0.00    +0.000 HD
BRANCH  27  32
ATOM     29  N   UNL     1       2.086  16.927  19.324  0.00  0.00    +0.000 NA
ATOM     30  C   UNL     1       1.284  16.420  20.456  0.00  0.00    +0.000 C 
ATOM     31  C   UNL     1       1.931  15.205  21.116  0.00  0.00    +0.000 C 
ATOM     32  C   UNL     1       2.162  14.083  20.110  0.00  0.00    +0.000 C 
ATOM     33  C   UNL     1       2.953  14.625  18.918  0.00  0.00    +0.000 C 
ATOM     34  C   UNL     1       2.297  15.870  18.320  0.00  0.00    +0.000 C 
BRANCH  29  35
ATOM     35  C   UNL     1       1.426  18.082  18.682  0.00  0.00    +0.000 C 
BRANCH  35  37
ATOM     36  C   UNL     1       0.197  18.505  16.489  0.00  0.00    +0.000 C 
ATOM     37  C   UNL     1       0.224  17.728  17.796  0.00  0.00    +0.000 C 
ENDBRANCH  35  37
ENDBRANCH  29  35
ENDBRANCH  27  32
ENDBRANCH   1  27
TORSDOF 5
ENDMDL
MODEL 7
REMARK VINA RESULT:      -8.0      2.437      2.968
REMARK  Name = 
REMARK  8 active torsions:
REMARK  status: ('A' for Active; 'I' for Inactive)
REMARK    1  A    between atoms: C_1  and  C_2
REMARK    2  A    between atoms: C_2  and  C_3
REMARK    3  A    between atoms: C_3  and  N_4
REMARK    4  A    between atoms: C_7  and  N_8
REMARK    5  A    between atoms: N_8  and  C_9
REMARK    6  A    between atoms: C_20  and  C_21
REMARK    7  A    between atoms: C_25  and  C_26
REMARK    8  A    between atoms: C_31  and  C_32
REMARK                            x       y       z     vdW  Elec       q    Type
REMARK                         _______ _______ _______ _____ _____    ______ ____
ROOT
ATOM      1  C   UNL     1      -1.035  12.777  18.368  0.00  0.00    +0.000 A 
ATOM      2  C   UNL     1      -0.847  14.094  18.551  0.00  0.00    +0.000 A 
ATOM      3  C   UNL     1       0.460  14.573  19.118  0.00  0.00    +0.000 A 
ATOM      4  N   UNL     1       0.672  15.933  19.279  0.00  0.00    +0.000 N 
ATOM      5  C   UNL     1       0.046  16.968  18.469  0.00  0.00    +0.000 C 
ATOM      6  C   UNL     1       1.165  17.972  18.233  0.00  0.00    +0.000 C 
ATOM      7  C   UNL     1       1.947  17.919  19.532  0.00  0.00    +0.000 C 
ATOM      8  C   UNL     1       1.873  16.449  19.938  0.00  0.00    +0.000 C 
ATOM      9  N   UNL     1       1.412  13.737  19.463  0.00  0.00    +0.000 NA
ATOM     10  C   UNL     1       1.200  12.402  19.274  0.00  0.00    +0.000 A 
ATOM     11  C   UNL     1       1.996  11.313  19.535  0.00  0.00    +0.000 A 
ATOM     12  C   UNL     1       1.233  10.173  19.180  0.00  0.00    +0.000 A 
ATOM     13  N   UNL     1       0.051  10.537  18.659  0.00  0.00    +0.000 NA
ATOM     14  N   UNL     1       0.014  11.898  18.742  0.00  0.00    +0.000 N 
ENDROOT
BRANCH  12  15
ATOM     15  C   UNL     1       1.617   8.768  19.383  0.00  0.00    +0.000 A 
ATOM     16  N   UNL     1       2.323   8.211  18.356  0.00  0.00    +0.000 NA
ATOM     17  C   UNL     1       2.761   6.946  18.512  0.00  0.00    +0.000 A 
ATOM     18  C   UNL     1       3.505   6.329  17.508  0.00  0.00    +0.000 A 
ATOM     19  C   UNL     1       3.982   5.017  17.640  0.00  0.00    +0.000 A 
ATOM     20  C   UNL     1       4.762   4.357  16.542  0.00  0.00    +0.000 C 
ATOM     21  C   UNL     1       3.696   4.314  18.810  0.00  0.00    +0.000 A 
ATOM     22  C   UNL     1       2.953   4.921  19.821  0.00  0.00    +0.000 A 
ATOM     23  C   UNL     1       2.478   6.218  19.689  0.00  0.00    +0.000 A 
ATOM     24  N   UNL     1       1.757   6.756  20.692  0.00  0.00    +0.000 NA
ATOM     25  C   UNL     1       1.322   8.037  20.536  0.00  0.00    +0.000 A 
ATOM     26  C   UNL     1       0.491   8.568  21.665  0.00  0.00    +0.000 C 
ENDBRANCH  12  15
BRANCH   1  27
ATOM     27  N   UNL     1      -2.197  12.254  17.777  0.00  0.00    +0.000 N 
ATOM     28  H   UNL     1      -2.769  13.041  17.468  0.00  0.00    +0.000 HD
BRANCH  27  32
ATOM     29  N   UNL     1      -5.815  11.980  17.755  0.00  0.00    +0.000 NA
ATOM     30  C   UNL     1      -4.911  11.337  16.780  0.00  0.00    +0.000 C 
ATOM     31  C   UNL     1      -3.862  10.462  17.464  0.00  0.00    +0.000 C 
ATOM     32  C   UNL     1      -3.042  11.262  18.470  0.00  0.00    +0.000 C 
ATOM     33  C   UNL     1      -3.986  11.963  19.449  0.00  0.00    +0.000 C 
ATOM     34  C   UNL     1      -5.050  12.786  18.723  0.00  0.00    +0.000 C 
BRANCH  29  35
ATOM     35  C   UNL     1      -6.801  12.844  17.075  0.00  0.00    +0.000 C 
BRANCH  35  37
ATOM     36  C   UNL     1      -7.215  15.253  16.351  0.00  0.00    +0.000 C 
ATOM     37  C   UNL     1      -6.730  14.329  17.457  0.00  0.00    +0.000 C 
ENDBRANCH  35  37
ENDBRANCH  29  35
ENDBRANCH  27  32
ENDBRANCH   1  27
TORSDOF 5
ENDMDL
MODEL 8
REMARK VINA RESULT:      -8.0      1.607      2.715
REMARK  Name = 
REMARK  8 active torsions:
REMARK  status: ('A' for Active; 'I' for Inactive)
REMARK    1  A    between atoms: C_1  and  C_2
REMARK    2  A    between atoms: C_2  and  C_3
REMARK    3  A    between atoms: C_3  and  N_4
REMARK    4  A    between atoms: C_7  and  N_8
REMARK    5  A    between atoms: N_8  and  C_9
REMARK    6  A    between atoms: C_20  and  C_21
REMARK    7  A    between atoms: C_25  and  C_26
REMARK    8  A    between atoms: C_31  and  C_32
REMARK                            x       y       z     vdW  Elec       q    Type
REMARK                         _______ _______ _______ _____ _____    ______ ____
ROOT
ATOM      1  C   UNL     1      -1.555  12.489  19.112  0.00  0.00    +0.000 A 
ATOM      2  C   UNL     1      -1.765  13.620  19.805  0.00  0.00    +0.000 A 
ATOM      3  C   UNL     1      -0.850  13.955  20.949  0.00  0.00    +0.000 A 
ATOM      4  N   UNL     1      -1.041  15.137  21.647  0.00  0.00    +0.000 N 
ATOM      5  C   UNL     1      -1.632  16.343  21.083  0.00  0.00    +0.000 C 
ATOM      6  C   UNL     1      -0.780  17.466  21.655  0.00  0.00    +0.000 C 
ATOM      7  C   UNL     1      -0.437  16.959  23.043  0.00  0.00    +0.000 C 
ATOM      8  C   UNL     1      -0.262  15.456  22.844  0.00  0.00    +0.000 C 
ATOM      9  N   UNL     1       0.131  13.159  21.307  0.00  0.00    +0.000 NA
ATOM     10  C   UNL     1       0.323  12.011  20.594  0.00  0.00    +0.000 A 
ATOM     11  C   UNL     1       1.249  11.004  20.731  0.00  0.00    +0.000 A 
ATOM     12  C   UNL     1       0.936  10.043  19.739  0.00  0.00    +0.000 A 
ATOM     13  N   UNL     1      -0.087  10.463  18.978  0.00  0.00    +0.000 NA
ATOM     14  N   UNL     1      -0.484  11.652  19.516  0.00  0.00    +0.000 N 
ENDROOT
BRANCH  12  15
ATOM     15  C   UNL     1       1.578   8.732  19.561  0.00  0.00    +0.000 A 
ATOM     16  N   UNL     1       2.342   8.614  18.435  0.00  0.00    +0.000 NA
ATOM     17  C   UNL     1       3.009   7.458  18.251  0.00  0.00    +0.000 A 
ATOM     18  C   UNL     1       3.822   7.284  17.132  0.00  0.00    +0.000 A 
ATOM     19  C   UNL     1       4.535   6.098  16.912  0.00  0.00    +0.000 A 
ATOM     20  C   UNL     1       5.389   5.915  15.692  0.00  0.00    +0.000 C 
ATOM     21  C   UNL     1       4.421   5.064  17.842  0.00  0.00    +0.000 A 
ATOM     22  C   UNL     1       3.611   5.227  18.965  0.00  0.00    +0.000 A 
ATOM     23  C   UNL     1       2.902   6.400  19.180  0.00  0.00    +0.000 A 
ATOM     24  N   UNL     1       2.127   6.503  20.277  0.00  0.00    +0.000 NA
ATOM     25  C   UNL     1       1.459   7.676  20.466  0.00  0.00    +0.000 A 
ATOM     26  C   UNL     1       0.580   7.718  21.680  0.00  0.00    +0.000 C 
ENDBRANCH  12  15
BRANCH   1  27
ATOM     27  N   UNL     1      -2.318  12.140  17.985  0.00  0.00    +0.000 N 
ATOM     28  H   UNL     1      -2.597  13.005  17.520  0.00  0.00    +0.000 HD
BRANCH  27  32
ATOM     29  N   UNL     1      -3.829  10.143  15.360  0.00  0.00    +0.000 NA
ATOM     30  C   UNL     1      -2.716   9.702  16.224  0.00  0.00    +0.000 C 
ATOM     31  C   UNL     1      -3.067   9.807  17.707  0.00  0.00    +0.000 C 
ATOM     32  C   UNL     1      -3.475  11.228  18.081  0.00  0.00    +0.000 C 
ATOM     33  C   UNL     1      -4.597  11.695  17.153  0.00  0.00    +0.000 C 
ATOM     34  C   UNL     1      -4.223  11.525  15.680  0.00  0.00    +0.000 C 
BRANCH  29  35
ATOM     35  C   UNL     1      -3.456  10.061  13.933  0.00  0.00    +0.000 C 
BRANCH  35  37
ATOM     36  C   UNL     1      -4.204   9.679  11.526  0.00  0.00    +0.000 C 
ATOM     37  C   UNL     1      -4.638   9.908  12.966  0.00  0.00    +0.000 C 
ENDBRANCH  35  37
ENDBRANCH  29  35
ENDBRANCH  27  32
ENDBRANCH   1  27
TORSDOF 5
ENDMDL
MODEL 9
REMARK VINA RESULT:      -8.0      3.130      5.004
REMARK  Name = 
REMARK  8 active torsions:
REMARK  status: ('A' for Active; 'I' for Inactive)
REMARK    1  A    between atoms: C_1  and  C_2
REMARK    2  A    between atoms: C_2  and  C_3
REMARK    3  A    between atoms: C_3  and  N_4
REMARK    4  A    between atoms: C_7  and  N_8
REMARK    5  A    between atoms: N_8  and  C_9
REMARK    6  A    between atoms: C_20  and  C_21
REMARK    7  A    between atoms: C_25  and  C_26
REMARK    8  A    between atoms: C_31  and  C_32
REMARK                            x       y       z     vdW  Elec       q    Type
REMARK                         _______ _______ _______ _____ _____    ______ ____
ROOT
ATOM      1  C   UNL     1      -1.272  13.862  20.347  0.00  0.00    +0.000 A 
ATOM      2  C   UNL     1      -1.068  15.124  19.937  0.00  0.00    +0.000 A 
ATOM      3  C   UNL     1       0.080  15.413  19.012  0.00  0.00    +0.000 A 
ATOM      4  N   UNL     1       0.276  16.708  18.558  0.00  0.00    +0.000 N 
ATOM      5  C   UNL     1      -0.780  17.698  18.401  0.00  0.00    +0.000 C 
ATOM      6  C   UNL     1      -0.433  18.396  17.095  0.00  0.00    +0.000 C 
ATOM      7  C   UNL     1       1.084  18.404  17.108  0.00  0.00    +0.000 C 
ATOM      8  C   UNL     1       1.446  17.072  17.757  0.00  0.00    +0.000 C 
ATOM      9  N   UNL     1       0.904  14.471  18.615  0.00  0.00    +0.000 NA
ATOM     10  C   UNL     1       0.683  13.196  19.048  0.00  0.00    +0.000 A 
ATOM     11  C   UNL     1       1.363  12.026  18.806  0.00  0.00    +0.000 A 
ATOM     12  C   UNL     1       0.705  11.024  19.561  0.00  0.00    +0.000 A 
ATOM     13  N   UNL     1      -0.371  11.529  20.184  0.00  0.00    +0.000 NA
ATOM     14  N   UNL     1      -0.371  12.863  19.897  0.00  0.00    +0.000 N 
ENDROOT
BRANCH  12  15
ATOM     15  C   UNL     1       1.132   9.625  19.714  0.00  0.00    +0.000 A 
ATOM     16  N   UNL     1       1.882   9.137  18.681  0.00  0.00    +0.000 NA
ATOM     17  C   UNL     1       2.359   7.882  18.795  0.00  0.00    +0.000 A 
ATOM     18  C   UNL     1       3.148   7.334  17.785  0.00  0.00    +0.000 A 
ATOM     19  C   UNL     1       3.666   6.035  17.873  0.00  0.00    +0.000 A 
ATOM     20  C   UNL     1       4.495   5.449  16.768  0.00  0.00    +0.000 C 
ATOM     21  C   UNL     1       3.377   5.272  19.004  0.00  0.00    +0.000 A 
ATOM     22  C   UNL     1       2.590   5.810  20.021  0.00  0.00    +0.000 A 
ATOM     23  C   UNL     1       2.073   7.095  19.932  0.00  0.00    +0.000 A 
ATOM     24  N   UNL     1       1.311   7.564  20.939  0.00  0.00    +0.000 NA
ATOM     25  C   UNL     1       0.836   8.836  20.827  0.00  0.00    +0.000 A 
ATOM     26  C   UNL     1      -0.040   9.289  21.956  0.00  0.00    +0.000 C 
ENDBRANCH  12  15
BRANCH   1  27
ATOM     27  N   UNL     1      -2.364  13.496  21.152  0.00  0.00    +0.000 N 
ATOM     28  H   UNL     1      -3.104  14.182  21.001  0.00  0.00    +0.000 HD
BRANCH  27  32
ATOM     29  N   UNL     1      -4.607  14.418  23.851  0.00  0.00    +0.000 NA
ATOM     30  C   UNL     1      -4.684  13.162  23.078  0.00  0.00    +0.000 C 
ATOM     31  C   UNL     1      -3.369  12.387  23.113  0.00  0.00    +0.000 C 
ATOM     32  C   UNL     1      -2.211  13.235  22.597  0.00  0.00    +0.000 C 
ATOM     33  C   UNL     1      -2.165  14.554  23.371  0.00  0.00    +0.000 C 
ATOM     34  C   UNL     1      -3.515  15.271  23.353  0.00  0.00    +0.000 C 
BRANCH  29  35
ATOM     35  C   UNL     1      -5.879  15.165  23.778  0.00  0.00    +0.000 C 
BRANCH  35  37
ATOM     36  C   UNL     1      -7.880  15.893  22.376  0.00  0.00    +0.000 C 
ATOM     37  C   UNL     1      -6.517  15.216  22.383  0.00  0.00    +0.000 C 
ENDBRANCH  35  37
ENDBRANCH  29  35
ENDBRANCH  27  32
ENDBRANCH   1  27
TORSDOF 5
ENDMDL
