MODEL 1
REMARK VINA RESULT:      -8.0      0.000      0.000
REMARK  Name = 
REMARK  10 active torsions:
REMARK  status: ('A' for Active; 'I' for Inactive)
REMARK    1  A    between atoms: C_1  and  C_2
REMARK    2  A    between atoms: C_2  and  C_3
REMARK    3  A    between atoms: C_3  and  C_4
REMARK    4  A    between atoms: C_4  and  C_5
REMARK    5  A    between atoms: C_5  and  C_6
REMARK    6  A    between atoms: C_6  and  C_7
REMARK    7  A    between atoms: C_12  and  C_13
REMARK    8  A    between atoms: C_16  and  O_17
REMARK    9  A    between atoms: O_17  and  C_18
REMARK   10  A    between atoms: C_21  and  C_22
REMARK                            x       y       z     vdW  Elec       q    Type
REMARK                         _______ _______ _______ _____ _____    ______ ____
ROOT
ATOM      1  C   UNL     1       5.868   4.392  14.874  0.00  0.00    +0.000 A 
ATOM      2  C   UNL     1       6.363   5.693  14.717  0.00  0.00    +0.000 A 
ATOM      3  C   UNL     1       5.898   6.753  15.501  0.00  0.00    +0.000 A 
ATOM      4  C   UNL     1       4.903   6.471  16.441  0.00  0.00    +0.000 A 
ATOM      5  N   UNL     1       4.252   7.307  17.315  0.00  0.00    +0.000 N 
ATOM      6  C   UNL     1       3.305   6.626  18.056  0.00  0.00    +0.000 A 
ATOM      7  C   UNL     1       3.411   5.295  17.667  0.00  0.00    +0.000 A 
ATOM      8  C   UNL     1       4.388   5.195  16.634  0.00  0.00    +0.000 A 
ATOM      9  C   UNL     1       4.880   4.139  15.840  0.00  0.00    +0.000 A 
ATOM     10  H   UNL     1       4.444   8.294  17.401  0.00  0.00    +0.000 HD
ENDROOT
BRANCH   7  11
ATOM     11  C   UNL     1       2.657   4.211  18.181  0.00  0.00    +0.000 C 
ATOM     12  C   UNL     1       3.013   3.273  19.066  0.00  0.00    +0.000 C 
ATOM     13 BR   UNL     1       4.606   3.041  19.948  0.00  0.00    +0.000 Br
ATOM     14  C   UNL     1       1.861   2.364  19.240  0.00  0.00    +0.000 C 
ATOM     15  O   UNL     1       1.831   1.350  19.909  0.00  0.00    +0.000 OA
ATOM     16  N   UNL     1       0.851   2.855  18.495  0.00  0.00    +0.000 N 
ATOM     17  C   UNL     1       1.261   3.929  17.788  0.00  0.00    +0.000 C 
ATOM     18  O   UNL     1       0.612   4.511  16.941  0.00  0.00    +0.000 OA
ATOM     19  H   UNL     1      -0.045   2.410  18.382  0.00  0.00    +0.000 HD
ENDBRANCH   7  11
BRANCH   6  20
ATOM     20  C   UNL     1       2.450   7.315  19.031  0.00  0.00    +0.000 A 
ATOM     21  C   UNL     1       1.921   8.583  18.752  0.00  0.00    +0.000 A 
ATOM     22  C   UNL     1       1.115   9.242  19.687  0.00  0.00    +0.000 A 
ATOM     23  C   UNL     1       0.791   8.633  20.898  0.00  0.00    +0.000 A 
ATOM     24  C   UNL     1       1.315   7.376  21.188  0.00  0.00    +0.000 A 
ATOM     25  C   UNL     1       2.147   6.734  20.267  0.00  0.00    +0.000 A 
BRANCH  23  26
ATOM     26  O   UNL     1       0.001   9.368  21.735  0.00  0.00    +0.000 OA
ATOM     27  C   UNL     1       0.051  10.777  21.539  0.00  0.00    +0.000 C 
ENDBRANCH  23  26
ENDBRANCH   6  20
BRANCH   1  28
ATOM     28  C   UNL     1       6.369   3.267  14.000  0.00  0.00    +0.000 C 
BRANCH  28  29
ATOM     29  C   UNL     1       6.392   3.648  12.520  0.00  0.00    +0.000 C 
BRANCH  29  30
ATOM     30  C   UNL     1       5.407   2.801  11.717  0.00  0.00    +0.000 C 
BRANCH  30  31
ATOM     31  C   UNL     1       4.054   3.502  11.613  0.00  0.00    +0.000 C 
BRANCH  31  33
ATOM     32  C   UNL     1       2.875   4.329   9.557  0.00  0.00    +0.000 C 
ATOM     33  C   UNL     1       3.319   3.103  10.337  0.00  0.00    +0.000 C 
ENDBRANCH  31  33
ENDBRANCH  30  31
ENDBRANCH  29  30
ENDBRANCH  28  29
ENDBRANCH   1  28
TORSDOF 8
ENDMDL
MODEL 2
REMARK VINA RESULT:      -7.4      5.170      8.501
REMARK  Name = 
REMARK  10 active torsions:
REMARK  status: ('A' for Active; 'I' for Inactive)
REMARK    1  A    between atoms: C_1  and  C_2
REMARK    2  A    between atoms: C_2  and  C_3
REMARK    3  A    between atoms: C_3  and  C_4
REMARK    4  A    between atoms: C_4  and  C_5
REMARK    5  A    between atoms: C_5  and  C_6
REMARK    6  A    between atoms: C_6  and  C_7
REMARK    7  A    between atoms: C_12  and  C_13
REMARK    8  A    between atoms: C_16  and  O_17
REMARK    9  A    between atoms: O_17  and  C_18
REMARK   10  A    between atoms: C_21  and  C_22
REMARK                            x       y       z     vdW  Elec       q    Type
REMARK                         _______ _______ _______ _____ _____    ______ ____
ROOT
ATOM      1  C   UNL     1       1.735   8.180  19.464  0.00  0.00    +0.000 A 
ATOM      2  C   UNL     1       1.483   7.401  20.600  0.00  0.00    +0.000 A 
ATOM      3  C   UNL     1       0.731   7.892  21.672  0.00  0.00    +0.000 A 
ATOM      4  C   UNL     1       0.252   9.201  21.577  0.00  0.00    +0.000 A 
ATOM      5  N   UNL     1      -0.481   9.940  22.473  0.00  0.00    +0.000 N 
ATOM      6  C   UNL     1      -0.723  11.215  21.999  0.00  0.00    +0.000 A 
ATOM      7  C   UNL     1      -0.166  11.253  20.726  0.00  0.00    +0.000 A 
ATOM      8  C   UNL     1       0.473  10.006  20.466  0.00  0.00    +0.000 A 
ATOM      9  C   UNL     1       1.224   9.486  19.392  0.00  0.00    +0.000 A 
ATOM     10  H   UNL     1      -0.799   9.592  23.365  0.00  0.00    +0.000 HD
ENDROOT
BRANCH   7  11
ATOM     11  C   UNL     1      -0.193  12.355  19.834  0.00  0.00    +0.000 C 
ATOM     12  C   UNL     1       0.628  13.409  19.761  0.00  0.00    +0.000 C 
ATOM     13 BR   UNL     1       2.096  13.820  20.782  0.00  0.00    +0.000 Br
ATOM     14  C   UNL     1       0.142  14.277  18.668  0.00  0.00    +0.000 C 
ATOM     15  O   UNL     1       0.588  15.362  18.351  0.00  0.00    +0.000 OA
ATOM     16  N   UNL     1      -0.908  13.652  18.101  0.00  0.00    +0.000 N 
ATOM     17  C   UNL     1      -1.208  12.521  18.773  0.00  0.00    +0.000 C 
ATOM     18  O   UNL     1      -2.174  11.811  18.573  0.00  0.00    +0.000 OA
ATOM     19  H   UNL     1      -1.471  14.037  17.360  0.00  0.00    +0.000 HD
ENDBRANCH   7  11
BRANCH   6  20
ATOM     20  C   UNL     1      -1.453  12.208  22.799  0.00  0.00    +0.000 A 
ATOM     21  C   UNL     1      -0.866  13.439  23.125  0.00  0.00    +0.000 A 
ATOM     22  C   UNL     1      -1.559  14.378  23.897  0.00  0.00    +0.000 A 
ATOM     23  C   UNL     1      -2.862  14.122  24.323  0.00  0.00    +0.000 A 
ATOM     24  C   UNL     1      -3.452  12.901  24.010  0.00  0.00    +0.000 A 
ATOM     25  C   UNL     1      -2.746  11.951  23.267  0.00  0.00    +0.000 A 
BRANCH  23  26
ATOM     26  O   UNL     1      -3.441  15.107  25.072  0.00  0.00    +0.000 OA
ATOM     27  C   UNL     1      -3.174  16.437  24.641  0.00  0.00    +0.000 C 
ENDBRANCH  23  26
ENDBRANCH   6  20
BRANCH   1  28
ATOM     28  C   UNL     1       2.569   7.637  18.328  0.00  0.00    +0.000 C 
BRANCH  28  29
ATOM     29  C   UNL     1       3.377   6.406  18.739  0.00  0.00    +0.000 C 
BRANCH  29  30
ATOM     30  C   UNL     1       3.121   5.236  17.791  0.00  0.00    +0.000 C 
BRANCH  30  31
ATOM     31  C   UNL     1       1.659   4.800  17.859  0.00  0.00    +0.000 C 
BRANCH  31  33
ATOM     32  C   UNL     1       1.308   2.448  18.664  0.00  0.00    +0.000 C 
ATOM     33  C   UNL     1       1.401   3.909  19.071  0.00  0.00    +0.000 C 
ENDBRANCH  31  33
ENDBRANCH  30  31
ENDBRANCH  29  30
ENDBRANCH  28  29
ENDBRANCH   1  28
TORSDOF 8
ENDMDL
MODEL 3
REMARK VINA RESULT:      -7.2      5.253      8.443
REMARK  Name = 
REMARK  10 active torsions:
REMARK  status: ('A' for Active; 'I' for Inactive)
REMARK    1  A    between atoms: C_1  and  C_2
REMARK    2  A    between atoms: C_2  and  C_3
REMARK    3  A    between atoms: C_3  and  C_4
REMARK    4  A    between atoms: C_4  and  C_5
REMARK    5  A    between atoms: C_5  and  C_6
REMARK    6  A    between atoms: C_6  and  C_7
REMARK    7  A    between atoms: C_12  and  C_13
REMARK    8  A    between atoms: C_16  and  O_17
REMARK    9  A    between atoms: O_17  and  C_18
REMARK   10  A    between atoms: C_21  and  C_22
REMARK                            x       y       z     vdW  Elec       q    Type
REMARK                         _______ _______ _______ _____ _____    ______ ____
ROOT
ATOM      1  C   UNL     1       1.902   7.969  19.418  0.00  0.00    +0.000 A 
ATOM      2  C   UNL     1       1.648   7.219  20.573  0.00  0.00    +0.000 A 
ATOM      3  C   UNL     1       0.893   7.735  21.630  0.00  0.00    +0.000 A 
ATOM      4  C   UNL     1       0.411   9.040  21.501  0.00  0.00    +0.000 A 
ATOM      5  N   UNL     1      -0.326   9.801  22.375  0.00  0.00    +0.000 N 
ATOM      6  C   UNL     1      -0.569  11.063  21.868  0.00  0.00    +0.000 A 
ATOM      7  C   UNL     1      -0.008  11.069  20.595  0.00  0.00    +0.000 A 
ATOM      8  C   UNL     1       0.633   9.817  20.369  0.00  0.00    +0.000 A 
ATOM      9  C   UNL     1       1.389   9.271  19.311  0.00  0.00    +0.000 A 
ATOM     10  H   UNL     1      -0.646   9.474  23.275  0.00  0.00    +0.000 HD
ENDROOT
BRANCH   7  11
ATOM     11  C   UNL     1      -0.036  12.148  19.676  0.00  0.00    +0.000 C 
ATOM     12  C   UNL     1       0.770  13.212  19.592  0.00  0.00    +0.000 C 
ATOM     13 BR   UNL     1       2.212  13.673  20.629  0.00  0.00    +0.000 Br
ATOM     14  C   UNL     1       0.292  14.045  18.468  0.00  0.00    +0.000 C 
ATOM     15  O   UNL     1       0.727  15.129  18.132  0.00  0.00    +0.000 OA
ATOM     16  N   UNL     1      -0.738  13.390  17.898  0.00  0.00    +0.000 N 
ATOM     17  C   UNL     1      -1.033  12.271  18.593  0.00  0.00    +0.000 C 
ATOM     18  O   UNL     1      -1.984  11.541  18.393  0.00  0.00    +0.000 OA
ATOM     19  H   UNL     1      -1.292  13.747  17.137  0.00  0.00    +0.000 HD
ENDBRANCH   7  11
BRANCH   6  20
ATOM     20  C   UNL     1      -1.303  12.074  22.640  0.00  0.00    +0.000 A 
ATOM     21  C   UNL     1      -2.581  11.802  23.149  0.00  0.00    +0.000 A 
ATOM     22  C   UNL     1      -3.282  12.771  23.875  0.00  0.00    +0.000 A 
ATOM     23  C   UNL     1      -2.706  14.012  24.139  0.00  0.00    +0.000 A 
ATOM     24  C   UNL     1      -1.441  14.296  23.633  0.00  0.00    +0.000 A 
ATOM     25  C   UNL     1      -0.756  13.339  22.880  0.00  0.00    +0.000 A 
BRANCH  23  26
ATOM     26  O   UNL     1      -3.481  14.882  24.853  0.00  0.00    +0.000 OA
ATOM     27  C   UNL     1      -2.767  15.862  25.599  0.00  0.00    +0.000 C 
ENDBRANCH  23  26
ENDBRANCH   6  20
BRANCH   1  28
ATOM     28  C   UNL     1       2.740   7.399  18.299  0.00  0.00    +0.000 C 
BRANCH  28  29
ATOM     29  C   UNL     1       2.986   5.899  18.463  0.00  0.00    +0.000 C 
BRANCH  29  30
ATOM     30  C   UNL     1       1.915   5.083  17.742  0.00  0.00    +0.000 C 
BRANCH  30  31
ATOM     31  C   UNL     1       1.724   3.728  18.422  0.00  0.00    +0.000 C 
BRANCH  31  33
ATOM     32  C   UNL     1       1.173   3.478  20.858  0.00  0.00    +0.000 C 
ATOM     33  C   UNL     1       2.275   3.738  19.845  0.00  0.00    +0.000 C 
ENDBRANCH  31  33
ENDBRANCH  30  31
ENDBRANCH  29  30
ENDBRANCH  28  29
ENDBRANCH   1  28
TORSDOF 8
ENDMDL
MODEL 4
REMARK VINA RESULT:      -7.2      5.058      8.465
REMARK  Name = 
REMARK  10 active torsions:
REMARK  status: ('A' for Active; 'I' for Inactive)
REMARK    1  A    between atoms: C_1  and  C_2
REMARK    2  A    between atoms: C_2  and  C_3
REMARK    3  A    between atoms: C_3  and  C_4
REMARK    4  A    between atoms: C_4  and  C_5
REMARK    5  A    between atoms: C_5  and  C_6
REMARK    6  A    between atoms: C_6  and  C_7
REMARK    7  A    between atoms: C_12  and  C_13
REMARK    8  A    between atoms: C_16  and  O_17
REMARK    9  A    between atoms: O_17  and  C_18
REMARK   10  A    between atoms: C_21  and  C_22
REMARK                            x       y       z     vdW  Elec       q    Type
REMARK                         _______ _______ _______ _____ _____    ______ ____
ROOT
ATOM      1  C   UNL     1       1.874   8.302  19.344  0.00  0.00    +0.000 A 
ATOM      2  C   UNL     1       1.604   7.486  20.450  0.00  0.00    +0.000 A 
ATOM      3  C   UNL     1       0.826   7.938  21.520  0.00  0.00    +0.000 A 
ATOM      4  C   UNL     1       0.340   9.246  21.457  0.00  0.00    +0.000 A 
ATOM      5  N   UNL     1      -0.416   9.952  22.360  0.00  0.00    +0.000 N 
ATOM      6  C   UNL     1      -0.658  11.240  21.921  0.00  0.00    +0.000 A 
ATOM      7  C   UNL     1      -0.074  11.321  20.661  0.00  0.00    +0.000 A 
ATOM      8  C   UNL     1       0.578  10.087  20.376  0.00  0.00    +0.000 A 
ATOM      9  C   UNL     1       1.355   9.606  19.302  0.00  0.00    +0.000 A 
ATOM     10  H   UNL     1      -0.750   9.574  23.234  0.00  0.00    +0.000 HD
ENDROOT
BRANCH   7  11
ATOM     11  C   UNL     1      -0.091  12.450  19.804  0.00  0.00    +0.000 C 
ATOM     12  C   UNL     1       0.732  13.504  19.772  0.00  0.00    +0.000 C 
ATOM     13 BR   UNL     1       2.191  13.881  20.819  0.00  0.00    +0.000 Br
ATOM     14  C   UNL     1       0.258  14.407  18.702  0.00  0.00    +0.000 C 
ATOM     15  O   UNL     1       0.709  15.500  18.423  0.00  0.00    +0.000 OA
ATOM     16  N   UNL     1      -0.787  13.802  18.106  0.00  0.00    +0.000 N 
ATOM     17  C   UNL     1      -1.096  12.652  18.740  0.00  0.00    +0.000 C 
ATOM     18  O   UNL     1      -2.061  11.950  18.508  0.00  0.00    +0.000 OA
ATOM     19  H   UNL     1      -1.342  14.211  17.372  0.00  0.00    +0.000 HD
ENDBRANCH   7  11
BRANCH   6  20
ATOM     20  C   UNL     1      -1.410  12.202  22.736  0.00  0.00    +0.000 A 
ATOM     21  C   UNL     1      -0.850  13.437  23.090  0.00  0.00    +0.000 A 
ATOM     22  C   UNL     1      -1.565  14.347  23.876  0.00  0.00    +0.000 A 
ATOM     23  C   UNL     1      -2.864  14.058  24.290  0.00  0.00    +0.000 A 
ATOM     24  C   UNL     1      -3.429  12.832  23.950  0.00  0.00    +0.000 A 
ATOM     25  C   UNL     1      -2.701  11.911  23.193  0.00  0.00    +0.000 A 
BRANCH  23  26
ATOM     26  O   UNL     1      -3.467  15.016  25.055  0.00  0.00    +0.000 OA
ATOM     27  C   UNL     1      -2.676  16.170  25.319  0.00  0.00    +0.000 C 
ENDBRANCH  23  26
ENDBRANCH   6  20
BRANCH   1  28
ATOM     28  C   UNL     1       2.735   7.800  18.209  0.00  0.00    +0.000 C 
BRANCH  28  29
ATOM     29  C   UNL     1       3.134   6.335  18.387  0.00  0.00    +0.000 C 
BRANCH  29  30
ATOM     30  C   UNL     1       4.141   5.904  17.323  0.00  0.00    +0.000 C 
BRANCH  30  31
ATOM     31  C   UNL     1       5.193   6.990  17.108  0.00  0.00    +0.000 C 
BRANCH  31  33
ATOM     32  C   UNL     1       7.593   7.570  17.564  0.00  0.00    +0.000 C 
ATOM     33  C   UNL     1       6.604   6.445  17.309  0.00  0.00    +0.000 C 
ENDBRANCH  31  33
ENDBRANCH  30  31
ENDBRANCH  29  30
ENDBRANCH  28  29
ENDBRANCH   1  28
TORSDOF 8
ENDMDL
MODEL 5
REMARK VINA RESULT:      -7.1      2.564      8.513
REMARK  Name = 
REMARK  10 active torsions:
REMARK  status: ('A' for Active; 'I' for Inactive)
REMARK    1  A    between atoms: C_1  and  C_2
REMARK    2  A    between atoms: C_2  and  C_3
REMARK    3  A    between atoms: C_3  and  C_4
REMARK    4  A    between atoms: C_4  and  C_5
REMARK    5  A    between atoms: C_5  and  C_6
REMARK    6  A    between atoms: C_6  and  C_7
REMARK    7  A    between atoms: C_12  and  C_13
REMARK    8  A    between atoms: C_16  and  O_17
REMARK    9  A    between atoms: O_17  and  C_18
REMARK   10  A    between atoms: C_21  and  C_22
REMARK                            x       y       z     vdW  Elec       q    Type
REMARK                         _______ _______ _______ _____ _____    ______ ____
ROOT
ATOM      1  C   UNL     1       1.533   8.106  20.219  0.00  0.00    +0.000 A 
ATOM      2  C   UNL     1       1.544   9.146  19.282  0.00  0.00    +0.000 A 
ATOM      3  C   UNL     1       2.232   9.031  18.070  0.00  0.00    +0.000 A 
ATOM      4  C   UNL     1       2.926   7.842  17.833  0.00  0.00    +0.000 A 
ATOM      5  N   UNL     1       3.696   7.467  16.758  0.00  0.00    +0.000 N 
ATOM      6  C   UNL     1       4.234   6.208  16.937  0.00  0.00    +0.000 A 
ATOM      7  C   UNL     1       3.731   5.754  18.151  0.00  0.00    +0.000 A 
ATOM      8  C   UNL     1       2.935   6.783  18.732  0.00  0.00    +0.000 A 
ATOM      9  C   UNL     1       2.225   6.917  19.943  0.00  0.00    +0.000 A 
ATOM     10  H   UNL     1       3.846   8.045  15.944  0.00  0.00    +0.000 HD
ENDROOT
BRANCH   7  11
ATOM     11  C   UNL     1       3.985   4.489  18.740  0.00  0.00    +0.000 C 
ATOM     12  C   UNL     1       3.157   3.452  18.912  0.00  0.00    +0.000 C 
ATOM     13 BR   UNL     1       1.391   3.275  18.447  0.00  0.00    +0.000 Br
ATOM     14  C   UNL     1       3.916   2.387  19.600  0.00  0.00    +0.000 C 
ATOM     15  O   UNL     1       3.481   1.322  19.990  0.00  0.00    +0.000 OA
ATOM     16  N   UNL     1       5.183   2.826  19.737  0.00  0.00    +0.000 N 
ATOM     17  C   UNL     1       5.295   4.097  19.297  0.00  0.00    +0.000 C 
ATOM     18  O   UNL     1       6.281   4.800  19.402  0.00  0.00    +0.000 OA
ATOM     19  H   UNL     1       5.913   2.326  20.217  0.00  0.00    +0.000 HD
ENDBRANCH   7  11
BRANCH   6  20
ATOM     20  C   UNL     1       5.130   5.606  15.940  0.00  0.00    +0.000 A 
ATOM     21  C   UNL     1       4.642   4.693  14.994  0.00  0.00    +0.000 A 
ATOM     22  C   UNL     1       5.500   4.114  14.053  0.00  0.00    +0.000 A 
ATOM     23  C   UNL     1       6.849   4.463  14.013  0.00  0.00    +0.000 A 
ATOM     24  C   UNL     1       7.346   5.364  14.951  0.00  0.00    +0.000 A 
ATOM     25  C   UNL     1       6.494   5.916  15.911  0.00  0.00    +0.000 A 
BRANCH  23  26
ATOM     26  O   UNL     1       7.593   3.834  13.056  0.00  0.00    +0.000 OA
ATOM     27  C   UNL     1       7.014   3.805  11.756  0.00  0.00    +0.000 C 
ENDBRANCH  23  26
ENDBRANCH   6  20
BRANCH   1  28
ATOM     28  C   UNL     1       0.802   8.261  21.532  0.00  0.00    +0.000 C 
BRANCH  28  29
ATOM     29  C   UNL     1      -0.336   9.278  21.445  0.00  0.00    +0.000 C 
BRANCH  29  30
ATOM     30  C   UNL     1      -0.038  10.513  22.292  0.00  0.00    +0.000 C 
BRANCH  30  31
ATOM     31  C   UNL     1      -1.213  10.828  23.216  0.00  0.00    +0.000 C 
BRANCH  31  33
ATOM     32  C   UNL     1      -3.272  12.232  23.519  0.00  0.00    +0.000 C 
ATOM     33  C   UNL     1      -1.979  12.059  22.741  0.00  0.00    +0.000 C 
ENDBRANCH  31  33
ENDBRANCH  30  31
ENDBRANCH  29  30
ENDBRANCH  28  29
ENDBRANCH   1  28
TORSDOF 8
ENDMDL
MODEL 6
REMARK VINA RESULT:      -7.1      2.048      8.235
REMARK  Name = 
REMARK  10 active torsions:
REMARK  status: ('A' for Active; 'I' for Inactive)
REMARK    1  A    between atoms: C_1  and  C_2
REMARK    2  A    between atoms: C_2  and  C_3
REMARK    3  A    between atoms: C_3  and  C_4
REMARK    4  A    between atoms: C_4  and  C_5
REMARK    5  A    between atoms: C_5  and  C_6
REMARK    6  A    between atoms: C_6  and  C_7
REMARK    7  A    between atoms: C_12  and  C_13
REMARK    8  A    between atoms: C_16  and  O_17
REMARK    9  A    between atoms: O_17  and  C_18
REMARK   10  A    between atoms: C_21  and  C_22
REMARK                            x       y       z     vdW  Elec       q    Type
REMARK                         _______ _______ _______ _____ _____    ______ ____
ROOT
ATOM      1  C   UNL     1       0.915   8.348  20.973  0.00  0.00    +0.000 A 
ATOM      2  C   UNL     1       0.925   9.380  20.026  0.00  0.00    +0.000 A 
ATOM      3  C   UNL     1       1.587   9.244  18.803  0.00  0.00    +0.000 A 
ATOM      4  C   UNL     1       2.258   8.042  18.563  0.00  0.00    +0.000 A 
ATOM      5  N   UNL     1       3.001   7.646  17.477  0.00  0.00    +0.000 N 
ATOM      6  C   UNL     1       3.523   6.379  17.656  0.00  0.00    +0.000 A 
ATOM      7  C   UNL     1       3.037   5.944  18.884  0.00  0.00    +0.000 A 
ATOM      8  C   UNL     1       2.268   6.990  19.471  0.00  0.00    +0.000 A 
ATOM      9  C   UNL     1       1.583   7.145  20.694  0.00  0.00    +0.000 A 
ATOM     10  H   UNL     1       3.145   8.214  16.656  0.00  0.00    +0.000 HD
ENDROOT
BRANCH   7  11
ATOM     11  C   UNL     1       3.281   4.681  19.479  0.00  0.00    +0.000 C 
ATOM     12  C   UNL     1       4.447   4.088  19.763  0.00  0.00    +0.000 C 
ATOM     13 BR   UNL     1       6.160   4.688  19.496  0.00  0.00    +0.000 Br
ATOM     14  C   UNL     1       4.142   2.769  20.356  0.00  0.00    +0.000 C 
ATOM     15  O   UNL     1       4.945   1.914  20.674  0.00  0.00    +0.000 OA
ATOM     16  N   UNL     1       2.802   2.677  20.456  0.00  0.00    +0.000 N 
ATOM     17  C   UNL     1       2.209   3.757  19.903  0.00  0.00    +0.000 C 
ATOM     18  O   UNL     1       1.015   3.903  19.736  0.00  0.00    +0.000 OA
ATOM     19  H   UNL     1       2.307   1.863  20.780  0.00  0.00    +0.000 HD
ENDBRANCH   7  11
BRANCH   6  20
ATOM     20  C   UNL     1       4.390   5.756  16.648  0.00  0.00    +0.000 A 
ATOM     21  C   UNL     1       5.288   6.526  15.896  0.00  0.00    +0.000 A 
ATOM     22  C   UNL     1       6.104   5.931  14.928  0.00  0.00    +0.000 A 
ATOM     23  C   UNL     1       6.068   4.553  14.721  0.00  0.00    +0.000 A 
ATOM     24  C   UNL     1       5.176   3.778  15.457  0.00  0.00    +0.000 A 
ATOM     25  C   UNL     1       4.337   4.379  16.399  0.00  0.00    +0.000 A 
BRANCH  23  26
ATOM     26  O   UNL     1       6.904   4.080  13.750  0.00  0.00    +0.000 OA
ATOM     27  C   UNL     1       6.262   3.593  12.577  0.00  0.00    +0.000 C 
ENDBRANCH  23  26
ENDBRANCH   6  20
BRANCH   1  28
ATOM     28  C   UNL     1       0.212   8.526  22.298  0.00  0.00    +0.000 C 
BRANCH  28  29
ATOM     29  C   UNL     1       0.340   9.950  22.836  0.00  0.00    +0.000 C 
BRANCH  29  30
ATOM     30  C   UNL     1      -1.030  10.607  22.993  0.00  0.00    +0.000 C 
BRANCH  30  31
ATOM     31  C   UNL     1      -0.954  12.095  22.658  0.00  0.00    +0.000 C 
BRANCH  31  33
ATOM     32  C   UNL     1      -1.945  12.136  20.352  0.00  0.00    +0.000 C 
ATOM     33  C   UNL     1      -2.141  12.534  21.805  0.00  0.00    +0.000 C 
ENDBRANCH  31  33
ENDBRANCH  30  31
ENDBRANCH  29  30
ENDBRANCH  28  29
ENDBRANCH   1  28
TORSDOF 8
ENDMDL
MODEL 7
REMARK VINA RESULT:      -7.1      2.608      8.198
REMARK  Name = 
REMARK  10 active torsions:
REMARK  status: ('A' for Active; 'I' for Inactive)
REMARK    1  A    between atoms: C_1  and  C_2
REMARK    2  A    between atoms: C_2  and  C_3
REMARK    3  A    between atoms: C_3  and  C_4
REMARK    4  A    between atoms: C_4  and  C_5
REMARK    5  A    between atoms: C_5  and  C_6
REMARK    6  A    between atoms: C_6  and  C_7
REMARK    7  A    between atoms: C_12  and  C_13
REMARK    8  A    between atoms: C_16  and  O_17
REMARK    9  A    between atoms: O_17  and  C_18
REMARK   10  A    between atoms: C_21  and  C_22
REMARK                            x       y       z     vdW  Elec       q    Type
REMARK                         _______ _______ _______ _____ _____    ______ ____
ROOT
ATOM      1  C   UNL     1       1.366   7.997  20.410  0.00  0.00    +0.000 A 
ATOM      2  C   UNL     1       1.385   9.076  19.518  0.00  0.00    +0.000 A 
ATOM      3  C   UNL     1       2.093   9.018  18.314  0.00  0.00    +0.000 A 
ATOM      4  C   UNL     1       2.800   7.844  18.038  0.00  0.00    +0.000 A 
ATOM      5  N   UNL     1       3.590   7.521  16.962  0.00  0.00    +0.000 N 
ATOM      6  C   UNL     1       4.135   6.258  17.095  0.00  0.00    +0.000 A 
ATOM      7  C   UNL     1       3.615   5.750  18.281  0.00  0.00    +0.000 A 
ATOM      8  C   UNL     1       2.802   6.748  18.892  0.00  0.00    +0.000 A 
ATOM      9  C   UNL     1       2.072   6.826  20.096  0.00  0.00    +0.000 A 
ATOM     10  H   UNL     1       3.749   8.133  16.175  0.00  0.00    +0.000 HD
ENDROOT
BRANCH   7  11
ATOM     11  C   UNL     1       3.869   4.463  18.820  0.00  0.00    +0.000 C 
ATOM     12  C   UNL     1       3.039   3.423  18.959  0.00  0.00    +0.000 C 
ATOM     13 BR   UNL     1       1.269   3.268  18.499  0.00  0.00    +0.000 Br
ATOM     14  C   UNL     1       3.799   2.330  19.600  0.00  0.00    +0.000 C 
ATOM     15  O   UNL     1       3.363   1.253  19.953  0.00  0.00    +0.000 OA
ATOM     16  N   UNL     1       5.068   2.760  19.746  0.00  0.00    +0.000 N 
ATOM     17  C   UNL     1       5.182   4.046  19.354  0.00  0.00    +0.000 C 
ATOM     18  O   UNL     1       6.170   4.742  19.478  0.00  0.00    +0.000 OA
ATOM     19  H   UNL     1       5.799   2.240  20.202  0.00  0.00    +0.000 HD
ENDBRANCH   7  11
BRANCH   6  20
ATOM     20  C   UNL     1       5.051   5.706  16.089  0.00  0.00    +0.000 A 
ATOM     21  C   UNL     1       6.369   6.172  15.984  0.00  0.00    +0.000 A 
ATOM     22  C   UNL     1       7.236   5.651  15.017  0.00  0.00    +0.000 A 
ATOM     23  C   UNL     1       6.816   4.631  14.165  0.00  0.00    +0.000 A 
ATOM     24  C   UNL     1       5.507   4.165  14.255  0.00  0.00    +0.000 A 
ATOM     25  C   UNL     1       4.633   4.709  15.200  0.00  0.00    +0.000 A 
BRANCH  23  26
ATOM     26  O   UNL     1       7.743   4.201  13.258  0.00  0.00    +0.000 OA
ATOM     27  C   UNL     1       7.348   4.291  11.894  0.00  0.00    +0.000 C 
ENDBRANCH  23  26
ENDBRANCH   6  20
BRANCH   1  28
ATOM     28  C   UNL     1       0.613   8.092  21.716  0.00  0.00    +0.000 C 
BRANCH  28  29
ATOM     29  C   UNL     1       0.845   9.426  22.425  0.00  0.00    +0.000 C 
BRANCH  29  30
ATOM     30  C   UNL     1      -0.387   9.850  23.221  0.00  0.00    +0.000 C 
BRANCH  30  31
ATOM     31  C   UNL     1      -0.989  11.128  22.639  0.00  0.00    +0.000 C 
BRANCH  31  33
ATOM     32  C   UNL     1      -0.897  12.112  20.332  0.00  0.00    +0.000 C 
ATOM     33  C   UNL     1      -0.091  11.724  21.559  0.00  0.00    +0.000 C 
ENDBRANCH  31  33
ENDBRANCH  30  31
ENDBRANCH  29  30
ENDBRANCH  28  29
ENDBRANCH   1  28
TORSDOF 8
ENDMDL
MODEL 8
REMARK VINA RESULT:      -7.0      4.482      8.340
REMARK  Name = 
REMARK  10 active torsions:
REMARK  status: ('A' for Active; 'I' for Inactive)
REMARK    1  A    between atoms: C_1  and  C_2
REMARK    2  A    between atoms: C_2  and  C_3
REMARK    3  A    between atoms: C_3  and  C_4
REMARK    4  A    between atoms: C_4  and  C_5
REMARK    5  A    between atoms: C_5  and  C_6
REMARK    6  A    between atoms: C_6  and  C_7
REMARK    7  A    between atoms: C_12  and  C_13
REMARK    8  A    between atoms: C_16  and  O_17
REMARK    9  A    between atoms: O_17  and  C_18
REMARK   10  A    between atoms: C_21  and  C_22
REMARK                            x       y       z     vdW  Elec       q    Type
REMARK                         _______ _______ _______ _____ _____    ______ ____
ROOT
ATOM      1  C   UNL     1       1.810   8.269  19.373  0.00  0.00    +0.000 A 
ATOM      2  C   UNL     1       1.507   7.463  20.478  0.00  0.00    +0.000 A 
ATOM      3  C   UNL     1       0.728   7.937  21.538  0.00  0.00    +0.000 A 
ATOM      4  C   UNL     1       0.275   9.256  21.466  0.00  0.00    +0.000 A 
ATOM      5  N   UNL     1      -0.475   9.983  22.358  0.00  0.00    +0.000 N 
ATOM      6  C   UNL     1      -0.680  11.275  21.913  0.00  0.00    +0.000 A 
ATOM      7  C   UNL     1      -0.080  11.339  20.661  0.00  0.00    +0.000 A 
ATOM      8  C   UNL     1       0.546  10.088  20.386  0.00  0.00    +0.000 A 
ATOM      9  C   UNL     1       1.324   9.585  19.322  0.00  0.00    +0.000 A 
ATOM     10  H   UNL     1      -0.828   9.615  23.229  0.00  0.00    +0.000 HD
ENDROOT
BRANCH   7  11
ATOM     11  C   UNL     1      -0.059  12.465  19.801  0.00  0.00    +0.000 C 
ATOM     12  C   UNL     1       0.795  13.495  19.770  0.00  0.00    +0.000 C 
ATOM     13 BR   UNL     1       2.259  13.831  20.824  0.00  0.00    +0.000 Br
ATOM     14  C   UNL     1       0.353  14.408  18.696  0.00  0.00    +0.000 C 
ATOM     15  O   UNL     1       0.837  15.487  18.416  0.00  0.00    +0.000 OA
ATOM     16  N   UNL     1      -0.707  13.833  18.095  0.00  0.00    +0.000 N 
ATOM     17  C   UNL     1      -1.052  12.693  18.730  0.00  0.00    +0.000 C 
ATOM     18  O   UNL     1      -2.036  12.020  18.496  0.00  0.00    +0.000 OA
ATOM     19  H   UNL     1      -1.246  14.256  17.358  0.00  0.00    +0.000 HD
ENDBRANCH   7  11
BRANCH   6  20
ATOM     20  C   UNL     1      -1.418  12.257  22.718  0.00  0.00    +0.000 A 
ATOM     21  C   UNL     1      -2.731  12.001  23.137  0.00  0.00    +0.000 A 
ATOM     22  C   UNL     1      -3.436  12.944  23.894  0.00  0.00    +0.000 A 
ATOM     23  C   UNL     1      -2.831  14.139  24.278  0.00  0.00    +0.000 A 
ATOM     24  C   UNL     1      -1.530  14.408  23.862  0.00  0.00    +0.000 A 
ATOM     25  C   UNL     1      -0.840  13.479  23.078  0.00  0.00    +0.000 A 
BRANCH  23  26
ATOM     26  O   UNL     1      -3.613  14.986  25.011  0.00  0.00    +0.000 OA
ATOM     27  C   UNL     1      -3.016  16.236  25.338  0.00  0.00    +0.000 C 
ENDBRANCH  23  26
ENDBRANCH   6  20
BRANCH   1  28
ATOM     28  C   UNL     1       2.671   7.744  18.250  0.00  0.00    +0.000 C 
BRANCH  28  29
ATOM     29  C   UNL     1       2.562   6.227  18.096  0.00  0.00    +0.000 C 
BRANCH  29  30
ATOM     30  C   UNL     1       3.906   5.548  18.350  0.00  0.00    +0.000 C 
BRANCH  30  31
ATOM     31  C   UNL     1       4.402   4.848  17.086  0.00  0.00    +0.000 C 
BRANCH  31  33
ATOM     32  C   UNL     1       5.700   5.113  14.954  0.00  0.00    +0.000 C 
ATOM     33  C   UNL     1       5.063   5.835  16.128  0.00  0.00    +0.000 C 
ENDBRANCH  31  33
ENDBRANCH  30  31
ENDBRANCH  29  30
ENDBRANCH  28  29
ENDBRANCH   1  28
TORSDOF 8
ENDMDL
MODEL 9
REMARK VINA RESULT:      -7.0      2.543      8.419
REMARK  Name = 
REMARK  10 active torsions:
REMARK  status: ('A' for Active; 'I' for Inactive)
REMARK    1  A    between atoms: C_1  and  C_2
REMARK    2  A    between atoms: C_2  and  C_3
REMARK    3  A    between atoms: C_3  and  C_4
REMARK    4  A    between atoms: C_4  and  C_5
REMARK    5  A    between atoms: C_5  and  C_6
REMARK    6  A    between atoms: C_6  and  C_7
REMARK    7  A    between atoms: C_12  and  C_13
REMARK    8  A    between atoms: C_16  and  O_17
REMARK    9  A    between atoms: O_17  and  C_18
REMARK   10  A    between atoms: C_21  and  C_22
REMARK                            x       y       z     vdW  Elec       q    Type
REMARK                         _______ _______ _______ _____ _____    ______ ____
ROOT
ATOM      1  C   UNL     1       1.265   8.493  20.580  0.00  0.00    +0.000 A 
ATOM      2  C   UNL     1       1.200   9.411  19.524  0.00  0.00    +0.000 A 
ATOM      3  C   UNL     1       1.808   9.153  18.292  0.00  0.00    +0.000 A 
ATOM      4  C   UNL     1       2.502   7.948  18.155  0.00  0.00    +0.000 A 
ATOM      5  N   UNL     1       3.204   7.450  17.084  0.00  0.00    +0.000 N 
ATOM      6  C   UNL     1       3.771   6.224  17.377  0.00  0.00    +0.000 A 
ATOM      7  C   UNL     1       3.356   5.919  18.669  0.00  0.00    +0.000 A 
ATOM      8  C   UNL     1       2.585   7.006  19.173  0.00  0.00    +0.000 A 
ATOM      9  C   UNL     1       1.955   7.283  20.404  0.00  0.00    +0.000 A 
ATOM     10  H   UNL     1       3.292   7.924  16.198  0.00  0.00    +0.000 HD
ENDROOT
BRANCH   7  11
ATOM     11  C   UNL     1       3.666   4.737  19.389  0.00  0.00    +0.000 C 
ATOM     12  C   UNL     1       2.842   3.833  19.930  0.00  0.00    +0.000 C 
ATOM     13 BR   UNL     1       1.008   3.779  19.941  0.00  0.00    +0.000 Br
ATOM     14  C   UNL     1       3.678   2.807  20.589  0.00  0.00    +0.000 C 
ATOM     15  O   UNL     1       3.285   1.867  21.250  0.00  0.00    +0.000 OA
ATOM     16  N   UNL     1       4.964   3.123  20.341  0.00  0.00    +0.000 N 
ATOM     17  C   UNL     1       5.046   4.294  19.675  0.00  0.00    +0.000 C 
ATOM     18  O   UNL     1       6.070   4.895  19.417  0.00  0.00    +0.000 OA
ATOM     19  H   UNL     1       5.757   2.625  20.710  0.00  0.00    +0.000 HD
ENDBRANCH   7  11
BRANCH   6  20
ATOM     20  C   UNL     1       4.607   5.511  16.403  0.00  0.00    +0.000 A 
ATOM     21  C   UNL     1       5.369   6.214  15.459  0.00  0.00    +0.000 A 
ATOM     22  C   UNL     1       6.156   5.531  14.525  0.00  0.00    +0.000 A 
ATOM     23  C   UNL     1       6.227   4.140  14.540  0.00  0.00    +0.000 A 
ATOM     24  C   UNL     1       5.469   3.430  15.468  0.00  0.00    +0.000 A 
ATOM     25  C   UNL     1       4.658   4.113  16.379  0.00  0.00    +0.000 A 
BRANCH  23  26
ATOM     26  O   UNL     1       7.022   3.579  13.582  0.00  0.00    +0.000 OA
ATOM     27  C   UNL     1       6.466   3.547  12.271  0.00  0.00    +0.000 C 
ENDBRANCH  23  26
ENDBRANCH   6  20
BRANCH   1  28
ATOM     28  C   UNL     1       0.621   8.803  21.910  0.00  0.00    +0.000 C 
BRANCH  28  29
ATOM     29  C   UNL     1      -0.294  10.025  21.841  0.00  0.00    +0.000 C 
BRANCH  29  30
ATOM     30  C   UNL     1      -0.923  10.322  23.201  0.00  0.00    +0.000 C 
BRANCH  30  31
ATOM     31  C   UNL     1      -1.647  11.667  23.177  0.00  0.00    +0.000 C 
BRANCH  31  33
ATOM     32  C   UNL     1      -2.988  12.733  21.342  0.00  0.00    +0.000 C 
ATOM     33  C   UNL     1      -1.603  12.296  21.787  0.00  0.00    +0.000 C 
ENDBRANCH  31  33
ENDBRANCH  30  31
ENDBRANCH  29  30
ENDBRANCH  28  29
ENDBRANCH   1  28
TORSDOF 8
ENDMDL
