MODEL 1
REMARK VINA RESULT:      -8.6      0.000      0.000
REMARK  Name = 
REMARK  8 active torsions:
REMARK  status: ('A' for Active; 'I' for Inactive)
REMARK    1  A    between atoms: N_10  and  C_11
REMARK    2  A    between atoms: C_11  and  C_12
REMARK    3  A    between atoms: C_14  and  C_15
REMARK    4  A    between atoms: C_17  and  C_18
REMARK    5  A    between atoms: C_18  and  O_19
REMARK    6  A    between atoms: C_20  and  O_21
REMARK    7  A    between atoms: C_22  and  O_23
REMARK    8  A    between atoms: C_24  and  O_25
REMARK                            x       y       z     vdW  Elec       q    Type
REMARK                         _______ _______ _______ _____ _____    ______ ____
ROOT
ATOM      1  C   UNL     1       2.800   5.582  19.238  0.00  0.00    +0.000 A 
ATOM      2  C   UNL     1       3.916   5.756  18.409  0.00  0.00    +0.000 A 
ATOM      3  C   UNL     1       4.116   5.070  17.202  0.00  0.00    +0.000 A 
ATOM      4  C   UNL     1       3.218   4.042  16.911  0.00  0.00    +0.000 A 
ATOM      5  C   UNL     1       2.192   3.725  17.817  0.00  0.00    +0.000 A 
ATOM      6  C   UNL     1       1.978   4.497  18.966  0.00  0.00    +0.000 A 
ATOM      7 CL   UNL     1       0.702   4.050  20.031  0.00  0.00    +0.000 Cl
ENDROOT
BRANCH   3   8
ATOM      8  C   UNL     1       5.258   5.429  16.241  0.00  0.00    +0.000 C 
ATOM      9  O   UNL     1       5.684   6.801  16.357  0.00  0.00    +0.000 OA
ATOM     10  C   UNL     1       6.436   7.119  17.537  0.00  0.00    +0.000 C 
ATOM     11  C   UNL     1       7.629   6.175  17.786  0.00  0.00    +0.000 C 
ATOM     12  C   UNL     1       7.285   4.680  17.580  0.00  0.00    +0.000 C 
ATOM     13  C   UNL     1       6.472   4.475  16.290  0.00  0.00    +0.000 C 
BRANCH  11  14
ATOM     14  O   UNL     1       8.144   6.378  19.109  0.00  0.00    +0.000 OA
ATOM     15  H   UNL     1       9.103   6.202  19.108  0.00  0.00    +0.000 HD
ENDBRANCH  11  14
BRANCH  12  16
ATOM     16  O   UNL     1       8.475   3.881  17.590  0.00  0.00    +0.000 OA
ATOM     17  H   UNL     1       8.359   3.157  18.227  0.00  0.00    +0.000 HD
ENDBRANCH  12  16
BRANCH  13  18
ATOM     18  O   UNL     1       6.081   3.111  16.109  0.00  0.00    +0.000 OA
ATOM     19  H   UNL     1       6.030   2.928  15.153  0.00  0.00    +0.000 HD
ENDBRANCH  13  18
BRANCH  10  20
ATOM     20  C   UNL     1       6.836   8.603  17.541  0.00  0.00    +0.000 C 
BRANCH  20  21
ATOM     21  O   UNL     1       8.233   8.762  17.831  0.00  0.00    +0.000 OA
ATOM     22  H   UNL     1       8.321   9.491  18.472  0.00  0.00    +0.000 HD
ENDBRANCH  20  21
ENDBRANCH  10  20
ENDBRANCH   3   8
BRANCH   1  23
ATOM     23  C   UNL     1       2.562   6.640  20.302  0.00  0.00    +0.000 C 
BRANCH  23  33
ATOM     24  O   UNL     1       1.001   8.360  21.847  0.00  0.00    +0.000 OA
ATOM     25  C   UNL     1       1.158   8.645  20.676  0.00  0.00    +0.000 A 
ATOM     26  C   UNL     1       0.540   9.822  20.086  0.00  0.00    +0.000 A 
ATOM     27  C   UNL     1      -0.318  10.815  20.617  0.00  0.00    +0.000 A 
ATOM     28  C   UNL     1      -0.577  11.675  19.575  0.00  0.00    +0.000 A 
ATOM     29  O   UNL     1       0.057  11.263  18.442  0.00  0.00    +0.000 OA
ATOM     30  C   UNL     1       0.734  10.116  18.751  0.00  0.00    +0.000 A 
ATOM     31  C   UNL     1       1.499   9.311  17.882  0.00  0.00    +0.000 A 
ATOM     32  C   UNL     1       2.054   8.203  18.416  0.00  0.00    +0.000 A 
ATOM     33  N   UNL     1       1.927   7.864  19.774  0.00  0.00    +0.000 N 
ENDBRANCH  23  33
ENDBRANCH   1  23
TORSDOF 8
ENDMDL
MODEL 2
REMARK VINA RESULT:      -8.3      2.362      3.404
REMARK  Name = 
REMARK  8 active torsions:
REMARK  status: ('A' for Active; 'I' for Inactive)
REMARK    1  A    between atoms: N_10  and  C_11
REMARK    2  A    between atoms: C_11  and  C_12
REMARK    3  A    between atoms: C_14  and  C_15
REMARK    4  A    between atoms: C_17  and  C_18
REMARK    5  A    between atoms: C_18  and  O_19
REMARK    6  A    between atoms: C_20  and  O_21
REMARK    7  A    between atoms: C_22  and  O_23
REMARK    8  A    between atoms: C_24  and  O_25
REMARK                            x       y       z     vdW  Elec       q    Type
REMARK                         _______ _______ _______ _____ _____    ______ ____
ROOT
ATOM      1  C   UNL     1       1.794   8.865  19.178  0.00  0.00    +0.000 A 
ATOM      2  C   UNL     1       2.582   8.030  18.374  0.00  0.00    +0.000 A 
ATOM      3  C   UNL     1       2.738   6.653  18.583  0.00  0.00    +0.000 A 
ATOM      4  C   UNL     1       2.197   6.134  19.761  0.00  0.00    +0.000 A 
ATOM      5  C   UNL     1       1.556   6.984  20.677  0.00  0.00    +0.000 A 
ATOM      6  C   UNL     1       1.346   8.338  20.381  0.00  0.00    +0.000 A 
ATOM      7 CL   UNL     1       0.552   9.321  21.551  0.00  0.00    +0.000 Cl
ENDROOT
BRANCH   3   8
ATOM      8  C   UNL     1       3.460   5.752  17.571  0.00  0.00    +0.000 C 
ATOM      9  O   UNL     1       4.675   6.335  17.062  0.00  0.00    +0.000 OA
ATOM     10  C   UNL     1       5.779   6.369  17.977  0.00  0.00    +0.000 C 
ATOM     11  C   UNL     1       6.083   5.008  18.633  0.00  0.00    +0.000 C 
ATOM     12  C   UNL     1       4.818   4.261  19.118  0.00  0.00    +0.000 C 
ATOM     13  C   UNL     1       3.710   4.305  18.053  0.00  0.00    +0.000 C 
BRANCH  11  14
ATOM     14  O   UNL     1       6.993   5.186  19.727  0.00  0.00    +0.000 OA
ATOM     15  H   UNL     1       7.750   5.723  19.429  0.00  0.00    +0.000 HD
ENDBRANCH  11  14
BRANCH  12  16
ATOM     16  O   UNL     1       5.139   2.916  19.495  0.00  0.00    +0.000 OA
ATOM     17  H   UNL     1       4.867   2.777  20.417  0.00  0.00    +0.000 HD
ENDBRANCH  12  16
BRANCH  13  18
ATOM     18  O   UNL     1       2.503   3.680  18.501  0.00  0.00    +0.000 OA
ATOM     19  H   UNL     1       2.590   2.717  18.380  0.00  0.00    +0.000 HD
ENDBRANCH  13  18
BRANCH  10  20
ATOM     20  C   UNL     1       7.012   7.006  17.318  0.00  0.00    +0.000 C 
BRANCH  20  21
ATOM     21  O   UNL     1       7.507   6.187  16.248  0.00  0.00    +0.000 OA
ATOM     22  H   UNL     1       7.604   5.280  16.590  0.00  0.00    +0.000 HD
ENDBRANCH  20  21
ENDBRANCH  10  20
ENDBRANCH   3   8
BRANCH   1  23
ATOM     23  C   UNL     1       1.447  10.233  18.617  0.00  0.00    +0.000 C 
BRANCH  23  33
ATOM     24  O   UNL     1       0.004  12.134  20.060  0.00  0.00    +0.000 OA
ATOM     25  C   UNL     1      -0.610  11.452  19.263  0.00  0.00    +0.000 A 
ATOM     26  C   UNL     1      -2.045  11.594  19.079  0.00  0.00    +0.000 A 
ATOM     27  C   UNL     1      -3.008  12.427  19.700  0.00  0.00    +0.000 A 
ATOM     28  C   UNL     1      -4.208  12.106  19.111  0.00  0.00    +0.000 A 
ATOM     29  O   UNL     1      -4.041  11.125  18.182  0.00  0.00    +0.000 OA
ATOM     30  C   UNL     1      -2.714  10.800  18.169  0.00  0.00    +0.000 A 
ATOM     31  C   UNL     1      -2.081   9.805  17.395  0.00  0.00    +0.000 A 
ATOM     32  C   UNL     1      -0.754   9.649  17.579  0.00  0.00    +0.000 A 
ATOM     33  N   UNL     1      -0.006  10.448  18.461  0.00  0.00    +0.000 N 
ENDBRANCH  23  33
ENDBRANCH   1  23
TORSDOF 8
ENDMDL
MODEL 3
REMARK VINA RESULT:      -8.2      2.511      3.830
REMARK  Name = 
REMARK  8 active torsions:
REMARK  status: ('A' for Active; 'I' for Inactive)
REMARK    1  A    between atoms: N_10  and  C_11
REMARK    2  A    between atoms: C_11  and  C_12
REMARK    3  A    between atoms: C_14  and  C_15
REMARK    4  A    between atoms: C_17  and  C_18
REMARK    5  A    between atoms: C_18  and  O_19
REMARK    6  A    between atoms: C_20  and  O_21
REMARK    7  A    between atoms: C_22  and  O_23
REMARK    8  A    between atoms: C_24  and  O_25
REMARK                            x       y       z     vdW  Elec       q    Type
REMARK                         _______ _______ _______ _____ _____    ______ ____
ROOT
ATOM      1  C   UNL     1       1.861   8.599  19.346  0.00  0.00    +0.000 A 
ATOM      2  C   UNL     1       2.473   7.734  18.430  0.00  0.00    +0.000 A 
ATOM      3  C   UNL     1       2.501   6.338  18.561  0.00  0.00    +0.000 A 
ATOM      4  C   UNL     1       2.026   5.814  19.765  0.00  0.00    +0.000 A 
ATOM      5  C   UNL     1       1.572   6.675  20.778  0.00  0.00    +0.000 A 
ATOM      6  C   UNL     1       1.480   8.057  20.565  0.00  0.00    +0.000 A 
ATOM      7 CL   UNL     1       0.914   9.051  21.852  0.00  0.00    +0.000 Cl
ENDROOT
BRANCH   3   8
ATOM      8  C   UNL     1       3.020   5.424  17.442  0.00  0.00    +0.000 C 
ATOM      9  O   UNL     1       4.458   5.405  17.350  0.00  0.00    +0.000 OA
ATOM     10  C   UNL     1       5.137   4.690  18.392  0.00  0.00    +0.000 C 
ATOM     11  C   UNL     1       4.605   3.261  18.613  0.00  0.00    +0.000 C 
ATOM     12  C   UNL     1       3.060   3.173  18.621  0.00  0.00    +0.000 C 
ATOM     13  C   UNL     1       2.455   3.986  17.464  0.00  0.00    +0.000 C 
BRANCH  11  14
ATOM     14  O   UNL     1       5.129   2.728  19.837  0.00  0.00    +0.000 OA
ATOM     15  H   UNL     1       5.485   3.458  20.377  0.00  0.00    +0.000 HD
ENDBRANCH  11  14
BRANCH  12  16
ATOM     16  O   UNL     1       2.630   1.806  18.590  0.00  0.00    +0.000 OA
ATOM     17  H   UNL     1       2.532   1.488  19.503  0.00  0.00    +0.000 HD
ENDBRANCH  12  16
BRANCH  13  18
ATOM     18  O   UNL     1       1.025   3.979  17.488  0.00  0.00    +0.000 OA
ATOM     19  H   UNL     1       0.732   3.756  18.390  0.00  0.00    +0.000 HD
ENDBRANCH  13  18
BRANCH  10  20
ATOM     20  C   UNL     1       6.659   4.736  18.180  0.00  0.00    +0.000 C 
BRANCH  20  21
ATOM     21  O   UNL     1       7.347   4.962  19.419  0.00  0.00    +0.000 OA
ATOM     22  H   UNL     1       8.281   5.145  19.210  0.00  0.00    +0.000 HD
ENDBRANCH  20  21
ENDBRANCH  10  20
ENDBRANCH   3   8
BRANCH   1  23
ATOM     23  C   UNL     1       1.610  10.025  18.883  0.00  0.00    +0.000 C 
BRANCH  23  33
ATOM     24  O   UNL     1       0.180  11.922  20.346  0.00  0.00    +0.000 OA
ATOM     25  C   UNL     1      -0.419  11.312  19.482  0.00  0.00    +0.000 A 
ATOM     26  C   UNL     1      -1.833  11.537  19.228  0.00  0.00    +0.000 A 
ATOM     27  C   UNL     1      -2.788  12.385  19.840  0.00  0.00    +0.000 A 
ATOM     28  C   UNL     1      -3.967  12.156  19.170  0.00  0.00    +0.000 A 
ATOM     29  O   UNL     1      -3.795  11.216  18.200  0.00  0.00    +0.000 OA
ATOM     30  C   UNL     1      -2.486  10.825  18.242  0.00  0.00    +0.000 A 
ATOM     31  C   UNL     1      -1.860   9.840  17.451  0.00  0.00    +0.000 A 
ATOM     32  C   UNL     1      -0.554   9.607  17.698  0.00  0.00    +0.000 A 
ATOM     33  N   UNL     1       0.180  10.321  18.661  0.00  0.00    +0.000 N 
ENDBRANCH  23  33
ENDBRANCH   1  23
TORSDOF 8
ENDMDL
MODEL 4
REMARK VINA RESULT:      -8.0      2.362      3.387
REMARK  Name = 
REMARK  8 active torsions:
REMARK  status: ('A' for Active; 'I' for Inactive)
REMARK    1  A    between atoms: N_10  and  C_11
REMARK    2  A    between atoms: C_11  and  C_12
REMARK    3  A    between atoms: C_14  and  C_15
REMARK    4  A    between atoms: C_17  and  C_18
REMARK    5  A    between atoms: C_18  and  O_19
REMARK    6  A    between atoms: C_20  and  O_21
REMARK    7  A    between atoms: C_22  and  O_23
REMARK    8  A    between atoms: C_24  and  O_25
REMARK                            x       y       z     vdW  Elec       q    Type
REMARK                         _______ _______ _______ _____ _____    ______ ____
ROOT
ATOM      1  C   UNL     1       1.542   8.733  18.631  0.00  0.00    +0.000 A 
ATOM      2  C   UNL     1       2.467   8.033  17.845  0.00  0.00    +0.000 A 
ATOM      3  C   UNL     1       3.099   6.846  18.241  0.00  0.00    +0.000 A 
ATOM      4  C   UNL     1       2.901   6.443  19.564  0.00  0.00    +0.000 A 
ATOM      5  C   UNL     1       2.120   7.227  20.430  0.00  0.00    +0.000 A 
ATOM      6  C   UNL     1       1.437   8.358  19.962  0.00  0.00    +0.000 A 
ATOM      7 CL   UNL     1       0.498   9.271  21.080  0.00  0.00    +0.000 Cl
ENDROOT
BRANCH   3   8
ATOM      8  C   UNL     1       3.961   6.019  17.276  0.00  0.00    +0.000 C 
ATOM      9  O   UNL     1       5.242   6.622  17.006  0.00  0.00    +0.000 OA
ATOM     10  C   UNL     1       6.195   6.561  18.076  0.00  0.00    +0.000 C 
ATOM     11  C   UNL     1       6.391   5.145  18.652  0.00  0.00    +0.000 C 
ATOM     12  C   UNL     1       5.064   4.382  18.877  0.00  0.00    +0.000 C 
ATOM     13  C   UNL     1       4.129   4.534  17.665  0.00  0.00    +0.000 C 
BRANCH  11  14
ATOM     14  O   UNL     1       7.126   5.215  19.881  0.00  0.00    +0.000 OA
ATOM     15  H   UNL     1       6.934   4.422  20.414  0.00  0.00    +0.000 HD
ENDBRANCH  11  14
BRANCH  12  16
ATOM     16  O   UNL     1       5.317   3.005  19.183  0.00  0.00    +0.000 OA
ATOM     17  H   UNL     1       5.833   2.613  18.458  0.00  0.00    +0.000 HD
ENDBRANCH  12  16
BRANCH  13  18
ATOM     18  O   UNL     1       2.866   3.895  17.874  0.00  0.00    +0.000 OA
ATOM     19  H   UNL     1       2.991   2.931  17.801  0.00  0.00    +0.000 HD
ENDBRANCH  13  18
BRANCH  10  20
ATOM     20  C   UNL     1       7.517   7.229  17.665  0.00  0.00    +0.000 C 
BRANCH  20  21
ATOM     21  O   UNL     1       8.392   7.381  18.792  0.00  0.00    +0.000 OA
ATOM     22  H   UNL     1       8.829   6.524  18.945  0.00  0.00    +0.000 HD
ENDBRANCH  20  21
ENDBRANCH  10  20
ENDBRANCH   3   8
BRANCH   1  23
ATOM     23  C   UNL     1       0.695   9.780  17.927  0.00  0.00    +0.000 C 
BRANCH  23  33
ATOM     24  O   UNL     1      -1.116  11.595  19.024  0.00  0.00    +0.000 OA
ATOM     25  C   UNL     1       0.024  11.978  18.849  0.00  0.00    +0.000 A 
ATOM     26  C   UNL     1       0.434  13.335  19.174  0.00  0.00    +0.000 A 
ATOM     27  C   UNL     1      -0.277  14.449  19.684  0.00  0.00    +0.000 A 
ATOM     28  C   UNL     1       0.646  15.464  19.776  0.00  0.00    +0.000 A 
ATOM     29  O   UNL     1       1.867  15.046  19.342  0.00  0.00    +0.000 OA
ATOM     30  C   UNL     1       1.736  13.740  18.959  0.00  0.00    +0.000 A 
ATOM     31  C   UNL     1       2.728  12.905  18.404  0.00  0.00    +0.000 A 
ATOM     32  C   UNL     1       2.348  11.652  18.077  0.00  0.00    +0.000 A 
ATOM     33  N   UNL     1       1.050  11.164  18.301  0.00  0.00    +0.000 N 
ENDBRANCH  23  33
ENDBRANCH   1  23
TORSDOF 8
ENDMDL
MODEL 5
REMARK VINA RESULT:      -8.0      1.390      2.719
REMARK  Name = 
REMARK  8 active torsions:
REMARK  status: ('A' for Active; 'I' for Inactive)
REMARK    1  A    between atoms: N_10  and  C_11
REMARK    2  A    between atoms: C_11  and  C_12
REMARK    3  A    between atoms: C_14  and  C_15
REMARK    4  A    between atoms: C_17  and  C_18
REMARK    5  A    between atoms: C_18  and  O_19
REMARK    6  A    between atoms: C_20  and  O_21
REMARK    7  A    between atoms: C_22  and  O_23
REMARK    8  A    between atoms: C_24  and  O_25
REMARK                            x       y       z     vdW  Elec       q    Type
REMARK                         _______ _______ _______ _____ _____    ______ ____
ROOT
ATOM      1  C   UNL     1       2.752   4.489  19.819  0.00  0.00    +0.000 A 
ATOM      2  C   UNL     1       4.076   4.503  19.361  0.00  0.00    +0.000 A 
ATOM      3  C   UNL     1       4.563   3.686  18.331  0.00  0.00    +0.000 A 
ATOM      4  C   UNL     1       3.700   2.695  17.859  0.00  0.00    +0.000 A 
ATOM      5  C   UNL     1       2.425   2.541  18.428  0.00  0.00    +0.000 A 
ATOM      6  C   UNL     1       1.951   3.439  19.393  0.00  0.00    +0.000 A 
ATOM      7 CL   UNL     1       0.378   3.189  20.046  0.00  0.00    +0.000 Cl
ENDROOT
BRANCH   3   8
ATOM      8  C   UNL     1       5.969   3.868  17.741  0.00  0.00    +0.000 C 
ATOM      9  O   UNL     1       6.015   3.656  16.316  0.00  0.00    +0.000 OA
ATOM     10  C   UNL     1       5.430   4.692  15.515  0.00  0.00    +0.000 C 
ATOM     11  C   UNL     1       5.946   6.104  15.854  0.00  0.00    +0.000 C 
ATOM     12  C   UNL     1       6.029   6.382  17.374  0.00  0.00    +0.000 C 
ATOM     13  C   UNL     1       6.664   5.195  18.118  0.00  0.00    +0.000 C 
BRANCH  11  14
ATOM     14  O   UNL     1       5.119   7.091  15.223  0.00  0.00    +0.000 OA
ATOM     15  H   UNL     1       5.676   7.662  14.662  0.00  0.00    +0.000 HD
ENDBRANCH  11  14
BRANCH  12  16
ATOM     16  O   UNL     1       6.732   7.605  17.627  0.00  0.00    +0.000 OA
ATOM     17  H   UNL     1       7.676   7.466  17.446  0.00  0.00    +0.000 HD
ENDBRANCH  12  16
BRANCH  13  18
ATOM     18  O   UNL     1       6.690   5.396  19.534  0.00  0.00    +0.000 OA
ATOM     19  H   UNL     1       7.209   4.678  19.939  0.00  0.00    +0.000 HD
ENDBRANCH  13  18
BRANCH  10  20
ATOM     20  C   UNL     1       5.547   4.354  14.020  0.00  0.00    +0.000 C 
BRANCH  20  21
ATOM     21  O   UNL     1       6.414   3.229  13.811  0.00  0.00    +0.000 OA
ATOM     22  H   UNL     1       7.329   3.562  13.784  0.00  0.00    +0.000 HD
ENDBRANCH  20  21
ENDBRANCH  10  20
ENDBRANCH   3   8
BRANCH   1  23
ATOM     23  C   UNL     1       2.307   5.664  20.673  0.00  0.00    +0.000 C 
BRANCH  23  33
ATOM     24  O   UNL     1       1.087   7.953  21.699  0.00  0.00    +0.000 OA
ATOM     25  C   UNL     1       1.486   7.997  20.552  0.00  0.00    +0.000 A 
ATOM     26  C   UNL     1       1.317   9.183  19.728  0.00  0.00    +0.000 A 
ATOM     27  C   UNL     1       0.706  10.436  19.976  0.00  0.00    +0.000 A 
ATOM     28  C   UNL     1       0.853  11.155  18.813  0.00  0.00    +0.000 A 
ATOM     29  O   UNL     1       1.503  10.417  17.870  0.00  0.00    +0.000 OA
ATOM     30  C   UNL     1       1.778   9.200  18.427  0.00  0.00    +0.000 A 
ATOM     31  C   UNL     1       2.402   8.096  17.810  0.00  0.00    +0.000 A 
ATOM     32  C   UNL     1       2.539   6.983  18.560  0.00  0.00    +0.000 A 
ATOM     33  N   UNL     1       2.126   6.909  19.901  0.00  0.00    +0.000 N 
ENDBRANCH  23  33
ENDBRANCH   1  23
TORSDOF 8
ENDMDL
MODEL 6
REMARK VINA RESULT:      -7.8      3.015      4.868
REMARK  Name = 
REMARK  8 active torsions:
REMARK  status: ('A' for Active; 'I' for Inactive)
REMARK    1  A    between atoms: N_10  and  C_11
REMARK    2  A    between atoms: C_11  and  C_12
REMARK    3  A    between atoms: C_14  and  C_15
REMARK    4  A    between atoms: C_17  and  C_18
REMARK    5  A    between atoms: C_18  and  O_19
REMARK    6  A    between atoms: C_20  and  O_21
REMARK    7  A    between atoms: C_22  and  O_23
REMARK    8  A    between atoms: C_24  and  O_25
REMARK                            x       y       z     vdW  Elec       q    Type
REMARK                         _______ _______ _______ _____ _____    ______ ____
ROOT
ATOM      1  C   UNL     1       4.344   6.534  17.315  0.00  0.00    +0.000 A 
ATOM      2  C   UNL     1       3.675   5.304  17.279  0.00  0.00    +0.000 A 
ATOM      3  C   UNL     1       4.247   4.084  17.667  0.00  0.00    +0.000 A 
ATOM      4  C   UNL     1       5.614   4.096  17.950  0.00  0.00    +0.000 A 
ATOM      5  C   UNL     1       6.350   5.286  17.819  0.00  0.00    +0.000 A 
ATOM      6  C   UNL     1       5.716   6.498  17.515  0.00  0.00    +0.000 A 
ATOM      7 CL   UNL     1       6.682   7.916  17.370  0.00  0.00    +0.000 Cl
ENDROOT
BRANCH   3   8
ATOM      8  C   UNL     1       3.419   2.796  17.784  0.00  0.00    +0.000 C 
ATOM      9  O   UNL     1       4.076   1.771  18.555  0.00  0.00    +0.000 OA
ATOM     10  C   UNL     1       4.125   1.994  19.971  0.00  0.00    +0.000 C 
ATOM     11  C   UNL     1       2.755   2.323  20.595  0.00  0.00    +0.000 C 
ATOM     12  C   UNL     1       1.933   3.344  19.772  0.00  0.00    +0.000 C 
ATOM     13  C   UNL     1       1.967   3.000  18.274  0.00  0.00    +0.000 C 
BRANCH  11  14
ATOM     14  O   UNL     1       2.931   2.806  21.934  0.00  0.00    +0.000 OA
ATOM     15  H   UNL     1       3.365   3.679  21.904  0.00  0.00    +0.000 HD
ENDBRANCH  11  14
BRANCH  12  16
ATOM     16  O   UNL     1       0.590   3.428  20.267  0.00  0.00    +0.000 OA
ATOM     17  H   UNL     1       0.091   2.658  19.948  0.00  0.00    +0.000 HD
ENDBRANCH  12  16
BRANCH  13  18
ATOM     18  O   UNL     1       1.272   3.967  17.481  0.00  0.00    +0.000 OA
ATOM     19  H   UNL     1       1.822   4.769  17.418  0.00  0.00    +0.000 HD
ENDBRANCH  13  18
BRANCH  10  20
ATOM     20  C   UNL     1       4.842   0.833  20.679  0.00  0.00    +0.000 C 
BRANCH  20  21
ATOM     21  O   UNL     1       5.614   1.304  21.793  0.00  0.00    +0.000 OA
ATOM     22  H   UNL     1       6.395   1.765  21.438  0.00  0.00    +0.000 HD
ENDBRANCH  20  21
ENDBRANCH  10  20
ENDBRANCH   3   8
BRANCH   1  23
ATOM     23  C   UNL     1       3.488   7.786  17.208  0.00  0.00    +0.000 C 
BRANCH  23  33
ATOM     24  O   UNL     1       1.899  10.050  17.561  0.00  0.00    +0.000 OA
ATOM     25  C   UNL     1       1.869   9.204  18.432  0.00  0.00    +0.000 A 
ATOM     26  C   UNL     1       1.059   9.366  19.629  0.00  0.00    +0.000 A 
ATOM     27  C   UNL     1       0.216  10.413  20.074  0.00  0.00    +0.000 A 
ATOM     28  C   UNL     1      -0.279   9.996  21.288  0.00  0.00    +0.000 A 
ATOM     29  O   UNL     1       0.218   8.772  21.616  0.00  0.00    +0.000 OA
ATOM     30  C   UNL     1       1.051   8.387  20.603  0.00  0.00    +0.000 A 
ATOM     31  C   UNL     1       1.821   7.209  20.526  0.00  0.00    +0.000 A 
ATOM     32  C   UNL     1       2.595   7.063  19.430  0.00  0.00    +0.000 A 
ATOM     33  N   UNL     1       2.624   8.002  18.385  0.00  0.00    +0.000 N 
ENDBRANCH  23  33
ENDBRANCH   1  23
TORSDOF 8
ENDMDL
MODEL 7
REMARK VINA RESULT:      -7.8      2.522      3.736
REMARK  Name = 
REMARK  8 active torsions:
REMARK  status: ('A' for Active; 'I' for Inactive)
REMARK    1  A    between atoms: N_10  and  C_11
REMARK    2  A    between atoms: C_11  and  C_12
REMARK    3  A    between atoms: C_14  and  C_15
REMARK    4  A    between atoms: C_17  and  C_18
REMARK    5  A    between atoms: C_18  and  O_19
REMARK    6  A    between atoms: C_20  and  O_21
REMARK    7  A    between atoms: C_22  and  O_23
REMARK    8  A    between atoms: C_24  and  O_25
REMARK                            x       y       z     vdW  Elec       q    Type
REMARK                         _______ _______ _______ _____ _____    ______ ____
ROOT
ATOM      1  C   UNL     1       1.780   8.920  19.223  0.00  0.00    +0.000 A 
ATOM      2  C   UNL     1       2.475   7.992  18.436  0.00  0.00    +0.000 A 
ATOM      3  C   UNL     1       2.548   6.620  18.714  0.00  0.00    +0.000 A 
ATOM      4  C   UNL     1       2.026   6.202  19.939  0.00  0.00    +0.000 A 
ATOM      5  C   UNL     1       1.483   7.141  20.832  0.00  0.00    +0.000 A 
ATOM      6  C   UNL     1       1.350   8.489  20.470  0.00  0.00    +0.000 A 
ATOM      7 CL   UNL     1       0.676   9.584  21.614  0.00  0.00    +0.000 Cl
ENDROOT
BRANCH   3   8
ATOM      8  C   UNL     1       3.164   5.619  17.725  0.00  0.00    +0.000 C 
ATOM      9  O   UNL     1       4.356   6.118  17.087  0.00  0.00    +0.000 OA
ATOM     10  C   UNL     1       5.525   6.179  17.915  0.00  0.00    +0.000 C 
ATOM     11  C   UNL     1       5.834   4.860  18.651  0.00  0.00    +0.000 C 
ATOM     12  C   UNL     1       4.585   4.199  19.282  0.00  0.00    +0.000 C 
ATOM     13  C   UNL     1       3.403   4.204  18.298  0.00  0.00    +0.000 C 
BRANCH  11  14
ATOM     14  O   UNL     1       6.828   5.085  19.660  0.00  0.00    +0.000 OA
ATOM     15  H   UNL     1       6.594   4.576  20.458  0.00  0.00    +0.000 HD
ENDBRANCH  11  14
BRANCH  12  16
ATOM     16  O   UNL     1       4.890   2.874  19.738  0.00  0.00    +0.000 OA
ATOM     17  H   UNL     1       4.756   2.252  19.004  0.00  0.00    +0.000 HD
ENDBRANCH  12  16
BRANCH  13  18
ATOM     18  O   UNL     1       2.214   3.660  18.880  0.00  0.00    +0.000 OA
ATOM     19  H   UNL     1       1.507   4.329  18.820  0.00  0.00    +0.000 HD
ENDBRANCH  13  18
BRANCH  10  20
ATOM     20  C   UNL     1       6.725   6.718  17.121  0.00  0.00    +0.000 C 
BRANCH  20  21
ATOM     21  O   UNL     1       7.619   5.658  16.751  0.00  0.00    +0.000 OA
ATOM     22  H   UNL     1       7.083   4.856  16.607  0.00  0.00    +0.000 HD
ENDBRANCH  20  21
ENDBRANCH  10  20
ENDBRANCH   3   8
BRANCH   1  23
ATOM     23  C   UNL     1       1.501  10.278  18.601  0.00  0.00    +0.000 C 
BRANCH  23  33
ATOM     24  O   UNL     1      -0.538   9.124  17.086  0.00  0.00    +0.000 OA
ATOM     25  C   UNL     1      -0.847  10.006  17.862  0.00  0.00    +0.000 A 
ATOM     26  C   UNL     1      -2.220  10.468  17.987  0.00  0.00    +0.000 A 
ATOM     27  C   UNL     1      -3.414  10.100  17.321  0.00  0.00    +0.000 A 
ATOM     28  C   UNL     1      -4.399  10.891  17.864  0.00  0.00    +0.000 A 
ATOM     29  O   UNL     1      -3.881  11.726  18.806  0.00  0.00    +0.000 OA
ATOM     30  C   UNL     1      -2.539  11.476  18.875  0.00  0.00    +0.000 A 
ATOM     31  C   UNL     1      -1.585  12.130  19.682  0.00  0.00    +0.000 A 
ATOM     32  C   UNL     1      -0.305  11.724  19.553  0.00  0.00    +0.000 A 
ATOM     33  N   UNL     1       0.084  10.681  18.696  0.00  0.00    +0.000 N 
ENDBRANCH  23  33
ENDBRANCH   1  23
TORSDOF 8
ENDMDL
MODEL 8
REMARK VINA RESULT:      -7.6      2.588      4.041
REMARK  Name = 
REMARK  8 active torsions:
REMARK  status: ('A' for Active; 'I' for Inactive)
REMARK    1  A    between atoms: N_10  and  C_11
REMARK    2  A    between atoms: C_11  and  C_12
REMARK    3  A    between atoms: C_14  and  C_15
REMARK    4  A    between atoms: C_17  and  C_18
REMARK    5  A    between atoms: C_18  and  O_19
REMARK    6  A    between atoms: C_20  and  O_21
REMARK    7  A    between atoms: C_22  and  O_23
REMARK    8  A    between atoms: C_24  and  O_25
REMARK                            x       y       z     vdW  Elec       q    Type
REMARK                         _______ _______ _______ _____ _____    ______ ____
ROOT
ATOM      1  C   UNL     1       1.913   8.561  19.433  0.00  0.00    +0.000 A 
ATOM      2  C   UNL     1       2.525   7.697  18.515  0.00  0.00    +0.000 A 
ATOM      3  C   UNL     1       2.515   6.299  18.620  0.00  0.00    +0.000 A 
ATOM      4  C   UNL     1       1.997   5.765  19.802  0.00  0.00    +0.000 A 
ATOM      5  C   UNL     1       1.540   6.618  20.821  0.00  0.00    +0.000 A 
ATOM      6  C   UNL     1       1.488   8.006  20.631  0.00  0.00    +0.000 A 
ATOM      7 CL   UNL     1       0.916   8.990  21.923  0.00  0.00    +0.000 Cl
ENDROOT
BRANCH   3   8
ATOM      8  C   UNL     1       3.038   5.393  17.497  0.00  0.00    +0.000 C 
ATOM      9  O   UNL     1       4.477   5.365  17.418  0.00  0.00    +0.000 OA
ATOM     10  C   UNL     1       5.141   4.635  18.459  0.00  0.00    +0.000 C 
ATOM     11  C   UNL     1       4.597   3.207  18.660  0.00  0.00    +0.000 C 
ATOM     12  C   UNL     1       3.051   3.130  18.653  0.00  0.00    +0.000 C 
ATOM     13  C   UNL     1       2.463   3.959  17.499  0.00  0.00    +0.000 C 
BRANCH  11  14
ATOM     14  O   UNL     1       5.106   2.658  19.883  0.00  0.00    +0.000 OA
ATOM     15  H   UNL     1       4.361   2.473  20.485  0.00  0.00    +0.000 HD
ENDBRANCH  11  14
BRANCH  12  16
ATOM     16  O   UNL     1       2.613   1.766  18.604  0.00  0.00    +0.000 OA
ATOM     17  H   UNL     1       1.648   1.744  18.710  0.00  0.00    +0.000 HD
ENDBRANCH  12  16
BRANCH  13  18
ATOM     18  O   UNL     1       1.032   3.961  17.509  0.00  0.00    +0.000 OA
ATOM     19  H   UNL     1       0.717   3.363  16.807  0.00  0.00    +0.000 HD
ENDBRANCH  13  18
BRANCH  10  20
ATOM     20  C   UNL     1       6.665   4.673  18.261  0.00  0.00    +0.000 C 
BRANCH  20  21
ATOM     21  O   UNL     1       7.036   4.115  16.992  0.00  0.00    +0.000 OA
ATOM     22  H   UNL     1       7.590   4.771  16.531  0.00  0.00    +0.000 HD
ENDBRANCH  20  21
ENDBRANCH  10  20
ENDBRANCH   3   8
BRANCH   1  23
ATOM     23  C   UNL     1       1.708  10.001  18.991  0.00  0.00    +0.000 C 
BRANCH  23  33
ATOM     24  O   UNL     1      -0.098   9.058  17.086  0.00  0.00    +0.000 OA
ATOM     25  C   UNL     1      -0.518   9.839  17.917  0.00  0.00    +0.000 A 
ATOM     26  C   UNL     1      -1.900  10.290  17.914  0.00  0.00    +0.000 A 
ATOM     27  C   UNL     1      -2.990  10.015  17.053  0.00  0.00    +0.000 A 
ATOM     28  C   UNL     1      -4.047  10.740  17.553  0.00  0.00    +0.000 A 
ATOM     29  O   UNL     1      -3.668  11.447  18.653  0.00  0.00    +0.000 OA
ATOM     30  C   UNL     1      -2.344  11.182  18.869  0.00  0.00    +0.000 A 
ATOM     31  C   UNL     1      -1.514  11.725  19.871  0.00  0.00    +0.000 A 
ATOM     32  C   UNL     1      -0.223  11.330  19.865  0.00  0.00    +0.000 A 
ATOM     33  N   UNL     1       0.287  10.398  18.945  0.00  0.00    +0.000 N 
ENDBRANCH  23  33
ENDBRANCH   1  23
TORSDOF 8
ENDMDL
MODEL 9
REMARK VINA RESULT:      -7.6      2.597      3.678
REMARK  Name = 
REMARK  8 active torsions:
REMARK  status: ('A' for Active; 'I' for Inactive)
REMARK    1  A    between atoms: N_10  and  C_11
REMARK    2  A    between atoms: C_11  and  C_12
REMARK    3  A    between atoms: C_14  and  C_15
REMARK    4  A    between atoms: C_17  and  C_18
REMARK    5  A    between atoms: C_18  and  O_19
REMARK    6  A    between atoms: C_20  and  O_21
REMARK    7  A    between atoms: C_22  and  O_23
REMARK    8  A    between atoms: C_24  and  O_25
REMARK                            x       y       z     vdW  Elec       q    Type
REMARK                         _______ _______ _______ _____ _____    ______ ____
ROOT
ATOM      1  C   UNL     1       1.458   8.708  18.872  0.00  0.00    +0.000 A 
ATOM      2  C   UNL     1       2.343   7.990  18.057  0.00  0.00    +0.000 A 
ATOM      3  C   UNL     1       2.935   6.772  18.419  0.00  0.00    +0.000 A 
ATOM      4  C   UNL     1       2.742   6.349  19.736  0.00  0.00    +0.000 A 
ATOM      5  C   UNL     1       2.005   7.143  20.630  0.00  0.00    +0.000 A 
ATOM      6  C   UNL     1       1.358   8.308  20.197  0.00  0.00    +0.000 A 
ATOM      7 CL   UNL     1       0.472   9.233  21.349  0.00  0.00    +0.000 Cl
ENDROOT
BRANCH   3   8
ATOM      8  C   UNL     1       3.750   5.934  17.423  0.00  0.00    +0.000 C 
ATOM      9  O   UNL     1       5.008   6.543  17.070  0.00  0.00    +0.000 OA
ATOM     10  C   UNL     1       6.020   6.511  18.086  0.00  0.00    +0.000 C 
ATOM     11  C   UNL     1       6.262   5.109  18.678  0.00  0.00    +0.000 C 
ATOM     12  C   UNL     1       4.957   4.338  18.991  0.00  0.00    +0.000 C 
ATOM     13  C   UNL     1       3.954   4.458  17.831  0.00  0.00    +0.000 C 
BRANCH  11  14
ATOM     14  O   UNL     1       7.064   5.210  19.862  0.00  0.00    +0.000 OA
ATOM     15  H   UNL     1       7.993   5.358  19.607  0.00  0.00    +0.000 HD
ENDBRANCH  11  14
BRANCH  12  16
ATOM     16  O   UNL     1       5.241   2.970  19.309  0.00  0.00    +0.000 OA
ATOM     17  H   UNL     1       5.116   2.431  18.510  0.00  0.00    +0.000 HD
ENDBRANCH  12  16
BRANCH  13  18
ATOM     18  O   UNL     1       2.711   3.812  18.122  0.00  0.00    +0.000 OA
ATOM     19  H   UNL     1       2.195   3.748  17.297  0.00  0.00    +0.000 HD
ENDBRANCH  13  18
BRANCH  10  20
ATOM     20  C   UNL     1       7.310   7.183  17.589  0.00  0.00    +0.000 C 
BRANCH  20  21
ATOM     21  O   UNL     1       7.692   6.678  16.301  0.00  0.00    +0.000 OA
ATOM     22  H   UNL     1       6.876   6.480  15.806  0.00  0.00    +0.000 HD
ENDBRANCH  20  21
ENDBRANCH  10  20
ENDBRANCH   3   8
BRANCH   1  23
ATOM     23  C   UNL     1       0.641   9.801  18.203  0.00  0.00    +0.000 C 
BRANCH  23  33
ATOM     24  O   UNL     1       2.880  11.267  17.420  0.00  0.00    +0.000 OA
ATOM     25  C   UNL     1       2.128  11.781  18.224  0.00  0.00    +0.000 A 
ATOM     26  C   UNL     1       2.387  13.099  18.781  0.00  0.00    +0.000 A 
ATOM     27  C   UNL     1       3.448  14.018  18.599  0.00  0.00    +0.000 A 
ATOM     28  C   UNL     1       3.145  15.095  19.398  0.00  0.00    +0.000 A 
ATOM     29  O   UNL     1       1.976  14.885  20.065  0.00  0.00    +0.000 OA
ATOM     30  C   UNL     1       1.515  13.653  19.697  0.00  0.00    +0.000 A 
ATOM     31  C   UNL     1       0.359  12.995  20.164  0.00  0.00    +0.000 A 
ATOM     32  C   UNL     1       0.125  11.761  19.671  0.00  0.00    +0.000 A 
ATOM     33  N   UNL     1       0.951  11.152  18.710  0.00  0.00    +0.000 N 
ENDBRANCH  23  33
ENDBRANCH   1  23
TORSDOF 8
ENDMDL
