MODEL 1
REMARK VINA RESULT:      -7.2      0.000      0.000
REMARK  Name = 
REMARK  15 active torsions:
REMARK  status: ('A' for Active; 'I' for Inactive)
REMARK    1  A    between atoms: C_1  and  C_2
REMARK    2  A    between atoms: C_2  and  C_3
REMARK    3  A    between atoms: C_3  and  C_4
REMARK    4  A    between atoms: C_6  and  C_7
REMARK    5  A    between atoms: C_6  and  C_10
REMARK    6  A    between atoms: C_7  and  C_8
REMARK    7  A    between atoms: C_8  and  C_9
REMARK    8  A    between atoms: C_10  and  N_11
REMARK    9  A    between atoms: C_10  and  C_26
REMARK   10  A    between atoms: N_11  and  P_12
REMARK   11  A    between atoms: P_12  and  C_14
REMARK   12  A    between atoms: P_12  and  C_20
REMARK   13  A    between atoms: C_29  and  C_30
REMARK   14  A    between atoms: C_30  and  O_32
REMARK   15  A    between atoms: O_32  and  C_33
REMARK                            x       y       z     vdW  Elec       q    Type
REMARK                         _______ _______ _______ _____ _____    ______ ____
ROOT
ATOM      1  C   UNL     1       2.957   5.434  17.696  0.00  0.00    +0.000 C 
ENDROOT
BRANCH   1   2
ATOM      2  C   UNL     1       2.470   6.656  18.552  0.00  0.00    +0.000 A 
ATOM      3  C   UNL     1       2.201   6.509  19.930  0.00  0.00    +0.000 A 
ATOM      4  C   UNL     1       1.603   7.543  20.695  0.00  0.00    +0.000 A 
ATOM      5  C   UNL     1       1.247   8.761  20.104  0.00  0.00    +0.000 A 
ATOM      6  C   UNL     1       1.605   8.965  18.775  0.00  0.00    +0.000 A 
ATOM      7  C   UNL     1       2.204   7.935  18.027  0.00  0.00    +0.000 A 
BRANCH   5   8
ATOM      8  C   UNL     1       0.445   9.771  20.866  0.00  0.00    +0.000 C 
ATOM      9  O   UNL     1      -0.095  10.738  20.355  0.00  0.00    +0.000 OA
BRANCH   8  10
ATOM     10  O   UNL     1       0.475   9.492  22.198  0.00  0.00    +0.000 OA
ATOM     11  C   UNL     1      -0.524  10.144  22.991  0.00  0.00    +0.000 C 
ENDBRANCH   8  10
ENDBRANCH   5   8
ENDBRANCH   1   2
BRANCH   1  14
ATOM     12  C   UNL     1       1.310   3.421  18.494  0.00  0.00    +0.000 C 
ATOM     13  C   UNL     1       2.275   2.908  17.489  0.00  0.00    +0.000 C 
ATOM     14  C   UNL     1       2.738   4.057  18.394  0.00  0.00    +0.000 C 
BRANCH  12  15
ATOM     15  C   UNL     1       0.777   2.429  19.476  0.00  0.00    +0.000 C 
BRANCH  15  17
ATOM     16  C   UNL     1       1.633   2.553  21.889  0.00  0.00    +0.000 C 
ATOM     17  C   UNL     1       0.608   3.037  20.875  0.00  0.00    +0.000 C 
ENDBRANCH  15  17
ENDBRANCH  12  15
BRANCH  14  18
ATOM     18  C   UNL     1       3.753   3.724  19.483  0.00  0.00    +0.000 C 
BRANCH  18  19
ATOM     19  C   UNL     1       4.566   2.435  19.311  0.00  0.00    +0.000 C 
ATOM     20  C   UNL     1       4.756   1.587  20.560  0.00  0.00    +0.000 C 
ENDBRANCH  18  19
ENDBRANCH  14  18
ENDBRANCH   1  14
BRANCH   1  21
ATOM     21  N   UNL     1       4.382   5.470  17.394  0.00  0.00    +0.000 NA
ATOM     22  H   UNL     1       4.862   5.624  18.275  0.00  0.00    +0.000 HD
BRANCH  21  23
ATOM     23  P   UNL     1       5.158   6.241  16.162  0.00  0.00    +0.000 P 
ATOM     24  O   UNL     1       4.316   7.371  15.620  0.00  0.00    +0.000 OA
BRANCH  23  25
ATOM     25  C   UNL     1       6.545   6.828  17.202  0.00  0.00    +0.000 A 
ATOM     26  C   UNL     1       7.149   5.984  18.161  0.00  0.00    +0.000 A 
ATOM     27  C   UNL     1       8.203   6.453  18.937  0.00  0.00    +0.000 A 
ATOM     28  C   UNL     1       8.638   7.765  18.769  0.00  0.00    +0.000 A 
ATOM     29  C   UNL     1       8.033   8.613  17.834  0.00  0.00    +0.000 A 
ATOM     30  C   UNL     1       6.989   8.140  17.046  0.00  0.00    +0.000 A 
ENDBRANCH  23  25
BRANCH  23  31
ATOM     31  C   UNL     1       6.112   5.418  14.835  0.00  0.00    +0.000 A 
ATOM     32  C   UNL     1       7.401   5.673  14.356  0.00  0.00    +0.000 A 
ATOM     33  C   UNL     1       7.920   4.928  13.271  0.00  0.00    +0.000 A 
ATOM     34  C   UNL     1       7.186   3.904  12.665  0.00  0.00    +0.000 A 
ATOM     35  C   UNL     1       5.915   3.616  13.132  0.00  0.00    +0.000 A 
ATOM     36  C   UNL     1       5.413   4.346  14.211  0.00  0.00    +0.000 A 
ENDBRANCH  23  31
ENDBRANCH  21  23
ENDBRANCH   1  21
TORSDOF 12
ENDMDL
MODEL 2
REMARK VINA RESULT:      -6.9      4.688     10.898
REMARK  Name = 
REMARK  15 active torsions:
REMARK  status: ('A' for Active; 'I' for Inactive)
REMARK    1  A    between atoms: C_1  and  C_2
REMARK    2  A    between atoms: C_2  and  C_3
REMARK    3  A    between atoms: C_3  and  C_4
REMARK    4  A    between atoms: C_6  and  C_7
REMARK    5  A    between atoms: C_6  and  C_10
REMARK    6  A    between atoms: C_7  and  C_8
REMARK    7  A    between atoms: C_8  and  C_9
REMARK    8  A    between atoms: C_10  and  N_11
REMARK    9  A    between atoms: C_10  and  C_26
REMARK   10  A    between atoms: N_11  and  P_12
REMARK   11  A    between atoms: P_12  and  C_14
REMARK   12  A    between atoms: P_12  and  C_20
REMARK   13  A    between atoms: C_29  and  C_30
REMARK   14  A    between atoms: C_30  and  O_32
REMARK   15  A    between atoms: O_32  and  C_33
REMARK                            x       y       z     vdW  Elec       q    Type
REMARK                         _______ _______ _______ _____ _____    ______ ____
ROOT
ATOM      1  C   UNL     1      -0.990  10.833  19.975  0.00  0.00    +0.000 C 
ENDROOT
BRANCH   1   2
ATOM      2  C   UNL     1       0.213   9.858  19.727  0.00  0.00    +0.000 A 
ATOM      3  C   UNL     1       0.796   9.742  18.447  0.00  0.00    +0.000 A 
ATOM      4  C   UNL     1       1.769   8.754  18.149  0.00  0.00    +0.000 A 
ATOM      5  C   UNL     1       2.189   7.841  19.124  0.00  0.00    +0.000 A 
ATOM      6  C   UNL     1       1.709   8.010  20.418  0.00  0.00    +0.000 A 
ATOM      7  C   UNL     1       0.749   8.997  20.705  0.00  0.00    +0.000 A 
BRANCH   5   8
ATOM      8  C   UNL     1       3.068   6.685  18.756  0.00  0.00    +0.000 C 
ATOM      9  O   UNL     1       3.347   5.772  19.515  0.00  0.00    +0.000 OA
BRANCH   8  10
ATOM     10  O   UNL     1       3.559   6.846  17.496  0.00  0.00    +0.000 OA
ATOM     11  C   UNL     1       4.955   6.573  17.335  0.00  0.00    +0.000 C 
ENDBRANCH   8  10
ENDBRANCH   5   8
ENDBRANCH   1   2
BRANCH   1  14
ATOM     12  C   UNL     1      -2.404  10.918  17.652  0.00  0.00    +0.000 C 
ATOM     13  C   UNL     1      -2.946  11.922  18.602  0.00  0.00    +0.000 C 
ATOM     14  C   UNL     1      -1.450  11.594  18.693  0.00  0.00    +0.000 C 
BRANCH  12  15
ATOM     15  C   UNL     1      -2.585  11.209  16.197  0.00  0.00    +0.000 C 
BRANCH  15  17
ATOM     16  C   UNL     1      -3.671   9.988  14.222  0.00  0.00    +0.000 C 
ATOM     17  C   UNL     1      -2.661   9.926  15.358  0.00  0.00    +0.000 C 
ENDBRANCH  15  17
ENDBRANCH  12  15
BRANCH  14  18
ATOM     18  C   UNL     1      -0.471  12.651  18.193  0.00  0.00    +0.000 C 
BRANCH  18  19
ATOM     19  C   UNL     1      -0.732  14.103  18.616  0.00  0.00    +0.000 C 
ATOM     20  C   UNL     1       0.462  15.044  18.563  0.00  0.00    +0.000 C 
ENDBRANCH  18  19
ENDBRANCH  14  18
ENDBRANCH   1  14
BRANCH   1  21
ATOM     21  N   UNL     1      -0.695  11.884  20.940  0.00  0.00    +0.000 NA
ATOM     22  H   UNL     1       0.307  12.038  20.903  0.00  0.00    +0.000 HD
BRANCH  21  23
ATOM     23  P   UNL     1      -1.260  12.064  22.477  0.00  0.00    +0.000 P 
ATOM     24  O   UNL     1      -0.643  11.041  23.399  0.00  0.00    +0.000 OA
BRANCH  23  25
ATOM     25  C   UNL     1      -0.554  13.737  22.702  0.00  0.00    +0.000 A 
ATOM     26  C   UNL     1      -1.133  14.663  23.599  0.00  0.00    +0.000 A 
ATOM     27  C   UNL     1      -0.575  15.927  23.753  0.00  0.00    +0.000 A 
ATOM     28  C   UNL     1       0.543  16.271  22.999  0.00  0.00    +0.000 A 
ATOM     29  C   UNL     1       1.112  15.367  22.095  0.00  0.00    +0.000 A 
ATOM     30  C   UNL     1       0.565  14.097  21.952  0.00  0.00    +0.000 A 
ENDBRANCH  23  25
BRANCH  23  31
ATOM     31  C   UNL     1      -2.998  12.414  22.929  0.00  0.00    +0.000 A 
ATOM     32  C   UNL     1      -3.644  12.336  24.168  0.00  0.00    +0.000 A 
ATOM     33  C   UNL     1      -5.028  12.611  24.270  0.00  0.00    +0.000 A 
ATOM     34  C   UNL     1      -5.785  12.994  23.159  0.00  0.00    +0.000 A 
ATOM     35  C   UNL     1      -5.168  13.100  21.924  0.00  0.00    +0.000 A 
ATOM     36  C   UNL     1      -3.799  12.840  21.831  0.00  0.00    +0.000 A 
ENDBRANCH  23  31
ENDBRANCH  21  23
ENDBRANCH   1  21
TORSDOF 12
ENDMDL
MODEL 3
REMARK VINA RESULT:      -6.7      4.630     10.802
REMARK  Name = 
REMARK  15 active torsions:
REMARK  status: ('A' for Active; 'I' for Inactive)
REMARK    1  A    between atoms: C_1  and  C_2
REMARK    2  A    between atoms: C_2  and  C_3
REMARK    3  A    between atoms: C_3  and  C_4
REMARK    4  A    between atoms: C_6  and  C_7
REMARK    5  A    between atoms: C_6  and  C_10
REMARK    6  A    between atoms: C_7  and  C_8
REMARK    7  A    between atoms: C_8  and  C_9
REMARK    8  A    between atoms: C_10  and  N_11
REMARK    9  A    between atoms: C_10  and  C_26
REMARK   10  A    between atoms: N_11  and  P_12
REMARK   11  A    between atoms: P_12  and  C_14
REMARK   12  A    between atoms: P_12  and  C_20
REMARK   13  A    between atoms: C_29  and  C_30
REMARK   14  A    between atoms: C_30  and  O_32
REMARK   15  A    between atoms: O_32  and  C_33
REMARK                            x       y       z     vdW  Elec       q    Type
REMARK                         _______ _______ _______ _____ _____    ______ ____
ROOT
ATOM      1  C   UNL     1      -1.027  10.619  20.043  0.00  0.00    +0.000 C 
ENDROOT
BRANCH   1   2
ATOM      2  C   UNL     1       0.226   9.777  19.615  0.00  0.00    +0.000 A 
ATOM      3  C   UNL     1       0.728   9.850  18.298  0.00  0.00    +0.000 A 
ATOM      4  C   UNL     1       1.749   8.983  17.832  0.00  0.00    +0.000 A 
ATOM      5  C   UNL     1       2.300   8.005  18.668  0.00  0.00    +0.000 A 
ATOM      6  C   UNL     1       1.898   7.991  20.000  0.00  0.00    +0.000 A 
ATOM      7  C   UNL     1       0.889   8.860  20.454  0.00  0.00    +0.000 A 
BRANCH   5   8
ATOM      8  C   UNL     1       3.235   6.972  18.119  0.00  0.00    +0.000 C 
ATOM      9  O   UNL     1       3.996   7.167  17.186  0.00  0.00    +0.000 OA
BRANCH   8  10
ATOM     10  O   UNL     1       3.052   5.782  18.756  0.00  0.00    +0.000 OA
ATOM     11  C   UNL     1       4.217   5.223  19.374  0.00  0.00    +0.000 C 
ENDBRANCH   8  10
ENDBRANCH   5   8
ENDBRANCH   1   2
BRANCH   1  14
ATOM     12  C   UNL     1      -2.104  10.521  17.546  0.00  0.00    +0.000 C 
ATOM     13  C   UNL     1      -3.167  10.824  18.537  0.00  0.00    +0.000 C 
ATOM     14  C   UNL     1      -1.748  11.316  18.849  0.00  0.00    +0.000 C 
BRANCH  12  15
ATOM     15  C   UNL     1      -2.323  11.023  16.156  0.00  0.00    +0.000 C 
BRANCH  15  17
ATOM     16  C   UNL     1      -3.518  10.055  14.105  0.00  0.00    +0.000 C 
ATOM     17  C   UNL     1      -3.635  10.499  15.555  0.00  0.00    +0.000 C 
ENDBRANCH  15  17
ENDBRANCH  12  15
BRANCH  14  18
ATOM     18  C   UNL     1      -1.484  12.813  18.730  0.00  0.00    +0.000 C 
BRANCH  18  19
ATOM     19  C   UNL     1      -0.103  13.242  18.218  0.00  0.00    +0.000 C 
ATOM     20  C   UNL     1       0.274  14.699  18.440  0.00  0.00    +0.000 C 
ENDBRANCH  18  19
ENDBRANCH  14  18
ENDBRANCH   1  14
BRANCH   1  21
ATOM     21  N   UNL     1      -0.709  11.702  20.963  0.00  0.00    +0.000 NA
ATOM     22  H   UNL     1       0.298  11.823  20.933  0.00  0.00    +0.000 HD
BRANCH  21  23
ATOM     23  P   UNL     1      -1.286  11.971  22.483  0.00  0.00    +0.000 P 
ATOM     24  O   UNL     1      -0.692  10.989  23.464  0.00  0.00    +0.000 OA
BRANCH  23  25
ATOM     25  C   UNL     1      -0.559  13.644  22.627  0.00  0.00    +0.000 A 
ATOM     26  C   UNL     1       0.566  14.022  21.859  0.00  0.00    +0.000 A 
ATOM     27  C   UNL     1       1.097  15.300  21.985  0.00  0.00    +0.000 A 
ATOM     28  C   UNL     1       0.521  16.189  22.889  0.00  0.00    +0.000 A 
ATOM     29  C   UNL     1      -0.582  15.816  23.666  0.00  0.00    +0.000 A 
ATOM     30  C   UNL     1      -1.124  14.543  23.530  0.00  0.00    +0.000 A 
ENDBRANCH  23  25
BRANCH  23  31
ATOM     31  C   UNL     1      -3.023  12.367  22.899  0.00  0.00    +0.000 A 
ATOM     32  C   UNL     1      -3.681  12.366  24.133  0.00  0.00    +0.000 A 
ATOM     33  C   UNL     1      -5.062  12.663  24.208  0.00  0.00    +0.000 A 
ATOM     34  C   UNL     1      -5.804  12.993  23.070  0.00  0.00    +0.000 A 
ATOM     35  C   UNL     1      -5.175  13.022  21.837  0.00  0.00    +0.000 A 
ATOM     36  C   UNL     1      -3.809  12.740  21.771  0.00  0.00    +0.000 A 
ENDBRANCH  23  31
ENDBRANCH  21  23
ENDBRANCH   1  21
TORSDOF 12
ENDMDL
MODEL 4
REMARK VINA RESULT:      -6.6      4.748     10.357
REMARK  Name = 
REMARK  15 active torsions:
REMARK  status: ('A' for Active; 'I' for Inactive)
REMARK    1  A    between atoms: C_1  and  C_2
REMARK    2  A    between atoms: C_2  and  C_3
REMARK    3  A    between atoms: C_3  and  C_4
REMARK    4  A    between atoms: C_6  and  C_7
REMARK    5  A    between atoms: C_6  and  C_10
REMARK    6  A    between atoms: C_7  and  C_8
REMARK    7  A    between atoms: C_8  and  C_9
REMARK    8  A    between atoms: C_10  and  N_11
REMARK    9  A    between atoms: C_10  and  C_26
REMARK   10  A    between atoms: N_11  and  P_12
REMARK   11  A    between atoms: P_12  and  C_14
REMARK   12  A    between atoms: P_12  and  C_20
REMARK   13  A    between atoms: C_29  and  C_30
REMARK   14  A    between atoms: C_30  and  O_32
REMARK   15  A    between atoms: O_32  and  C_33
REMARK                            x       y       z     vdW  Elec       q    Type
REMARK                         _______ _______ _______ _____ _____    ______ ____
ROOT
ATOM      1  C   UNL     1       0.109  11.026  19.852  0.00  0.00    +0.000 C 
ENDROOT
BRANCH   1   2
ATOM      2  C   UNL     1       0.917   9.792  19.318  0.00  0.00    +0.000 A 
ATOM      3  C   UNL     1       1.173   8.682  20.152  0.00  0.00    +0.000 A 
ATOM      4  C   UNL     1       2.038   7.629  19.759  0.00  0.00    +0.000 A 
ATOM      5  C   UNL     1       2.683   7.653  18.516  0.00  0.00    +0.000 A 
ATOM      6  C   UNL     1       2.357   8.681  17.638  0.00  0.00    +0.000 A 
ATOM      7  C   UNL     1       1.493   9.718  18.035  0.00  0.00    +0.000 A 
BRANCH   5   8
ATOM      8  C   UNL     1       3.738   6.643  18.187  0.00  0.00    +0.000 C 
ATOM      9  O   UNL     1       3.921   5.616  18.820  0.00  0.00    +0.000 OA
BRANCH   8  10
ATOM     10  O   UNL     1       4.497   7.074  17.142  0.00  0.00    +0.000 OA
ATOM     11  C   UNL     1       5.048   6.047  16.309  0.00  0.00    +0.000 C 
ENDBRANCH   8  10
ENDBRANCH   5   8
ENDBRANCH   1   2
BRANCH   1  14
ATOM     12  C   UNL     1      -2.276  12.318  19.633  0.00  0.00    +0.000 C 
ATOM     13  C   UNL     1      -1.462  12.564  18.417  0.00  0.00    +0.000 C 
ATOM     14  C   UNL     1      -1.265  11.227  19.142  0.00  0.00    +0.000 C 
BRANCH  12  15
ATOM     15  C   UNL     1      -3.760  12.383  19.469  0.00  0.00    +0.000 C 
BRANCH  15  17
ATOM     16  C   UNL     1      -5.372  12.647  21.444  0.00  0.00    +0.000 C 
ATOM     17  C   UNL     1      -4.410  13.332  20.485  0.00  0.00    +0.000 C 
ENDBRANCH  15  17
ENDBRANCH  12  15
BRANCH  14  18
ATOM     18  C   UNL     1      -1.824   9.977  18.470  0.00  0.00    +0.000 C 
BRANCH  18  19
ATOM     19  C   UNL     1      -1.910   9.986  16.938  0.00  0.00    +0.000 C 
ATOM     20  C   UNL     1      -3.307  10.090  16.343  0.00  0.00    +0.000 C 
ENDBRANCH  18  19
ENDBRANCH  14  18
ENDBRANCH   1  14
BRANCH   1  21
ATOM     21  N   UNL     1       0.803  12.295  19.674  0.00  0.00    +0.000 NA
ATOM     22  H   UNL     1       1.584  12.113  19.051  0.00  0.00    +0.000 HD
BRANCH  21  23
ATOM     23  P   UNL     1       1.207  13.421  20.806  0.00  0.00    +0.000 P 
ATOM     24  O   UNL     1       2.618  13.206  21.298  0.00  0.00    +0.000 OA
BRANCH  23  25
ATOM     25  C   UNL     1       1.065  14.842  19.662  0.00  0.00    +0.000 A 
ATOM     26  C   UNL     1      -0.193  15.398  19.336  0.00  0.00    +0.000 A 
ATOM     27  C   UNL     1      -0.273  16.479  18.466  0.00  0.00    +0.000 A 
ATOM     28  C   UNL     1       0.896  16.990  17.909  0.00  0.00    +0.000 A 
ATOM     29  C   UNL     1       2.144  16.434  18.213  0.00  0.00    +0.000 A 
ATOM     30  C   UNL     1       2.227  15.363  19.095  0.00  0.00    +0.000 A 
ENDBRANCH  23  25
BRANCH  23  31
ATOM     31  C   UNL     1       0.110  14.010  22.147  0.00  0.00    +0.000 A 
ATOM     32  C   UNL     1      -0.949  13.369  22.797  0.00  0.00    +0.000 A 
ATOM     33  C   UNL     1      -1.699  14.049  23.785  0.00  0.00    +0.000 A 
ATOM     34  C   UNL     1      -1.395  15.360  24.164  0.00  0.00    +0.000 A 
ATOM     35  C   UNL     1      -0.338  16.013  23.552  0.00  0.00    +0.000 A 
ATOM     36  C   UNL     1       0.406  15.332  22.587  0.00  0.00    +0.000 A 
ENDBRANCH  23  31
ENDBRANCH  21  23
ENDBRANCH   1  21
TORSDOF 12
ENDMDL
MODEL 5
REMARK VINA RESULT:      -6.5      5.046      9.774
REMARK  Name = 
REMARK  15 active torsions:
REMARK  status: ('A' for Active; 'I' for Inactive)
REMARK    1  A    between atoms: C_1  and  C_2
REMARK    2  A    between atoms: C_2  and  C_3
REMARK    3  A    between atoms: C_3  and  C_4
REMARK    4  A    between atoms: C_6  and  C_7
REMARK    5  A    between atoms: C_6  and  C_10
REMARK    6  A    between atoms: C_7  and  C_8
REMARK    7  A    between atoms: C_8  and  C_9
REMARK    8  A    between atoms: C_10  and  N_11
REMARK    9  A    between atoms: C_10  and  C_26
REMARK   10  A    between atoms: N_11  and  P_12
REMARK   11  A    between atoms: P_12  and  C_14
REMARK   12  A    between atoms: P_12  and  C_20
REMARK   13  A    between atoms: C_29  and  C_30
REMARK   14  A    between atoms: C_30  and  O_32
REMARK   15  A    between atoms: O_32  and  C_33
REMARK                            x       y       z     vdW  Elec       q    Type
REMARK                         _______ _______ _______ _____ _____    ______ ____
ROOT
ATOM      1  C   UNL     1       0.251  11.124  19.765  0.00  0.00    +0.000 C 
ENDROOT
BRANCH   1   2
ATOM      2  C   UNL     1       1.123   9.871  19.400  0.00  0.00    +0.000 A 
ATOM      3  C   UNL     1       1.741   9.767  18.135  0.00  0.00    +0.000 A 
ATOM      4  C   UNL     1       2.393   8.581  17.711  0.00  0.00    +0.000 A 
ATOM      5  C   UNL     1       2.444   7.453  18.538  0.00  0.00    +0.000 A 
ATOM      6  C   UNL     1       1.938   7.573  19.829  0.00  0.00    +0.000 A 
ATOM      7  C   UNL     1       1.298   8.756  20.242  0.00  0.00    +0.000 A 
BRANCH   5   8
ATOM      8  C   UNL     1       2.961   6.148  18.016  0.00  0.00    +0.000 C 
ATOM      9  O   UNL     1       4.015   6.024  17.413  0.00  0.00    +0.000 OA
BRANCH   8  10
ATOM     10  O   UNL     1       2.057   5.155  18.242  0.00  0.00    +0.000 OA
ATOM     11  C   UNL     1       2.483   3.835  17.886  0.00  0.00    +0.000 C 
ENDBRANCH   8  10
ENDBRANCH   5   8
ENDBRANCH   1   2
BRANCH   1  14
ATOM     12  C   UNL     1      -2.222  12.206  19.424  0.00  0.00    +0.000 C 
ATOM     13  C   UNL     1      -1.404  12.436  18.206  0.00  0.00    +0.000 C 
ATOM     14  C   UNL     1      -1.119  11.168  19.022  0.00  0.00    +0.000 C 
BRANCH  12  15
ATOM     15  C   UNL     1      -3.703  12.143  19.232  0.00  0.00    +0.000 C 
BRANCH  15  17
ATOM     16  C   UNL     1      -3.755  12.835  21.700  0.00  0.00    +0.000 C 
ATOM     17  C   UNL     1      -4.459  12.871  20.352  0.00  0.00    +0.000 C 
ENDBRANCH  15  17
ENDBRANCH  12  15
BRANCH  14  18
ATOM     18  C   UNL     1      -1.565   9.838  18.425  0.00  0.00    +0.000 C 
BRANCH  18  19
ATOM     19  C   UNL     1      -1.701   9.766  16.899  0.00  0.00    +0.000 C 
ATOM     20  C   UNL     1      -3.116   9.852  16.344  0.00  0.00    +0.000 C 
ENDBRANCH  18  19
ENDBRANCH  14  18
ENDBRANCH   1  14
BRANCH   1  21
ATOM     21  N   UNL     1       0.890  12.390  19.434  0.00  0.00    +0.000 NA
ATOM     22  H   UNL     1       1.834  12.169  19.134  0.00  0.00    +0.000 HD
BRANCH  21  23
ATOM     23  P   UNL     1       0.858  13.813  20.265  0.00  0.00    +0.000 P 
ATOM     24  O   UNL     1       0.826  13.565  21.753  0.00  0.00    +0.000 OA
BRANCH  23  25
ATOM     25  C   UNL     1       2.497  14.370  19.674  0.00  0.00    +0.000 A 
ATOM     26  C   UNL     1       2.982  13.997  18.399  0.00  0.00    +0.000 A 
ATOM     27  C   UNL     1       4.231  14.436  17.973  0.00  0.00    +0.000 A 
ATOM     28  C   UNL     1       4.999  15.225  18.824  0.00  0.00    +0.000 A 
ATOM     29  C   UNL     1       4.534  15.583  20.095  0.00  0.00    +0.000 A 
ATOM     30  C   UNL     1       3.279  15.159  20.516  0.00  0.00    +0.000 A 
ENDBRANCH  23  25
BRANCH  23  31
ATOM     31  C   UNL     1      -0.135  15.280  19.807  0.00  0.00    +0.000 A 
ATOM     32  C   UNL     1       0.029  16.192  18.759  0.00  0.00    +0.000 A 
ATOM     33  C   UNL     1      -0.846  17.296  18.628  0.00  0.00    +0.000 A 
ATOM     34  C   UNL     1      -1.911  17.497  19.512  0.00  0.00    +0.000 A 
ATOM     35  C   UNL     1      -2.110  16.599  20.547  0.00  0.00    +0.000 A 
ATOM     36  C   UNL     1      -1.251  15.504  20.663  0.00  0.00    +0.000 A 
ENDBRANCH  23  31
ENDBRANCH  21  23
ENDBRANCH   1  21
TORSDOF 12
ENDMDL
MODEL 6
REMARK VINA RESULT:      -6.5      4.869     10.388
REMARK  Name = 
REMARK  15 active torsions:
REMARK  status: ('A' for Active; 'I' for Inactive)
REMARK    1  A    between atoms: C_1  and  C_2
REMARK    2  A    between atoms: C_2  and  C_3
REMARK    3  A    between atoms: C_3  and  C_4
REMARK    4  A    between atoms: C_6  and  C_7
REMARK    5  A    between atoms: C_6  and  C_10
REMARK    6  A    between atoms: C_7  and  C_8
REMARK    7  A    between atoms: C_8  and  C_9
REMARK    8  A    between atoms: C_10  and  N_11
REMARK    9  A    between atoms: C_10  and  C_26
REMARK   10  A    between atoms: N_11  and  P_12
REMARK   11  A    between atoms: P_12  and  C_14
REMARK   12  A    between atoms: P_12  and  C_20
REMARK   13  A    between atoms: C_29  and  C_30
REMARK   14  A    between atoms: C_30  and  O_32
REMARK   15  A    between atoms: O_32  and  C_33
REMARK                            x       y       z     vdW  Elec       q    Type
REMARK                         _______ _______ _______ _____ _____    ______ ____
ROOT
ATOM      1  C   UNL     1       0.022  11.260  19.869  0.00  0.00    +0.000 C 
ENDROOT
BRANCH   1   2
ATOM      2  C   UNL     1       0.946  10.045  19.507  0.00  0.00    +0.000 A 
ATOM      3  C   UNL     1       1.594   9.980  18.255  0.00  0.00    +0.000 A 
ATOM      4  C   UNL     1       2.298   8.823  17.831  0.00  0.00    +0.000 A 
ATOM      5  C   UNL     1       2.372   7.687  18.645  0.00  0.00    +0.000 A 
ATOM      6  C   UNL     1       1.835   7.772  19.926  0.00  0.00    +0.000 A 
ATOM      7  C   UNL     1       1.145   8.926  20.340  0.00  0.00    +0.000 A 
BRANCH   5   8
ATOM      8  C   UNL     1       2.948   6.409  18.118  0.00  0.00    +0.000 C 
ATOM      9  O   UNL     1       3.907   6.351  17.367  0.00  0.00    +0.000 OA
BRANCH   8  10
ATOM     10  O   UNL     1       2.203   5.347  18.533  0.00  0.00    +0.000 OA
ATOM     11  C   UNL     1       2.937   4.262  19.112  0.00  0.00    +0.000 C 
ENDBRANCH   8  10
ENDBRANCH   5   8
ENDBRANCH   1   2
BRANCH   1  14
ATOM     12  C   UNL     1      -1.397  10.589  17.646  0.00  0.00    +0.000 C 
ATOM     13  C   UNL     1      -2.033   9.987  18.845  0.00  0.00    +0.000 C 
ATOM     14  C   UNL     1      -1.291  11.317  19.029  0.00  0.00    +0.000 C 
BRANCH  12  15
ATOM     15  C   UNL     1      -2.294  10.876  16.486  0.00  0.00    +0.000 C 
BRANCH  15  17
ATOM     16  C   UNL     1      -4.758  11.504  16.808  0.00  0.00    +0.000 C 
ATOM     17  C   UNL     1      -3.728  10.387  16.734  0.00  0.00    +0.000 C 
ENDBRANCH  15  17
ENDBRANCH  12  15
BRANCH  14  18
ATOM     18  C   UNL     1      -2.138  12.565  19.253  0.00  0.00    +0.000 C 
BRANCH  18  19
ATOM     19  C   UNL     1      -3.354  12.429  20.179  0.00  0.00    +0.000 C 
ATOM     20  C   UNL     1      -3.928  13.725  20.732  0.00  0.00    +0.000 C 
ENDBRANCH  18  19
ENDBRANCH  14  18
ENDBRANCH   1  14
BRANCH   1  21
ATOM     21  N   UNL     1       0.655  12.554  19.650  0.00  0.00    +0.000 NA
ATOM     22  H   UNL     1       1.358  12.415  18.932  0.00  0.00    +0.000 HD
BRANCH  21  23
ATOM     23  P   UNL     1       1.163  13.658  20.762  0.00  0.00    +0.000 P 
ATOM     24  O   UNL     1       2.577  13.365  21.202  0.00  0.00    +0.000 OA
BRANCH  23  25
ATOM     25  C   UNL     1       1.058  15.083  19.618  0.00  0.00    +0.000 A 
ATOM     26  C   UNL     1       2.219  15.766  19.190  0.00  0.00    +0.000 A 
ATOM     27  C   UNL     1       2.111  16.844  18.318  0.00  0.00    +0.000 A 
ATOM     28  C   UNL     1       0.849  17.250  17.893  0.00  0.00    +0.000 A 
ATOM     29  C   UNL     1      -0.306  16.590  18.327  0.00  0.00    +0.000 A 
ATOM     30  C   UNL     1      -0.200  15.502  19.186  0.00  0.00    +0.000 A 
ENDBRANCH  23  25
BRANCH  23  31
ATOM     31  C   UNL     1       0.152  14.311  22.140  0.00  0.00    +0.000 A 
ATOM     32  C   UNL     1       0.164  15.567  22.755  0.00  0.00    +0.000 A 
ATOM     33  C   UNL     1      -0.687  15.834  23.853  0.00  0.00    +0.000 A 
ATOM     34  C   UNL     1      -1.580  14.875  24.339  0.00  0.00    +0.000 A 
ATOM     35  C   UNL     1      -1.629  13.629  23.737  0.00  0.00    +0.000 A 
ATOM     36  C   UNL     1      -0.796  13.376  22.645  0.00  0.00    +0.000 A 
ENDBRANCH  23  31
ENDBRANCH  21  23
ENDBRANCH   1  21
TORSDOF 12
ENDMDL
MODEL 7
REMARK VINA RESULT:      -6.5      5.200     10.007
REMARK  Name = 
REMARK  15 active torsions:
REMARK  status: ('A' for Active; 'I' for Inactive)
REMARK    1  A    between atoms: C_1  and  C_2
REMARK    2  A    between atoms: C_2  and  C_3
REMARK    3  A    between atoms: C_3  and  C_4
REMARK    4  A    between atoms: C_6  and  C_7
REMARK    5  A    between atoms: C_6  and  C_10
REMARK    6  A    between atoms: C_7  and  C_8
REMARK    7  A    between atoms: C_8  and  C_9
REMARK    8  A    between atoms: C_10  and  N_11
REMARK    9  A    between atoms: C_10  and  C_26
REMARK   10  A    between atoms: N_11  and  P_12
REMARK   11  A    between atoms: P_12  and  C_14
REMARK   12  A    between atoms: P_12  and  C_20
REMARK   13  A    between atoms: C_29  and  C_30
REMARK   14  A    between atoms: C_30  and  O_32
REMARK   15  A    between atoms: O_32  and  C_33
REMARK                            x       y       z     vdW  Elec       q    Type
REMARK                         _______ _______ _______ _____ _____    ______ ____
ROOT
ATOM      1  C   UNL     1       0.833  11.931  20.627  0.00  0.00    +0.000 C 
ENDROOT
BRANCH   1   2
ATOM      2  C   UNL     1       1.114  10.488  20.077  0.00  0.00    +0.000 A 
ATOM      3  C   UNL     1       1.149   9.379  20.949  0.00  0.00    +0.000 A 
ATOM      4  C   UNL     1       1.563   8.093  20.515  0.00  0.00    +0.000 A 
ATOM      5  C   UNL     1       1.963   7.875  19.192  0.00  0.00    +0.000 A 
ATOM      6  C   UNL     1       1.829   8.928  18.293  0.00  0.00    +0.000 A 
ATOM      7  C   UNL     1       1.411  10.198  18.731  0.00  0.00    +0.000 A 
BRANCH   5   8
ATOM      8  C   UNL     1       2.579   6.571  18.788  0.00  0.00    +0.000 C 
ATOM      9  O   UNL     1       3.232   6.411  17.770  0.00  0.00    +0.000 OA
BRANCH   8  10
ATOM     10  O   UNL     1       2.241   5.593  19.673  0.00  0.00    +0.000 OA
ATOM     11  C   UNL     1       3.212   4.556  19.853  0.00  0.00    +0.000 C 
ENDBRANCH   8  10
ENDBRANCH   5   8
ENDBRANCH   1   2
BRANCH   1  14
ATOM     12  C   UNL     1      -0.973  11.968  22.663  0.00  0.00    +0.000 C 
ATOM     13  C   UNL     1      -0.856  13.326  22.074  0.00  0.00    +0.000 C 
ATOM     14  C   UNL     1      -0.626  12.128  21.143  0.00  0.00    +0.000 C 
BRANCH  12  15
ATOM     15  C   UNL     1      -2.276  11.630  23.311  0.00  0.00    +0.000 C 
BRANCH  15  17
ATOM     16  C   UNL     1      -4.322  12.599  24.513  0.00  0.00    +0.000 C 
ATOM     17  C   UNL     1      -3.066  12.886  23.704  0.00  0.00    +0.000 C 
ENDBRANCH  15  17
ENDBRANCH  12  15
BRANCH  14  18
ATOM     18  C   UNL     1      -1.713  11.818  20.120  0.00  0.00    +0.000 C 
BRANCH  18  19
ATOM     19  C   UNL     1      -2.725  12.929  19.817  0.00  0.00    +0.000 C 
ATOM     20  C   UNL     1      -4.180  12.621  20.140  0.00  0.00    +0.000 C 
ENDBRANCH  18  19
ENDBRANCH  14  18
ENDBRANCH   1  14
BRANCH   1  21
ATOM     21  N   UNL     1       1.014  12.976  19.629  0.00  0.00    +0.000 NA
ATOM     22  H   UNL     1       0.644  12.612  18.757  0.00  0.00    +0.000 HD
BRANCH  21  23
ATOM     23  P   UNL     1       2.331  13.927  19.355  0.00  0.00    +0.000 P 
ATOM     24  O   UNL     1       3.166  13.374  18.225  0.00  0.00    +0.000 OA
BRANCH  23  25
ATOM     25  C   UNL     1       1.357  15.396  18.863  0.00  0.00    +0.000 A 
ATOM     26  C   UNL     1      -0.041  15.451  19.068  0.00  0.00    +0.000 A 
ATOM     27  C   UNL     1      -0.757  16.579  18.687  0.00  0.00    +0.000 A 
ATOM     28  C   UNL     1      -0.084  17.639  18.086  0.00  0.00    +0.000 A 
ATOM     29  C   UNL     1       1.296  17.586  17.862  0.00  0.00    +0.000 A 
ATOM     30  C   UNL     1       2.017  16.464  18.257  0.00  0.00    +0.000 A 
ENDBRANCH  23  25
BRANCH  23  31
ATOM     31  C   UNL     1       3.374  14.686  20.652  0.00  0.00    +0.000 A 
ATOM     32  C   UNL     1       3.058  15.062  21.962  0.00  0.00    +0.000 A 
ATOM     33  C   UNL     1       4.028  15.687  22.780  0.00  0.00    +0.000 A 
ATOM     34  C   UNL     1       5.330  15.921  22.327  0.00  0.00    +0.000 A 
ATOM     35  C   UNL     1       5.677  15.541  21.041  0.00  0.00    +0.000 A 
ATOM     36  C   UNL     1       4.719  14.914  20.243  0.00  0.00    +0.000 A 
ENDBRANCH  23  31
ENDBRANCH  21  23
ENDBRANCH   1  21
TORSDOF 12
ENDMDL
MODEL 8
REMARK VINA RESULT:      -6.5      4.783     11.016
REMARK  Name = 
REMARK  15 active torsions:
REMARK  status: ('A' for Active; 'I' for Inactive)
REMARK    1  A    between atoms: C_1  and  C_2
REMARK    2  A    between atoms: C_2  and  C_3
REMARK    3  A    between atoms: C_3  and  C_4
REMARK    4  A    between atoms: C_6  and  C_7
REMARK    5  A    between atoms: C_6  and  C_10
REMARK    6  A    between atoms: C_7  and  C_8
REMARK    7  A    between atoms: C_8  and  C_9
REMARK    8  A    between atoms: C_10  and  N_11
REMARK    9  A    between atoms: C_10  and  C_26
REMARK   10  A    between atoms: N_11  and  P_12
REMARK   11  A    between atoms: P_12  and  C_14
REMARK   12  A    between atoms: P_12  and  C_20
REMARK   13  A    between atoms: C_29  and  C_30
REMARK   14  A    between atoms: C_30  and  O_32
REMARK   15  A    between atoms: O_32  and  C_33
REMARK                            x       y       z     vdW  Elec       q    Type
REMARK                         _______ _______ _______ _____ _____    ______ ____
ROOT
ATOM      1  C   UNL     1      -1.115  10.889  19.863  0.00  0.00    +0.000 C 
ENDROOT
BRANCH   1   2
ATOM      2  C   UNL     1       0.114   9.969  19.535  0.00  0.00    +0.000 A 
ATOM      3  C   UNL     1       0.601   9.862  18.215  0.00  0.00    +0.000 A 
ATOM      4  C   UNL     1       1.597   8.917  17.855  0.00  0.00    +0.000 A 
ATOM      5  C   UNL     1       2.137   8.043  18.805  0.00  0.00    +0.000 A 
ATOM      6  C   UNL     1       1.750   8.209  20.131  0.00  0.00    +0.000 A 
ATOM      7  C   UNL     1       0.766   9.153  20.479  0.00  0.00    +0.000 A 
BRANCH   5   8
ATOM      8  C   UNL     1       3.041   6.925  18.385  0.00  0.00    +0.000 C 
ATOM      9  O   UNL     1       3.099   5.846  18.950  0.00  0.00    +0.000 OA
BRANCH   8  10
ATOM     10  O   UNL     1       3.828   7.318  17.345  0.00  0.00    +0.000 OA
ATOM     11  C   UNL     1       4.741   6.332  16.851  0.00  0.00    +0.000 C 
ENDBRANCH   8  10
ENDBRANCH   5   8
ENDBRANCH   1   2
BRANCH   1  14
ATOM     12  C   UNL     1      -2.863  10.869  17.778  0.00  0.00    +0.000 C 
ATOM     13  C   UNL     1      -3.213  11.968  18.712  0.00  0.00    +0.000 C 
ATOM     14  C   UNL     1      -1.735  11.573  18.605  0.00  0.00    +0.000 C 
BRANCH  12  15
ATOM     15  C   UNL     1      -3.253  11.058  16.347  0.00  0.00    +0.000 C 
BRANCH  15  17
ATOM     16  C   UNL     1      -3.235   9.986  14.019  0.00  0.00    +0.000 C 
ATOM     17  C   UNL     1      -2.738   9.919  15.455  0.00  0.00    +0.000 C 
ENDBRANCH  15  17
ENDBRANCH  12  15
BRANCH  14  18
ATOM     18  C   UNL     1      -0.804  12.537  17.879  0.00  0.00    +0.000 C 
BRANCH  18  19
ATOM     19  C   UNL     1       0.020  13.500  18.744  0.00  0.00    +0.000 C 
ATOM     20  C   UNL     1      -0.365  14.970  18.669  0.00  0.00    +0.000 C 
ENDBRANCH  18  19
ENDBRANCH  14  18
ENDBRANCH   1  14
BRANCH   1  21
ATOM     21  N   UNL     1      -0.791  11.991  20.758  0.00  0.00    +0.000 NA
ATOM     22  H   UNL     1       0.218  12.096  20.736  0.00  0.00    +0.000 HD
BRANCH  21  23
ATOM     23  P   UNL     1      -1.380  12.307  22.264  0.00  0.00    +0.000 P 
ATOM     24  O   UNL     1      -0.655  11.490  23.306  0.00  0.00    +0.000 OA
BRANCH  23  25
ATOM     25  C   UNL     1      -0.868  14.064  22.260  0.00  0.00    +0.000 A 
ATOM     26  C   UNL     1       0.497  14.429  22.217  0.00  0.00    +0.000 A 
ATOM     27  C   UNL     1       0.859  15.772  22.212  0.00  0.00    +0.000 A 
ATOM     28  C   UNL     1      -0.136  16.743  22.271  0.00  0.00    +0.000 A 
ATOM     29  C   UNL     1      -1.489  16.389  22.333  0.00  0.00    +0.000 A 
ATOM     30  C   UNL     1      -1.854  15.048  22.321  0.00  0.00    +0.000 A 
ENDBRANCH  23  25
BRANCH  23  31
ATOM     31  C   UNL     1      -3.148  12.516  22.684  0.00  0.00    +0.000 A 
ATOM     32  C   UNL     1      -4.244  12.811  21.866  0.00  0.00    +0.000 A 
ATOM     33  C   UNL     1      -5.531  12.976  22.427  0.00  0.00    +0.000 A 
ATOM     34  C   UNL     1      -5.759  12.824  23.798  0.00  0.00    +0.000 A 
ATOM     35  C   UNL     1      -4.698  12.511  24.630  0.00  0.00    +0.000 A 
ATOM     36  C   UNL     1      -3.431  12.337  24.068  0.00  0.00    +0.000 A 
ENDBRANCH  23  31
ENDBRANCH  21  23
ENDBRANCH   1  21
TORSDOF 12
ENDMDL
MODEL 9
REMARK VINA RESULT:      -6.4      5.502      9.808
REMARK  Name = 
REMARK  15 active torsions:
REMARK  status: ('A' for Active; 'I' for Inactive)
REMARK    1  A    between atoms: C_1  and  C_2
REMARK    2  A    between atoms: C_2  and  C_3
REMARK    3  A    between atoms: C_3  and  C_4
REMARK    4  A    between atoms: C_6  and  C_7
REMARK    5  A    between atoms: C_6  and  C_10
REMARK    6  A    between atoms: C_7  and  C_8
REMARK    7  A    between atoms: C_8  and  C_9
REMARK    8  A    between atoms: C_10  and  N_11
REMARK    9  A    between atoms: C_10  and  C_26
REMARK   10  A    between atoms: N_11  and  P_12
REMARK   11  A    between atoms: P_12  and  C_14
REMARK   12  A    between atoms: P_12  and  C_20
REMARK   13  A    between atoms: C_29  and  C_30
REMARK   14  A    between atoms: C_30  and  O_32
REMARK   15  A    between atoms: O_32  and  C_33
REMARK                            x       y       z     vdW  Elec       q    Type
REMARK                         _______ _______ _______ _____ _____    ______ ____
ROOT
ATOM      1  C   UNL     1      -0.511  12.199  19.691  0.00  0.00    +0.000 C 
ENDROOT
BRANCH   1   2
ATOM      2  C   UNL     1      -1.544  12.195  20.872  0.00  0.00    +0.000 A 
ATOM      3  C   UNL     1      -2.792  12.841  20.741  0.00  0.00    +0.000 A 
ATOM      4  C   UNL     1      -3.676  13.001  21.839  0.00  0.00    +0.000 A 
ATOM      5  C   UNL     1      -3.338  12.523  23.110  0.00  0.00    +0.000 A 
ATOM      6  C   UNL     1      -2.164  11.787  23.234  0.00  0.00    +0.000 A 
ATOM      7  C   UNL     1      -1.297  11.629  22.138  0.00  0.00    +0.000 A 
BRANCH   5   8
ATOM      8  C   UNL     1      -4.183  12.862  24.300  0.00  0.00    +0.000 C 
ATOM      9  O   UNL     1      -3.866  13.676  25.151  0.00  0.00    +0.000 OA
BRANCH   8  10
ATOM     10  O   UNL     1      -5.298  12.081  24.327  0.00  0.00    +0.000 OA
ATOM     11  C   UNL     1      -6.537  12.760  24.095  0.00  0.00    +0.000 C 
ENDBRANCH   8  10
ENDBRANCH   5   8
ENDBRANCH   1   2
BRANCH   1  14
ATOM     12  C   UNL     1       1.329  10.485  18.651  0.00  0.00    +0.000 C 
ATOM     13  C   UNL     1       0.985  10.069  20.034  0.00  0.00    +0.000 C 
ATOM     14  C   UNL     1      -0.105  10.771  19.213  0.00  0.00    +0.000 C 
BRANCH  12  15
ATOM     15  C   UNL     1       1.791   9.408  17.724  0.00  0.00    +0.000 C 
BRANCH  15  17
ATOM     16  C   UNL     1       3.359   7.381  17.763  0.00  0.00    +0.000 C 
ATOM     17  C   UNL     1       2.270   8.162  18.482  0.00  0.00    +0.000 C 
ENDBRANCH  15  17
ENDBRANCH  12  15
BRANCH  14  18
ATOM     18  C   UNL     1      -1.260   9.914  18.708  0.00  0.00    +0.000 C 
BRANCH  18  19
ATOM     19  C   UNL     1      -2.258  10.578  17.751  0.00  0.00    +0.000 C 
ATOM     20  C   UNL     1      -2.307  10.020  16.335  0.00  0.00    +0.000 C 
ENDBRANCH  18  19
ENDBRANCH  14  18
ENDBRANCH   1  14
BRANCH   1  21
ATOM     21  N   UNL     1       0.750  12.847  20.026  0.00  0.00    +0.000 NA
ATOM     22  H   UNL     1       1.327  12.143  20.475  0.00  0.00    +0.000 HD
BRANCH  21  23
ATOM     23  P   UNL     1       1.004  14.329  20.699  0.00  0.00    +0.000 P 
ATOM     24  O   UNL     1       1.242  14.210  22.185  0.00  0.00    +0.000 OA
BRANCH  23  25
ATOM     25  C   UNL     1       2.539  14.660  19.759  0.00  0.00    +0.000 A 
ATOM     26  C   UNL     1       2.919  13.847  18.667  0.00  0.00    +0.000 A 
ATOM     27  C   UNL     1       4.089  14.121  17.968  0.00  0.00    +0.000 A 
ATOM     28  C   UNL     1       4.885  15.189  18.371  0.00  0.00    +0.000 A 
ATOM     29  C   UNL     1       4.526  15.988  19.462  0.00  0.00    +0.000 A 
ATOM     30  C   UNL     1       3.348  15.725  20.153  0.00  0.00    +0.000 A 
ENDBRANCH  23  25
BRANCH  23  31
ATOM     31  C   UNL     1       0.073  15.849  20.287  0.00  0.00    +0.000 A 
ATOM     32  C   UNL     1      -0.498  16.815  21.123  0.00  0.00    +0.000 A 
ATOM     33  C   UNL     1      -1.226  17.896  20.573  0.00  0.00    +0.000 A 
ATOM     34  C   UNL     1      -1.375  18.054  19.192  0.00  0.00    +0.000 A 
ATOM     35  C   UNL     1      -0.803  17.125  18.339  0.00  0.00    +0.000 A 
ATOM     36  C   UNL     1      -0.075  16.067  18.887  0.00  0.00    +0.000 A 
ENDBRANCH  23  31
ENDBRANCH  21  23
ENDBRANCH   1  21
TORSDOF 12
ENDMDL
