MODEL 1
REMARK VINA RESULT:      -7.4      0.000      0.000
REMARK  Name = 
REMARK  12 active torsions:
REMARK  status: ('A' for Active; 'I' for Inactive)
REMARK    1  A    between atoms: C_1  and  O_2
REMARK    2  A    between atoms: O_2  and  C_3
REMARK    3  A    between atoms: C_6  and  C_7
REMARK    4  A    between atoms: C_9  and  C_10
REMARK    5  A    between atoms: C_13  and  O_14
REMARK    6  A    between atoms: O_14  and  C_15
REMARK    7  A    between atoms: C_16  and  C_17
REMARK    8  A    between atoms: C_17  and  C_18
REMARK    9  A    between atoms: C_17  and  C_22
REMARK   10  A    between atoms: C_18  and  C_19
REMARK   11  A    between atoms: C_19  and  O_21
REMARK   12  A    between atoms: C_25  and  C_26
REMARK                            x       y       z     vdW  Elec       q    Type
REMARK                         _______ _______ _______ _____ _____    ______ ____
ROOT
ATOM      1  C   UNL     1       2.151   7.499  18.989  0.00  0.00    +0.000 A 
ATOM      2  C   UNL     1       2.098   7.359  20.379  0.00  0.00    +0.000 A 
ATOM      3  C   UNL     1       1.349   8.217  21.167  0.00  0.00    +0.000 A 
ATOM      4  C   UNL     1       0.551   9.221  20.600  0.00  0.00    +0.000 A 
ATOM      5  C   UNL     1       0.632   9.473  19.218  0.00  0.00    +0.000 A 
ATOM      6  C   UNL     1       1.433   8.576  18.448  0.00  0.00    +0.000 A 
ENDROOT
BRANCH   1  13
ATOM      7  C   UNL     1       2.540   5.167  18.011  0.00  0.00    +0.000 A 
ATOM      8  C   UNL     1       3.390   4.280  17.331  0.00  0.00    +0.000 A 
ATOM      9  C   UNL     1       4.631   4.704  16.848  0.00  0.00    +0.000 A 
ATOM     10  C   UNL     1       5.028   6.028  16.996  0.00  0.00    +0.000 A 
ATOM     11  C   UNL     1       6.378   6.508  16.561  0.00  0.00    +0.000 C 
ATOM     12  C   UNL     1       4.156   6.922  17.624  0.00  0.00    +0.000 A 
ATOM     13  C   UNL     1       2.916   6.517  18.178  0.00  0.00    +0.000 A 
BRANCH   7  15
ATOM     14  C   UNL     1       1.301   3.648  19.378  0.00  0.00    +0.000 C 
ATOM     15  O   UNL     1       1.325   4.777  18.519  0.00  0.00    +0.000 OA
ENDBRANCH   7  15
ENDBRANCH   1  13
BRANCH   4  16
ATOM     16  O   UNL     1      -0.308   9.926  21.404  0.00  0.00    +0.000 OA
ATOM     17  C   UNL     1      -0.334   9.451  22.763  0.00  0.00    +0.000 C 
ENDBRANCH   4  16
BRANCH   5  18
ATOM     18  C   UNL     1      -0.133  10.546  18.411  0.00  0.00    +0.000 C 
BRANCH  18  19
ATOM     19  C   UNL     1       0.251  12.001  18.763  0.00  0.00    +0.000 A 
ATOM     20  N   UNL     1      -0.647  12.962  18.912  0.00  0.00    +0.000 NA
ATOM     21  C   UNL     1      -0.023  14.196  18.901  0.00  0.00    +0.000 A 
ATOM     22  C   UNL     1       1.348  14.164  18.764  0.00  0.00    +0.000 A 
ATOM     23  C   UNL     1       2.300  15.273  18.491  0.00  0.00    +0.000 C 
ATOM     24  S   UNL     1       1.886  12.542  18.935  0.00  0.00    +0.000 S 
ENDBRANCH  18  19
BRANCH  18  25
ATOM     25  C   UNL     1      -1.660  10.463  18.296  0.00  0.00    +0.000 C 
BRANCH  25  26
ATOM     26  C   UNL     1      -2.137  10.529  16.864  0.00  0.00    +0.000 C 
ATOM     27  O   UNL     1      -2.476   9.562  16.185  0.00  0.00    +0.000 OA
BRANCH  26  28
ATOM     28  O   UNL     1      -2.086  11.778  16.349  0.00  0.00    +0.000 OA
ATOM     29  H   UNL     1      -2.018  11.794  15.376  0.00  0.00    +0.000 HD
ENDBRANCH  26  28
ENDBRANCH  25  26
ENDBRANCH  18  25
ENDBRANCH   5  18
TORSDOF 8
ENDMDL
MODEL 2
REMARK VINA RESULT:      -7.2      1.017      1.120
REMARK  Name = 
REMARK  12 active torsions:
REMARK  status: ('A' for Active; 'I' for Inactive)
REMARK    1  A    between atoms: C_1  and  O_2
REMARK    2  A    between atoms: O_2  and  C_3
REMARK    3  A    between atoms: C_6  and  C_7
REMARK    4  A    between atoms: C_9  and  C_10
REMARK    5  A    between atoms: C_13  and  O_14
REMARK    6  A    between atoms: O_14  and  C_15
REMARK    7  A    between atoms: C_16  and  C_17
REMARK    8  A    between atoms: C_17  and  C_18
REMARK    9  A    between atoms: C_17  and  C_22
REMARK   10  A    between atoms: C_18  and  C_19
REMARK   11  A    between atoms: C_19  and  O_21
REMARK   12  A    between atoms: C_25  and  C_26
REMARK                            x       y       z     vdW  Elec       q    Type
REMARK                         _______ _______ _______ _____ _____    ______ ____
ROOT
ATOM      1  C   UNL     1       2.382   7.243  18.942  0.00  0.00    +0.000 A 
ATOM      2  C   UNL     1       2.205   6.942  20.296  0.00  0.00    +0.000 A 
ATOM      3  C   UNL     1       1.436   7.743  21.123  0.00  0.00    +0.000 A 
ATOM      4  C   UNL     1       0.739   8.853  20.624  0.00  0.00    +0.000 A 
ATOM      5  C   UNL     1       0.948   9.262  19.294  0.00  0.00    +0.000 A 
ATOM      6  C   UNL     1       1.766   8.417  18.484  0.00  0.00    +0.000 A 
ENDROOT
BRANCH   1  13
ATOM      7  C   UNL     1       2.745   5.017  17.734  0.00  0.00    +0.000 A 
ATOM      8  C   UNL     1       3.606   4.171  17.017  0.00  0.00    +0.000 A 
ATOM      9  C   UNL     1       4.894   4.585  16.669  0.00  0.00    +0.000 A 
ATOM     10  C   UNL     1       5.332   5.864  16.993  0.00  0.00    +0.000 A 
ATOM     11  C   UNL     1       6.729   6.323  16.707  0.00  0.00    +0.000 C 
ATOM     12  C   UNL     1       4.454   6.724  17.659  0.00  0.00    +0.000 A 
ATOM     13  C   UNL     1       3.163   6.321  18.078  0.00  0.00    +0.000 A 
BRANCH   7  15
ATOM     14  C   UNL     1       1.331   3.350  18.699  0.00  0.00    +0.000 C 
ATOM     15  O   UNL     1       1.482   4.633  18.112  0.00  0.00    +0.000 OA
ENDBRANCH   7  15
ENDBRANCH   1  13
BRANCH   4  16
ATOM     16  O   UNL     1      -0.148   9.508  21.440  0.00  0.00    +0.000 OA
ATOM     17  C   UNL     1       0.226   9.476  22.830  0.00  0.00    +0.000 C 
ENDBRANCH   4  16
BRANCH   5  18
ATOM     18  C   UNL     1       0.309  10.467  18.569  0.00  0.00    +0.000 C 
BRANCH  18  19
ATOM     19  C   UNL     1       0.952  11.830  18.909  0.00  0.00    +0.000 A 
ATOM     20  N   UNL     1       2.109  12.223  18.400  0.00  0.00    +0.000 NA
ATOM     21  C   UNL     1       2.593  13.307  19.109  0.00  0.00    +0.000 A 
ATOM     22  C   UNL     1       1.790  13.746  20.140  0.00  0.00    +0.000 A 
ATOM     23  C   UNL     1       2.087  14.714  21.228  0.00  0.00    +0.000 C 
ATOM     24  S   UNL     1       0.269  12.953  20.035  0.00  0.00    +0.000 S 
ENDBRANCH  18  19
BRANCH  18  25
ATOM     25  C   UNL     1      -1.216  10.637  18.579  0.00  0.00    +0.000 C 
BRANCH  25  26
ATOM     26  C   UNL     1      -1.805  10.663  17.189  0.00  0.00    +0.000 C 
ATOM     27  O   UNL     1      -2.162   9.675  16.551  0.00  0.00    +0.000 OA
BRANCH  26  28
ATOM     28  O   UNL     1      -1.838  11.905  16.655  0.00  0.00    +0.000 OA
ATOM     29  H   UNL     1      -2.742  12.231  16.488  0.00  0.00    +0.000 HD
ENDBRANCH  26  28
ENDBRANCH  25  26
ENDBRANCH  18  25
ENDBRANCH   5  18
TORSDOF 8
ENDMDL
MODEL 3
REMARK VINA RESULT:      -7.1      1.464      2.691
REMARK  Name = 
REMARK  12 active torsions:
REMARK  status: ('A' for Active; 'I' for Inactive)
REMARK    1  A    between atoms: C_1  and  O_2
REMARK    2  A    between atoms: O_2  and  C_3
REMARK    3  A    between atoms: C_6  and  C_7
REMARK    4  A    between atoms: C_9  and  C_10
REMARK    5  A    between atoms: C_13  and  O_14
REMARK    6  A    between atoms: O_14  and  C_15
REMARK    7  A    between atoms: C_16  and  C_17
REMARK    8  A    between atoms: C_17  and  C_18
REMARK    9  A    between atoms: C_17  and  C_22
REMARK   10  A    between atoms: C_18  and  C_19
REMARK   11  A    between atoms: C_19  and  O_21
REMARK   12  A    between atoms: C_25  and  C_26
REMARK                            x       y       z     vdW  Elec       q    Type
REMARK                         _______ _______ _______ _____ _____    ______ ____
ROOT
ATOM      1  C   UNL     1       1.644   7.864  20.374  0.00  0.00    +0.000 A 
ATOM      2  C   UNL     1       1.662   8.188  21.734  0.00  0.00    +0.000 A 
ATOM      3  C   UNL     1       1.228   9.421  22.192  0.00  0.00    +0.000 A 
ATOM      4  C   UNL     1       0.683  10.374  21.320  0.00  0.00    +0.000 A 
ATOM      5  C   UNL     1       0.721  10.146  19.931  0.00  0.00    +0.000 A 
ATOM      6  C   UNL     1       1.197   8.869  19.504  0.00  0.00    +0.000 A 
ENDROOT
BRANCH   1  13
ATOM      7  C   UNL     1       2.772   6.246  18.744  0.00  0.00    +0.000 A 
ATOM      8  C   UNL     1       3.012   4.921  18.347  0.00  0.00    +0.000 A 
ATOM      9  C   UNL     1       2.519   3.847  19.092  0.00  0.00    +0.000 A 
ATOM     10  C   UNL     1       1.816   4.073  20.269  0.00  0.00    +0.000 A 
ATOM     11  C   UNL     1       1.206   2.957  21.060  0.00  0.00    +0.000 C 
ATOM     12  C   UNL     1       1.626   5.392  20.693  0.00  0.00    +0.000 A 
ATOM     13  C   UNL     1       2.060   6.507  19.935  0.00  0.00    +0.000 A 
BRANCH   7  15
ATOM     14  C   UNL     1       4.356   7.132  17.190  0.00  0.00    +0.000 C 
ATOM     15  O   UNL     1       3.222   7.323  18.022  0.00  0.00    +0.000 OA
ENDBRANCH   7  15
ENDBRANCH   1  13
BRANCH   4  16
ATOM     16  O   UNL     1       0.104  11.503  21.841  0.00  0.00    +0.000 OA
ATOM     17  C   UNL     1      -0.954  11.221  22.775  0.00  0.00    +0.000 C 
ENDBRANCH   4  16
BRANCH   5  18
ATOM     18  C   UNL     1       0.208  11.077  18.811  0.00  0.00    +0.000 C 
BRANCH  18  19
ATOM     19  C   UNL     1       0.969  12.417  18.698  0.00  0.00    +0.000 A 
ATOM     20  N   UNL     1       2.281  12.484  18.543  0.00  0.00    +0.000 NA
ATOM     21  C   UNL     1       2.721  13.771  18.794  0.00  0.00    +0.000 A 
ATOM     22  C   UNL     1       1.737  14.680  19.118  0.00  0.00    +0.000 A 
ATOM     23  C   UNL     1       1.859  16.059  19.657  0.00  0.00    +0.000 C 
ATOM     24  S   UNL     1       0.203  13.963  18.827  0.00  0.00    +0.000 S 
ENDBRANCH  18  19
BRANCH  18  25
ATOM     25  C   UNL     1      -1.295  11.363  18.691  0.00  0.00    +0.000 C 
BRANCH  25  26
ATOM     26  C   UNL     1      -1.881  10.843  17.400  0.00  0.00    +0.000 C 
ATOM     27  O   UNL     1      -2.127   9.663  17.157  0.00  0.00    +0.000 OA
BRANCH  26  28
ATOM     28  O   UNL     1      -2.050  11.811  16.471  0.00  0.00    +0.000 OA
ATOM     29  H   UNL     1      -2.389  12.648  16.839  0.00  0.00    +0.000 HD
ENDBRANCH  26  28
ENDBRANCH  25  26
ENDBRANCH  18  25
ENDBRANCH   5  18
TORSDOF 8
ENDMDL
MODEL 4
REMARK VINA RESULT:      -7.0      2.783      7.233
REMARK  Name = 
REMARK  12 active torsions:
REMARK  status: ('A' for Active; 'I' for Inactive)
REMARK    1  A    between atoms: C_1  and  O_2
REMARK    2  A    between atoms: O_2  and  C_3
REMARK    3  A    between atoms: C_6  and  C_7
REMARK    4  A    between atoms: C_9  and  C_10
REMARK    5  A    between atoms: C_13  and  O_14
REMARK    6  A    between atoms: O_14  and  C_15
REMARK    7  A    between atoms: C_16  and  C_17
REMARK    8  A    between atoms: C_17  and  C_18
REMARK    9  A    between atoms: C_17  and  C_22
REMARK   10  A    between atoms: C_18  and  C_19
REMARK   11  A    between atoms: C_19  and  O_21
REMARK   12  A    between atoms: C_25  and  C_26
REMARK                            x       y       z     vdW  Elec       q    Type
REMARK                         _______ _______ _______ _____ _____    ______ ____
ROOT
ATOM      1  C   UNL     1      -1.368  11.746  18.666  0.00  0.00    +0.000 A 
ATOM      2  C   UNL     1      -0.744  12.994  18.753  0.00  0.00    +0.000 A 
ATOM      3  C   UNL     1       0.374  13.192  19.546  0.00  0.00    +0.000 A 
ATOM      4  C   UNL     1       0.976  12.133  20.240  0.00  0.00    +0.000 A 
ATOM      5  C   UNL     1       0.346  10.875  20.266  0.00  0.00    +0.000 A 
ATOM      6  C   UNL     1      -0.817  10.723  19.451  0.00  0.00    +0.000 A 
ENDROOT
BRANCH   1  13
ATOM      7  C   UNL     1      -3.872  11.751  18.140  0.00  0.00    +0.000 A 
ATOM      8  C   UNL     1      -4.908  11.434  17.247  0.00  0.00    +0.000 A 
ATOM      9  C   UNL     1      -4.631  10.894  15.989  0.00  0.00    +0.000 A 
ATOM     10  C   UNL     1      -3.317  10.701  15.581  0.00  0.00    +0.000 A 
ATOM     11  C   UNL     1      -2.975  10.057  14.272  0.00  0.00    +0.000 C 
ATOM     12  C   UNL     1      -2.285  11.069  16.450  0.00  0.00    +0.000 A 
ATOM     13  C   UNL     1      -2.526  11.564  17.754  0.00  0.00    +0.000 A 
BRANCH   7  15
ATOM     14  C   UNL     1      -5.446  12.237  19.871  0.00  0.00    +0.000 C 
ATOM     15  O   UNL     1      -4.110  12.261  19.393  0.00  0.00    +0.000 OA
ENDBRANCH   7  15
ENDBRANCH   1  13
BRANCH   4  16
ATOM     16  O   UNL     1       2.180  12.340  20.864  0.00  0.00    +0.000 OA
ATOM     17  C   UNL     1       2.662  13.690  20.735  0.00  0.00    +0.000 C 
ENDBRANCH   4  16
BRANCH   5  18
ATOM     18  C   UNL     1       0.824   9.598  20.993  0.00  0.00    +0.000 C 
BRANCH  18  19
ATOM     19  C   UNL     1       1.432   8.526  20.062  0.00  0.00    +0.000 A 
ATOM     20  N   UNL     1       1.688   7.291  20.464  0.00  0.00    +0.000 NA
ATOM     21  C   UNL     1       2.509   6.657  19.549  0.00  0.00    +0.000 A 
ATOM     22  C   UNL     1       2.855   7.408  18.446  0.00  0.00    +0.000 A 
ATOM     23  C   UNL     1       3.877   7.142  17.401  0.00  0.00    +0.000 C 
ATOM     24  S   UNL     1       1.903   8.837  18.426  0.00  0.00    +0.000 S 
ENDBRANCH  18  19
BRANCH  18  25
ATOM     25  C   UNL     1      -0.108   8.900  21.992  0.00  0.00    +0.000 C 
BRANCH  25  26
ATOM     26  C   UNL     1      -0.385   9.744  23.213  0.00  0.00    +0.000 C 
ATOM     27  O   UNL     1      -1.301  10.556  23.321  0.00  0.00    +0.000 OA
BRANCH  26  28
ATOM     28  O   UNL     1       0.540   9.581  24.186  0.00  0.00    +0.000 OA
ATOM     29  H   UNL     1       0.430  10.199  24.933  0.00  0.00    +0.000 HD
ENDBRANCH  26  28
ENDBRANCH  25  26
ENDBRANCH  18  25
ENDBRANCH   5  18
TORSDOF 8
ENDMDL
MODEL 5
REMARK VINA RESULT:      -6.9      3.699      8.257
REMARK  Name = 
REMARK  12 active torsions:
REMARK  status: ('A' for Active; 'I' for Inactive)
REMARK    1  A    between atoms: C_1  and  O_2
REMARK    2  A    between atoms: O_2  and  C_3
REMARK    3  A    between atoms: C_6  and  C_7
REMARK    4  A    between atoms: C_9  and  C_10
REMARK    5  A    between atoms: C_13  and  O_14
REMARK    6  A    between atoms: O_14  and  C_15
REMARK    7  A    between atoms: C_16  and  C_17
REMARK    8  A    between atoms: C_17  and  C_18
REMARK    9  A    between atoms: C_17  and  C_22
REMARK   10  A    between atoms: C_18  and  C_19
REMARK   11  A    between atoms: C_19  and  O_21
REMARK   12  A    between atoms: C_25  and  C_26
REMARK                            x       y       z     vdW  Elec       q    Type
REMARK                         _______ _______ _______ _____ _____    ______ ____
ROOT
ATOM      1  C   UNL     1       1.816   6.837  20.146  0.00  0.00    +0.000 A 
ATOM      2  C   UNL     1       1.242   5.632  20.562  0.00  0.00    +0.000 A 
ATOM      3  C   UNL     1       1.888   4.420  20.380  0.00  0.00    +0.000 A 
ATOM      4  C   UNL     1       3.179   4.354  19.837  0.00  0.00    +0.000 A 
ATOM      5  C   UNL     1       3.772   5.519  19.315  0.00  0.00    +0.000 A 
ATOM      6  C   UNL     1       3.060   6.741  19.506  0.00  0.00    +0.000 A 
ENDROOT
BRANCH   1  13
ATOM      7  C   UNL     1       1.021   9.179  19.491  0.00  0.00    +0.000 A 
ATOM      8  C   UNL     1       0.449  10.401  19.880  0.00  0.00    +0.000 A 
ATOM      9  C   UNL     1       0.007  10.603  21.190  0.00  0.00    +0.000 A 
ATOM     10  C   UNL     1       0.087   9.577  22.124  0.00  0.00    +0.000 A 
ATOM     11  C   UNL     1      -0.306   9.771  23.556  0.00  0.00    +0.000 C 
ATOM     12  C   UNL     1       0.605   8.343  21.720  0.00  0.00    +0.000 A 
ATOM     13  C   UNL     1       1.116   8.119  20.419  0.00  0.00    +0.000 A 
BRANCH   7  15
ATOM     14  C   UNL     1       2.381   9.910  17.668  0.00  0.00    +0.000 C 
ATOM     15  O   UNL     1       1.486   8.956  18.219  0.00  0.00    +0.000 OA
ENDBRANCH   7  15
ENDBRANCH   1  13
BRANCH   4  16
ATOM     16  O   UNL     1       3.846   3.155  19.842  0.00  0.00    +0.000 OA
ATOM     17  C   UNL     1       3.123   2.099  19.184  0.00  0.00    +0.000 C 
ENDBRANCH   4  16
BRANCH   5  18
ATOM     18  C   UNL     1       5.160   5.650  18.649  0.00  0.00    +0.000 C 
BRANCH  18  19
ATOM     19  C   UNL     1       5.243   5.053  17.226  0.00  0.00    +0.000 A 
ATOM     20  N   UNL     1       5.248   3.750  16.996  0.00  0.00    +0.000 NA
ATOM     21  C   UNL     1       5.650   3.502  15.697  0.00  0.00    +0.000 A 
ATOM     22  C   UNL     1       5.928   4.620  14.940  0.00  0.00    +0.000 A 
ATOM     23  C   UNL     1       6.586   4.726  13.612  0.00  0.00    +0.000 C 
ATOM     24  S   UNL     1       5.405   6.014  15.796  0.00  0.00    +0.000 S 
ENDBRANCH  18  19
BRANCH  18  25
ATOM     25  C   UNL     1       6.416   5.229  19.424  0.00  0.00    +0.000 C 
BRANCH  25  26
ATOM     26  C   UNL     1       7.690   5.573  18.691  0.00  0.00    +0.000 C 
ATOM     27  O   UNL     1       8.169   6.701  18.590  0.00  0.00    +0.000 OA
BRANCH  26  28
ATOM     28  O   UNL     1       8.242   4.508  18.067  0.00  0.00    +0.000 OA
ATOM     29  H   UNL     1       7.590   3.834  17.798  0.00  0.00    +0.000 HD
ENDBRANCH  26  28
ENDBRANCH  25  26
ENDBRANCH  18  25
ENDBRANCH   5  18
TORSDOF 8
ENDMDL
MODEL 6
REMARK VINA RESULT:      -6.9      3.182      7.593
REMARK  Name = 
REMARK  12 active torsions:
REMARK  status: ('A' for Active; 'I' for Inactive)
REMARK    1  A    between atoms: C_1  and  O_2
REMARK    2  A    between atoms: O_2  and  C_3
REMARK    3  A    between atoms: C_6  and  C_7
REMARK    4  A    between atoms: C_9  and  C_10
REMARK    5  A    between atoms: C_13  and  O_14
REMARK    6  A    between atoms: O_14  and  C_15
REMARK    7  A    between atoms: C_16  and  C_17
REMARK    8  A    between atoms: C_17  and  C_18
REMARK    9  A    between atoms: C_17  and  C_22
REMARK   10  A    between atoms: C_18  and  C_19
REMARK   11  A    between atoms: C_19  and  O_21
REMARK   12  A    between atoms: C_25  and  C_26
REMARK                            x       y       z     vdW  Elec       q    Type
REMARK                         _______ _______ _______ _____ _____    ______ ____
ROOT
ATOM      1  C   UNL     1       1.244   9.249  19.326  0.00  0.00    +0.000 A 
ATOM      2  C   UNL     1       0.946   8.686  20.570  0.00  0.00    +0.000 A 
ATOM      3  C   UNL     1       1.413   7.433  20.931  0.00  0.00    +0.000 A 
ATOM      4  C   UNL     1       2.268   6.703  20.093  0.00  0.00    +0.000 A 
ATOM      5  C   UNL     1       2.532   7.172  18.793  0.00  0.00    +0.000 A 
ATOM      6  C   UNL     1       2.012   8.458  18.457  0.00  0.00    +0.000 A 
ENDROOT
BRANCH   1  13
ATOM      7  C   UNL     1      -0.542  10.932  18.601  0.00  0.00    +0.000 A 
ATOM      8  C   UNL     1      -0.862  12.238  18.198  0.00  0.00    +0.000 A 
ATOM      9  C   UNL     1       0.115  13.235  18.151  0.00  0.00    +0.000 A 
ATOM     10  C   UNL     1       1.419  12.959  18.546  0.00  0.00    +0.000 A 
ATOM     11  C   UNL     1       2.514  13.976  18.441  0.00  0.00    +0.000 C 
ATOM     12  C   UNL     1       1.724  11.673  18.999  0.00  0.00    +0.000 A 
ATOM     13  C   UNL     1       0.775  10.621  19.006  0.00  0.00    +0.000 A 
BRANCH   7  15
ATOM     14  C   UNL     1      -2.660  10.095  17.878  0.00  0.00    +0.000 C 
ATOM     15  O   UNL     1      -1.473   9.923  18.635  0.00  0.00    +0.000 OA
ENDBRANCH   7  15
ENDBRANCH   1  13
BRANCH   4  16
ATOM     16  O   UNL     1       2.846   5.553  20.568  0.00  0.00    +0.000 OA
ATOM     17  C   UNL     1       1.889   4.582  21.027  0.00  0.00    +0.000 C 
ENDBRANCH   4  16
BRANCH   5  18
ATOM     18  C   UNL     1       3.413   6.504  17.713  0.00  0.00    +0.000 C 
BRANCH  18  19
ATOM     19  C   UNL     1       3.221   4.976  17.591  0.00  0.00    +0.000 A 
ATOM     20  N   UNL     1       2.041   4.417  17.378  0.00  0.00    +0.000 NA
ATOM     21  C   UNL     1       2.108   3.060  17.633  0.00  0.00    +0.000 A 
ATOM     22  C   UNL     1       3.346   2.591  18.018  0.00  0.00    +0.000 A 
ATOM     23  C   UNL     1       3.728   1.268  18.576  0.00  0.00    +0.000 C 
ATOM     24  S   UNL     1       4.508   3.835  17.783  0.00  0.00    +0.000 S 
ENDBRANCH  18  19
BRANCH  18  25
ATOM     25  C   UNL     1       4.916   6.809  17.665  0.00  0.00    +0.000 C 
BRANCH  25  26
ATOM     26  C   UNL     1       5.478   6.726  16.267  0.00  0.00    +0.000 C 
ATOM     27  O   UNL     1       4.865   7.001  15.238  0.00  0.00    +0.000 OA
BRANCH  26  28
ATOM     28  O   UNL     1       6.738   6.234  16.234  0.00  0.00    +0.000 OA
ATOM     29  H   UNL     1       6.829   5.373  16.683  0.00  0.00    +0.000 HD
ENDBRANCH  26  28
ENDBRANCH  25  26
ENDBRANCH  18  25
ENDBRANCH   5  18
TORSDOF 8
ENDMDL
MODEL 7
REMARK VINA RESULT:      -6.9      1.217      1.459
REMARK  Name = 
REMARK  12 active torsions:
REMARK  status: ('A' for Active; 'I' for Inactive)
REMARK    1  A    between atoms: C_1  and  O_2
REMARK    2  A    between atoms: O_2  and  C_3
REMARK    3  A    between atoms: C_6  and  C_7
REMARK    4  A    between atoms: C_9  and  C_10
REMARK    5  A    between atoms: C_13  and  O_14
REMARK    6  A    between atoms: O_14  and  C_15
REMARK    7  A    between atoms: C_16  and  C_17
REMARK    8  A    between atoms: C_17  and  C_18
REMARK    9  A    between atoms: C_17  and  C_22
REMARK   10  A    between atoms: C_18  and  C_19
REMARK   11  A    between atoms: C_19  and  O_21
REMARK   12  A    between atoms: C_25  and  C_26
REMARK                            x       y       z     vdW  Elec       q    Type
REMARK                         _______ _______ _______ _____ _____    ______ ____
ROOT
ATOM      1  C   UNL     1       2.357   7.190  19.036  0.00  0.00    +0.000 A 
ATOM      2  C   UNL     1       2.042   6.767  20.331  0.00  0.00    +0.000 A 
ATOM      3  C   UNL     1       1.289   7.552  21.188  0.00  0.00    +0.000 A 
ATOM      4  C   UNL     1       0.746   8.775  20.771  0.00  0.00    +0.000 A 
ATOM      5  C   UNL     1       1.100   9.299  19.514  0.00  0.00    +0.000 A 
ATOM      6  C   UNL     1       1.896   8.463  18.673  0.00  0.00    +0.000 A 
ENDROOT
BRANCH   1  13
ATOM      7  C   UNL     1       2.703   4.978  17.796  0.00  0.00    +0.000 A 
ATOM      8  C   UNL     1       3.544   4.153  17.033  0.00  0.00    +0.000 A 
ATOM      9  C   UNL     1       4.807   4.592  16.630  0.00  0.00    +0.000 A 
ATOM     10  C   UNL     1       5.237   5.876  16.942  0.00  0.00    +0.000 A 
ATOM     11  C   UNL     1       6.611   6.363  16.594  0.00  0.00    +0.000 C 
ATOM     12  C   UNL     1       4.376   6.716  17.654  0.00  0.00    +0.000 A 
ATOM     13  C   UNL     1       3.113   6.288  18.130  0.00  0.00    +0.000 A 
BRANCH   7  15
ATOM     14  C   UNL     1       1.286   3.187  18.500  0.00  0.00    +0.000 C 
ATOM     15  O   UNL     1       1.466   4.569  18.229  0.00  0.00    +0.000 OA
ENDBRANCH   7  15
ENDBRANCH   1  13
BRANCH   4  16
ATOM     16  O   UNL     1      -0.138   9.429  21.592  0.00  0.00    +0.000 OA
ATOM     17  C   UNL     1       0.265   9.434  22.973  0.00  0.00    +0.000 C 
ENDBRANCH   4  16
BRANCH   5  18
ATOM     18  C   UNL     1       0.641  10.634  18.887  0.00  0.00    +0.000 C 
BRANCH  18  19
ATOM     19  C   UNL     1       1.493  11.856  19.296  0.00  0.00    +0.000 A 
ATOM     20  N   UNL     1       1.525  12.325  20.534  0.00  0.00    +0.000 NA
ATOM     21  C   UNL     1       2.094  13.585  20.547  0.00  0.00    +0.000 A 
ATOM     22  C   UNL     1       2.511  14.059  19.321  0.00  0.00    +0.000 A 
ATOM     23  C   UNL     1       2.946  15.424  18.931  0.00  0.00    +0.000 C 
ATOM     24  S   UNL     1       2.438  12.779  18.178  0.00  0.00    +0.000 S 
ENDBRANCH  18  19
BRANCH  18  25
ATOM     25  C   UNL     1      -0.839  11.033  18.952  0.00  0.00    +0.000 C 
BRANCH  25  26
ATOM     26  C   UNL     1      -1.100  12.391  18.346  0.00  0.00    +0.000 C 
ATOM     27  O   UNL     1      -1.172  13.446  18.974  0.00  0.00    +0.000 OA
BRANCH  26  28
ATOM     28  O   UNL     1      -1.330  12.339  17.015  0.00  0.00    +0.000 OA
ATOM     29  H   UNL     1      -0.559  12.033  16.500  0.00  0.00    +0.000 HD
ENDBRANCH  26  28
ENDBRANCH  25  26
ENDBRANCH  18  25
ENDBRANCH   5  18
TORSDOF 8
ENDMDL
MODEL 8
REMARK VINA RESULT:      -6.8      3.765      8.219
REMARK  Name = 
REMARK  12 active torsions:
REMARK  status: ('A' for Active; 'I' for Inactive)
REMARK    1  A    between atoms: C_1  and  O_2
REMARK    2  A    between atoms: O_2  and  C_3
REMARK    3  A    between atoms: C_6  and  C_7
REMARK    4  A    between atoms: C_9  and  C_10
REMARK    5  A    between atoms: C_13  and  O_14
REMARK    6  A    between atoms: O_14  and  C_15
REMARK    7  A    between atoms: C_16  and  C_17
REMARK    8  A    between atoms: C_17  and  C_18
REMARK    9  A    between atoms: C_17  and  C_22
REMARK   10  A    between atoms: C_18  and  C_19
REMARK   11  A    between atoms: C_19  and  O_21
REMARK   12  A    between atoms: C_25  and  C_26
REMARK                            x       y       z     vdW  Elec       q    Type
REMARK                         _______ _______ _______ _____ _____    ______ ____
ROOT
ATOM      1  C   UNL     1       2.061   6.802  19.858  0.00  0.00    +0.000 A 
ATOM      2  C   UNL     1       1.400   5.574  19.959  0.00  0.00    +0.000 A 
ATOM      3  C   UNL     1       2.023   4.384  19.623  0.00  0.00    +0.000 A 
ATOM      4  C   UNL     1       3.370   4.348  19.236  0.00  0.00    +0.000 A 
ATOM      5  C   UNL     1       4.064   5.555  19.026  0.00  0.00    +0.000 A 
ATOM      6  C   UNL     1       3.374   6.758  19.365  0.00  0.00    +0.000 A 
ENDROOT
BRANCH   1  13
ATOM      7  C   UNL     1       1.236   9.194  19.478  0.00  0.00    +0.000 A 
ATOM      8  C   UNL     1       0.683  10.368  20.013  0.00  0.00    +0.000 A 
ATOM      9  C   UNL     1       0.301  10.435  21.355  0.00  0.00    +0.000 A 
ATOM     10  C   UNL     1       0.424   9.321  22.177  0.00  0.00    +0.000 A 
ATOM     11  C   UNL     1       0.098   9.369  23.638  0.00  0.00    +0.000 C 
ATOM     12  C   UNL     1       0.923   8.137  21.629  0.00  0.00    +0.000 A 
ATOM     13  C   UNL     1       1.374   8.046  20.289  0.00  0.00    +0.000 A 
BRANCH   7  15
ATOM     14  C   UNL     1       2.346  10.204  17.620  0.00  0.00    +0.000 C 
ATOM     15  O   UNL     1       1.643   9.102  18.170  0.00  0.00    +0.000 OA
ENDBRANCH   7  15
ENDBRANCH   1  13
BRANCH   4  16
ATOM     16  O   UNL     1       3.992   3.134  19.087  0.00  0.00    +0.000 OA
ATOM     17  C   UNL     1       4.096   2.395  20.318  0.00  0.00    +0.000 C 
ENDBRANCH   4  16
BRANCH   5  18
ATOM     18  C   UNL     1       5.529   5.731  18.570  0.00  0.00    +0.000 C 
BRANCH  18  19
ATOM     19  C   UNL     1       5.740   5.617  17.044  0.00  0.00    +0.000 A 
ATOM     20  N   UNL     1       5.200   6.463  16.181  0.00  0.00    +0.000 NA
ATOM     21  C   UNL     1       5.280   5.948  14.901  0.00  0.00    +0.000 A 
ATOM     22  C   UNL     1       5.899   4.720  14.795  0.00  0.00    +0.000 A 
ATOM     23  C   UNL     1       5.961   3.786  13.642  0.00  0.00    +0.000 C 
ATOM     24  S   UNL     1       6.641   4.341  16.297  0.00  0.00    +0.000 S 
ENDBRANCH  18  19
BRANCH  18  25
ATOM     25  C   UNL     1       6.642   4.941  19.272  0.00  0.00    +0.000 C 
BRANCH  25  26
ATOM     26  C   UNL     1       7.884   5.769  19.500  0.00  0.00    +0.000 C 
ATOM     27  O   UNL     1       8.176   6.793  18.886  0.00  0.00    +0.000 OA
BRANCH  26  28
ATOM     28  O   UNL     1       8.715   5.230  20.420  0.00  0.00    +0.000 OA
ATOM     29  H   UNL     1       8.538   4.287  20.597  0.00  0.00    +0.000 HD
ENDBRANCH  26  28
ENDBRANCH  25  26
ENDBRANCH  18  25
ENDBRANCH   5  18
TORSDOF 8
ENDMDL
MODEL 9
REMARK VINA RESULT:      -6.8      1.190      1.268
REMARK  Name = 
REMARK  12 active torsions:
REMARK  status: ('A' for Active; 'I' for Inactive)
REMARK    1  A    between atoms: C_1  and  O_2
REMARK    2  A    between atoms: O_2  and  C_3
REMARK    3  A    between atoms: C_6  and  C_7
REMARK    4  A    between atoms: C_9  and  C_10
REMARK    5  A    between atoms: C_13  and  O_14
REMARK    6  A    between atoms: O_14  and  C_15
REMARK    7  A    between atoms: C_16  and  C_17
REMARK    8  A    between atoms: C_17  and  C_18
REMARK    9  A    between atoms: C_17  and  C_22
REMARK   10  A    between atoms: C_18  and  C_19
REMARK   11  A    between atoms: C_19  and  O_21
REMARK   12  A    between atoms: C_25  and  C_26
REMARK                            x       y       z     vdW  Elec       q    Type
REMARK                         _______ _______ _______ _____ _____    ______ ____
ROOT
ATOM      1  C   UNL     1       1.896   7.845  19.563  0.00  0.00    +0.000 A 
ATOM      2  C   UNL     1       1.818   7.793  20.958  0.00  0.00    +0.000 A 
ATOM      3  C   UNL     1       1.174   8.779  21.686  0.00  0.00    +0.000 A 
ATOM      4  C   UNL     1       0.506   9.837  21.053  0.00  0.00    +0.000 A 
ATOM      5  C   UNL     1       0.624   9.997  19.660  0.00  0.00    +0.000 A 
ATOM      6  C   UNL     1       1.316   8.967  18.953  0.00  0.00    +0.000 A 
ENDROOT
BRANCH   1  13
ATOM      7  C   UNL     1       2.357   5.367  19.124  0.00  0.00    +0.000 A 
ATOM      8  C   UNL     1       3.106   4.390  18.449  0.00  0.00    +0.000 A 
ATOM      9  C   UNL     1       4.068   4.750  17.502  0.00  0.00    +0.000 A 
ATOM     10  C   UNL     1       4.271   6.087  17.181  0.00  0.00    +0.000 A 
ATOM     11  C   UNL     1       5.341   6.524  16.228  0.00  0.00    +0.000 C 
ATOM     12  C   UNL     1       3.485   7.055  17.814  0.00  0.00    +0.000 A 
ATOM     13  C   UNL     1       2.542   6.733  18.820  0.00  0.00    +0.000 A 
BRANCH   7  15
ATOM     14  C   UNL     1       1.419   3.722  20.582  0.00  0.00    +0.000 C 
ATOM     15  O   UNL     1       1.421   5.048  20.077  0.00  0.00    +0.000 OA
ENDBRANCH   7  15
ENDBRANCH   1  13
BRANCH   4  16
ATOM     16  O   UNL     1      -0.266  10.686  21.805  0.00  0.00    +0.000 OA
ATOM     17  C   UNL     1      -0.706  10.106  23.046  0.00  0.00    +0.000 C 
ENDBRANCH   4  16
BRANCH   5  18
ATOM     18  C   UNL     1      -0.000  11.105  18.783  0.00  0.00    +0.000 C 
BRANCH  18  19
ATOM     19  C   UNL     1       0.692  12.481  18.908  0.00  0.00    +0.000 A 
ATOM     20  N   UNL     1       1.974  12.665  18.637  0.00  0.00    +0.000 NA
ATOM     21  C   UNL     1       2.391  13.886  19.134  0.00  0.00    +0.000 A 
ATOM     22  C   UNL     1       1.418  14.632  19.764  0.00  0.00    +0.000 A 
ATOM     23  C   UNL     1       1.551  15.856  20.596  0.00  0.00    +0.000 C 
ATOM     24  S   UNL     1      -0.112  13.905  19.476  0.00  0.00    +0.000 S 
ENDBRANCH  18  19
BRANCH  18  25
ATOM     25  C   UNL     1      -1.519  11.324  18.805  0.00  0.00    +0.000 C 
BRANCH  25  26
ATOM     26  C   UNL     1      -2.181  10.914  17.511  0.00  0.00    +0.000 C 
ATOM     27  O   UNL     1      -2.041   9.825  16.957  0.00  0.00    +0.000 OA
BRANCH  26  28
ATOM     28  O   UNL     1      -2.908  11.908  16.953  0.00  0.00    +0.000 OA
ATOM     29  H   UNL     1      -3.722  11.595  16.516  0.00  0.00    +0.000 HD
ENDBRANCH  26  28
ENDBRANCH  25  26
ENDBRANCH  18  25
ENDBRANCH   5  18
TORSDOF 8
ENDMDL
