MODEL 1
REMARK VINA RESULT:      -6.0      0.000      0.000
REMARK  Name = 
REMARK  3 active torsions:
REMARK  status: ('A' for Active; 'I' for Inactive)
REMARK    1  A    between atoms: C_5  and  C_6
REMARK    2  A    between atoms: C_6  and  S_7
REMARK    3  A    between atoms: S_7  and  C_8
REMARK                            x       y       z     vdW  Elec       q    Type
REMARK                         _______ _______ _______ _____ _____    ______ ____
ROOT
ATOM      1 CL   UNL     1       1.879   4.216  20.565  0.00  0.00    +0.000 Cl
ATOM      2  C   UNL     1       2.813   4.425  19.126  0.00  0.00    +0.000 A 
ATOM      3  C   UNL     1       3.086   5.730  18.710  0.00  0.00    +0.000 A 
ATOM      4  C   UNL     1       3.829   5.961  17.548  0.00  0.00    +0.000 A 
ATOM      5  C   UNL     1       4.325   4.888  16.789  0.00  0.00    +0.000 A 
ATOM      6  C   UNL     1       4.044   3.580  17.216  0.00  0.00    +0.000 A 
ATOM      7  C   UNL     1       3.292   3.347  18.375  0.00  0.00    +0.000 A 
ATOM      8 CL   UNL     1       2.983   1.704  18.818  0.00  0.00    +0.000 Cl
ENDROOT
BRANCH   5   9
ATOM      9  C   UNL     1       5.124   5.129  15.521  0.00  0.00    +0.000 C 
BRANCH   9  10
ATOM     10  S   UNL     1       6.852   4.609  15.699  0.00  0.00    +0.000 S 
BRANCH  10  11
ATOM     11  C   UNL     1       7.284   5.381  17.182  0.00  0.00    +0.000 C 
ATOM     12  N   UNL     1       7.611   4.757  18.278  0.00  0.00    +0.000 NA
ATOM     13  C   UNL     1       7.903   5.878  19.229  0.00  0.00    +0.000 C 
ATOM     14  C   UNL     1       8.056   7.139  18.369  0.00  0.00    +0.000 C 
ATOM     15  N   UNL     1       7.328   6.744  17.191  0.00  0.00    +0.000 N 
ATOM     16  H   UNL     1       7.541   7.184  16.306  0.00  0.00    +0.000 HD
ENDBRANCH  10  11
ENDBRANCH   9  10
ENDBRANCH   5   9
TORSDOF 3
ENDMDL
MODEL 2
REMARK VINA RESULT:      -5.9      2.005      2.732
REMARK  Name = 
REMARK  3 active torsions:
REMARK  status: ('A' for Active; 'I' for Inactive)
REMARK    1  A    between atoms: C_5  and  C_6
REMARK    2  A    between atoms: C_6  and  S_7
REMARK    3  A    between atoms: S_7  and  C_8
REMARK                            x       y       z     vdW  Elec       q    Type
REMARK                         _______ _______ _______ _____ _____    ______ ____
ROOT
ATOM      1 CL   UNL     1       1.160   3.037  19.968  0.00  0.00    +0.000 Cl
ATOM      2  C   UNL     1       2.444   3.980  19.299  0.00  0.00    +0.000 A 
ATOM      3  C   UNL     1       2.107   5.163  18.638  0.00  0.00    +0.000 A 
ATOM      4  C   UNL     1       3.103   5.962  18.069  0.00  0.00    +0.000 A 
ATOM      5  C   UNL     1       4.456   5.599  18.165  0.00  0.00    +0.000 A 
ATOM      6  C   UNL     1       4.784   4.407  18.831  0.00  0.00    +0.000 A 
ATOM      7  C   UNL     1       3.786   3.601  19.395  0.00  0.00    +0.000 A 
ATOM      8 CL   UNL     1       4.279   2.144  20.185  0.00  0.00    +0.000 Cl
ENDROOT
BRANCH   5   9
ATOM      9  C   UNL     1       5.544   6.455  17.541  0.00  0.00    +0.000 C 
BRANCH   9  10
ATOM     10  S   UNL     1       7.095   5.537  17.334  0.00  0.00    +0.000 S 
BRANCH  10  11
ATOM     11  C   UNL     1       6.881   4.868  15.757  0.00  0.00    +0.000 C 
ATOM     12  N   UNL     1       5.937   4.033  15.426  0.00  0.00    +0.000 NA
ATOM     13  C   UNL     1       6.198   3.793  13.969  0.00  0.00    +0.000 C 
ATOM     14  C   UNL     1       7.152   4.906  13.516  0.00  0.00    +0.000 C 
ATOM     15  N   UNL     1       7.736   5.281  14.779  0.00  0.00    +0.000 N 
ATOM     16  H   UNL     1       8.120   6.210  14.891  0.00  0.00    +0.000 HD
ENDBRANCH  10  11
ENDBRANCH   9  10
ENDBRANCH   5   9
TORSDOF 3
ENDMDL
MODEL 3
REMARK VINA RESULT:      -5.9      3.837      5.362
REMARK  Name = 
REMARK  3 active torsions:
REMARK  status: ('A' for Active; 'I' for Inactive)
REMARK    1  A    between atoms: C_5  and  C_6
REMARK    2  A    between atoms: C_6  and  S_7
REMARK    3  A    between atoms: S_7  and  C_8
REMARK                            x       y       z     vdW  Elec       q    Type
REMARK                         _______ _______ _______ _____ _____    ______ ____
ROOT
ATOM      1 CL   UNL     1       7.823   8.019  17.599  0.00  0.00    +0.000 Cl
ATOM      2  C   UNL     1       6.693   6.715  17.512  0.00  0.00    +0.000 A 
ATOM      3  C   UNL     1       5.762   6.728  16.471  0.00  0.00    +0.000 A 
ATOM      4  C   UNL     1       4.817   5.704  16.355  0.00  0.00    +0.000 A 
ATOM      5  C   UNL     1       4.797   4.640  17.271  0.00  0.00    +0.000 A 
ATOM      6  C   UNL     1       5.737   4.637  18.314  0.00  0.00    +0.000 A 
ATOM      7  C   UNL     1       6.679   5.667  18.437  0.00  0.00    +0.000 A 
ATOM      8 CL   UNL     1       7.790   5.588  19.760  0.00  0.00    +0.000 Cl
ENDROOT
BRANCH   5   9
ATOM      9  C   UNL     1       3.768   3.529  17.159  0.00  0.00    +0.000 C 
BRANCH   9  10
ATOM     10  S   UNL     1       3.929   2.318  18.500  0.00  0.00    +0.000 S 
BRANCH  10  11
ATOM     11  C   UNL     1       2.748   2.897  19.619  0.00  0.00    +0.000 C 
ATOM     12  N   UNL     1       1.652   3.519  19.287  0.00  0.00    +0.000 NA
ATOM     13  C   UNL     1       0.998   3.775  20.611  0.00  0.00    +0.000 C 
ATOM     14  C   UNL     1       1.709   2.867  21.623  0.00  0.00    +0.000 C 
ATOM     15  N   UNL     1       2.959   2.644  20.941  0.00  0.00    +0.000 N 
ATOM     16  H   UNL     1       3.496   1.813  21.152  0.00  0.00    +0.000 HD
ENDBRANCH  10  11
ENDBRANCH   9  10
ENDBRANCH   5   9
TORSDOF 3
ENDMDL
MODEL 4
REMARK VINA RESULT:      -5.9      3.828      5.290
REMARK  Name = 
REMARK  3 active torsions:
REMARK  status: ('A' for Active; 'I' for Inactive)
REMARK    1  A    between atoms: C_5  and  C_6
REMARK    2  A    between atoms: C_6  and  S_7
REMARK    3  A    between atoms: S_7  and  C_8
REMARK                            x       y       z     vdW  Elec       q    Type
REMARK                         _______ _______ _______ _____ _____    ______ ____
ROOT
ATOM      1 CL   UNL     1       7.770   7.916  17.618  0.00  0.00    +0.000 Cl
ATOM      2  C   UNL     1       6.598   6.649  17.543  0.00  0.00    +0.000 A 
ATOM      3  C   UNL     1       5.680   6.673  16.491  0.00  0.00    +0.000 A 
ATOM      4  C   UNL     1       4.703   5.678  16.383  0.00  0.00    +0.000 A 
ATOM      5  C   UNL     1       4.637   4.633  17.319  0.00  0.00    +0.000 A 
ATOM      6  C   UNL     1       5.564   4.619  18.373  0.00  0.00    +0.000 A 
ATOM      7  C   UNL     1       6.538   5.620  18.488  0.00  0.00    +0.000 A 
ATOM      8 CL   UNL     1       7.631   5.531  19.825  0.00  0.00    +0.000 Cl
ENDROOT
BRANCH   5   9
ATOM      9  C   UNL     1       3.573   3.555  17.216  0.00  0.00    +0.000 C 
BRANCH   9  10
ATOM     10  S   UNL     1       3.841   2.221  18.417  0.00  0.00    +0.000 S 
BRANCH  10  11
ATOM     11  C   UNL     1       2.721   2.657  19.657  0.00  0.00    +0.000 C 
ATOM     12  N   UNL     1       2.994   2.675  20.931  0.00  0.00    +0.000 NA
ATOM     13  C   UNL     1       1.703   3.132  21.543  0.00  0.00    +0.000 C 
ATOM     14  C   UNL     1       0.866   3.710  20.395  0.00  0.00    +0.000 C 
ATOM     15  N   UNL     1       1.476   3.052  19.268  0.00  0.00    +0.000 N 
ATOM     16  H   UNL     1       1.414   3.478  18.353  0.00  0.00    +0.000 HD
ENDBRANCH  10  11
ENDBRANCH   9  10
ENDBRANCH   5   9
TORSDOF 3
ENDMDL
MODEL 5
REMARK VINA RESULT:      -5.9      1.747      2.715
REMARK  Name = 
REMARK  3 active torsions:
REMARK  status: ('A' for Active; 'I' for Inactive)
REMARK    1  A    between atoms: C_5  and  C_6
REMARK    2  A    between atoms: C_6  and  S_7
REMARK    3  A    between atoms: S_7  and  C_8
REMARK                            x       y       z     vdW  Elec       q    Type
REMARK                         _______ _______ _______ _____ _____    ______ ____
ROOT
ATOM      1 CL   UNL     1       1.026   3.574  18.401  0.00  0.00    +0.000 Cl
ATOM      2  C   UNL     1       2.664   4.068  18.642  0.00  0.00    +0.000 A 
ATOM      3  C   UNL     1       2.910   5.425  18.858  0.00  0.00    +0.000 A 
ATOM      4  C   UNL     1       4.217   5.884  19.050  0.00  0.00    +0.000 A 
ATOM      5  C   UNL     1       5.300   4.990  19.044  0.00  0.00    +0.000 A 
ATOM      6  C   UNL     1       5.041   3.628  18.824  0.00  0.00    +0.000 A 
ATOM      7  C   UNL     1       3.733   3.167  18.623  0.00  0.00    +0.000 A 
ATOM      8 CL   UNL     1       3.509   1.474  18.347  0.00  0.00    +0.000 Cl
ENDROOT
BRANCH   5   9
ATOM      9  C   UNL     1       6.722   5.481  19.241  0.00  0.00    +0.000 C 
BRANCH   9  10
ATOM     10  S   UNL     1       7.219   6.659  17.954  0.00  0.00    +0.000 S 
BRANCH  10  11
ATOM     11  C   UNL     1       6.682   5.845  16.529  0.00  0.00    +0.000 C 
ATOM     12  N   UNL     1       5.677   6.223  15.791  0.00  0.00    +0.000 NA
ATOM     13  C   UNL     1       5.659   5.197  14.698  0.00  0.00    +0.000 C 
ATOM     14  C   UNL     1       7.014   4.481  14.761  0.00  0.00    +0.000 C 
ATOM     15  N   UNL     1       7.392   4.753  16.125  0.00  0.00    +0.000 N 
ATOM     16  H   UNL     1       8.370   4.744  16.379  0.00  0.00    +0.000 HD
ENDBRANCH  10  11
ENDBRANCH   9  10
ENDBRANCH   5   9
TORSDOF 3
ENDMDL
MODEL 6
REMARK VINA RESULT:      -5.8      1.309      1.702
REMARK  Name = 
REMARK  3 active torsions:
REMARK  status: ('A' for Active; 'I' for Inactive)
REMARK    1  A    between atoms: C_5  and  C_6
REMARK    2  A    between atoms: C_6  and  S_7
REMARK    3  A    between atoms: S_7  and  C_8
REMARK                            x       y       z     vdW  Elec       q    Type
REMARK                         _______ _______ _______ _____ _____    ______ ____
ROOT
ATOM      1 CL   UNL     1       0.652   3.905  20.306  0.00  0.00    +0.000 Cl
ATOM      2  C   UNL     1       2.018   3.840  19.251  0.00  0.00    +0.000 A 
ATOM      3  C   UNL     1       1.906   4.452  18.001  0.00  0.00    +0.000 A 
ATOM      4  C   UNL     1       2.976   4.423  17.101  0.00  0.00    +0.000 A 
ATOM      5  C   UNL     1       4.183   3.793  17.442  0.00  0.00    +0.000 A 
ATOM      6  C   UNL     1       4.285   3.180  18.701  0.00  0.00    +0.000 A 
ATOM      7  C   UNL     1       3.210   3.200  19.601  0.00  0.00    +0.000 A 
ATOM      8 CL   UNL     1       3.420   2.407  21.124  0.00  0.00    +0.000 Cl
ENDROOT
BRANCH   5   9
ATOM      9  C   UNL     1       5.346   3.748  16.468  0.00  0.00    +0.000 C 
BRANCH   9  10
ATOM     10  S   UNL     1       5.654   5.364  15.703  0.00  0.00    +0.000 S 
BRANCH  10  11
ATOM     11  C   UNL     1       6.717   6.085  16.858  0.00  0.00    +0.000 C 
ATOM     12  N   UNL     1       6.976   7.360  16.934  0.00  0.00    +0.000 NA
ATOM     13  C   UNL     1       7.921   7.440  18.095  0.00  0.00    +0.000 C 
ATOM     14  C   UNL     1       7.806   6.101  18.835  0.00  0.00    +0.000 C 
ATOM     15  N   UNL     1       7.290   5.263  17.782  0.00  0.00    +0.000 N 
ATOM     16  H   UNL     1       6.763   4.434  18.023  0.00  0.00    +0.000 HD
ENDBRANCH  10  11
ENDBRANCH   9  10
ENDBRANCH   5   9
TORSDOF 3
ENDMDL
MODEL 7
REMARK VINA RESULT:      -5.8      2.158      2.989
REMARK  Name = 
REMARK  3 active torsions:
REMARK  status: ('A' for Active; 'I' for Inactive)
REMARK    1  A    between atoms: C_5  and  C_6
REMARK    2  A    between atoms: C_6  and  S_7
REMARK    3  A    between atoms: S_7  and  C_8
REMARK                            x       y       z     vdW  Elec       q    Type
REMARK                         _______ _______ _______ _____ _____    ______ ____
ROOT
ATOM      1 CL   UNL     1       0.493   2.462  19.538  0.00  0.00    +0.000 Cl
ATOM      2  C   UNL     1       1.863   3.414  19.088  0.00  0.00    +0.000 A 
ATOM      3  C   UNL     1       1.733   4.263  17.986  0.00  0.00    +0.000 A 
ATOM      4  C   UNL     1       2.810   5.051  17.570  0.00  0.00    +0.000 A 
ATOM      5  C   UNL     1       4.033   5.016  18.259  0.00  0.00    +0.000 A 
ATOM      6  C   UNL     1       4.153   4.158  19.365  0.00  0.00    +0.000 A 
ATOM      7  C   UNL     1       3.077   3.361  19.778  0.00  0.00    +0.000 A 
ATOM      8 CL   UNL     1       3.319   2.325  21.142  0.00  0.00    +0.000 Cl
ENDROOT
BRANCH   5   9
ATOM      9  C   UNL     1       5.211   5.860  17.809  0.00  0.00    +0.000 C 
BRANCH   9  10
ATOM     10  S   UNL     1       6.686   4.853  17.492  0.00  0.00    +0.000 S 
BRANCH  10  11
ATOM     11  C   UNL     1       6.691   4.798  15.766  0.00  0.00    +0.000 C 
ATOM     12  N   UNL     1       7.638   5.277  15.010  0.00  0.00    +0.000 NA
ATOM     13  C   UNL     1       7.157   4.955  13.627  0.00  0.00    +0.000 C 
ATOM     14  C   UNL     1       6.041   3.916  13.792  0.00  0.00    +0.000 C 
ATOM     15  N   UNL     1       5.647   4.169  15.155  0.00  0.00    +0.000 N 
ATOM     16  H   UNL     1       5.203   3.432  15.687  0.00  0.00    +0.000 HD
ENDBRANCH  10  11
ENDBRANCH   9  10
ENDBRANCH   5   9
TORSDOF 3
ENDMDL
MODEL 8
REMARK VINA RESULT:      -5.8      1.060      1.550
REMARK  Name = 
REMARK  3 active torsions:
REMARK  status: ('A' for Active; 'I' for Inactive)
REMARK    1  A    between atoms: C_5  and  C_6
REMARK    2  A    between atoms: C_6  and  S_7
REMARK    3  A    between atoms: S_7  and  C_8
REMARK                            x       y       z     vdW  Elec       q    Type
REMARK                         _______ _______ _______ _____ _____    ______ ____
ROOT
ATOM      1 CL   UNL     1       1.671   3.255  21.415  0.00  0.00    +0.000 Cl
ATOM      2  C   UNL     1       2.443   3.686  19.931  0.00  0.00    +0.000 A 
ATOM      3  C   UNL     1       3.512   4.582  19.989  0.00  0.00    +0.000 A 
ATOM      4  C   UNL     1       4.170   4.975  18.819  0.00  0.00    +0.000 A 
ATOM      5  C   UNL     1       3.778   4.466  17.571  0.00  0.00    +0.000 A 
ATOM      6  C   UNL     1       2.701   3.566  17.523  0.00  0.00    +0.000 A 
ATOM      7  C   UNL     1       2.035   3.178  18.694  0.00  0.00    +0.000 A 
ATOM      8 CL   UNL     1       0.711   2.076  18.540  0.00  0.00    +0.000 Cl
ENDROOT
BRANCH   5   9
ATOM      9  C   UNL     1       4.479   4.894  16.294  0.00  0.00    +0.000 C 
BRANCH   9  10
ATOM     10  S   UNL     1       6.160   4.221  16.185  0.00  0.00    +0.000 S 
BRANCH  10  11
ATOM     11  C   UNL     1       7.024   5.307  17.213  0.00  0.00    +0.000 C 
ATOM     12  N   UNL     1       7.121   6.592  17.022  0.00  0.00    +0.000 NA
ATOM     13  C   UNL     1       7.945   7.044  18.190  0.00  0.00    +0.000 C 
ATOM     14  C   UNL     1       7.927   5.888  19.199  0.00  0.00    +0.000 C 
ATOM     15  N   UNL     1       7.608   4.785  18.328  0.00  0.00    +0.000 N 
ATOM     16  H   UNL     1       7.166   3.961  18.714  0.00  0.00    +0.000 HD
ENDBRANCH  10  11
ENDBRANCH   9  10
ENDBRANCH   5   9
TORSDOF 3
ENDMDL
MODEL 9
REMARK VINA RESULT:      -5.8      0.795      1.800
REMARK  Name = 
REMARK  3 active torsions:
REMARK  status: ('A' for Active; 'I' for Inactive)
REMARK    1  A    between atoms: C_5  and  C_6
REMARK    2  A    between atoms: C_6  and  S_7
REMARK    3  A    between atoms: S_7  and  C_8
REMARK                            x       y       z     vdW  Elec       q    Type
REMARK                         _______ _______ _______ _____ _____    ______ ____
ROOT
ATOM      1 CL   UNL     1       1.998   2.517  20.125  0.00  0.00    +0.000 Cl
ATOM      2  C   UNL     1       2.867   3.288  18.846  0.00  0.00    +0.000 A 
ATOM      3  C   UNL     1       3.536   2.474  17.929  0.00  0.00    +0.000 A 
ATOM      4  C   UNL     1       4.262   3.042  16.879  0.00  0.00    +0.000 A 
ATOM      5  C   UNL     1       4.321   4.435  16.717  0.00  0.00    +0.000 A 
ATOM      6  C   UNL     1       3.645   5.245  17.645  0.00  0.00    +0.000 A 
ATOM      7  C   UNL     1       2.923   4.677  18.704  0.00  0.00    +0.000 A 
ATOM      8 CL   UNL     1       2.133   5.751  19.806  0.00  0.00    +0.000 Cl
ENDROOT
BRANCH   5   9
ATOM      9  C   UNL     1       5.115   5.061  15.586  0.00  0.00    +0.000 C 
BRANCH   9  10
ATOM     10  S   UNL     1       6.884   4.673  15.702  0.00  0.00    +0.000 S 
BRANCH  10  11
ATOM     11  C   UNL     1       7.276   5.351  17.241  0.00  0.00    +0.000 C 
ATOM     12  N   UNL     1       7.605   4.661  18.296  0.00  0.00    +0.000 NA
ATOM     13  C   UNL     1       7.855   5.721  19.326  0.00  0.00    +0.000 C 
ATOM     14  C   UNL     1       7.986   7.042  18.557  0.00  0.00    +0.000 C 
ATOM     15  N   UNL     1       7.283   6.710  17.343  0.00  0.00    +0.000 N 
ATOM     16  H   UNL     1       7.496   7.217  16.494  0.00  0.00    +0.000 HD
ENDBRANCH  10  11
ENDBRANCH   9  10
ENDBRANCH   5   9
TORSDOF 3
ENDMDL
