MODEL 1
REMARK VINA RESULT:      -7.4      0.000      0.000
REMARK  Name = 
REMARK  4 active torsions:
REMARK  status: ('A' for Active; 'I' for Inactive)
REMARK    1  A    between atoms: C_2  and  C_3
REMARK    2  A    between atoms: C_2  and  C_22
REMARK    3  A    between atoms: C_3  and  N_10
REMARK    4  A    between atoms: C_4  and  C_5
REMARK                            x       y       z     vdW  Elec       q    Type
REMARK                         _______ _______ _______ _____ _____    ______ ____
ROOT
ATOM      1  C   UNL     1       4.793   5.053  17.218  0.00  0.00    +0.000 C 
ATOM      2  C   UNL     1       6.131   5.111  17.048  0.00  0.00    +0.000 C 
ENDROOT
BRANCH   1   3
ATOM      3  N   UNL     1       4.051   6.140  17.663  0.00  0.00    +0.000 N 
ATOM      4  C   UNL     1       3.763   7.194  16.821  0.00  0.00    +0.000 A 
ATOM      5  N   UNL     1       3.024   8.210  17.127  0.00  0.00    +0.000 NA
ATOM      6  C   UNL     1       2.435   8.218  18.399  0.00  0.00    +0.000 A 
ATOM      7  C   UNL     1       1.532   9.234  18.717  0.00  0.00    +0.000 A 
ATOM      8  C   UNL     1       0.888   9.238  19.955  0.00  0.00    +0.000 A 
ATOM      9 CL   UNL     1      -0.229  10.492  20.329  0.00  0.00    +0.000 Cl
ATOM     10  C   UNL     1       1.135   8.233  20.890  0.00  0.00    +0.000 A 
ATOM     11  C   UNL     1       2.048   7.222  20.590  0.00  0.00    +0.000 A 
ATOM     12  C   UNL     1       2.693   7.226  19.349  0.00  0.00    +0.000 A 
ATOM     13  C   UNL     1       3.641   6.158  18.992  0.00  0.00    +0.000 A 
ATOM     14  O   UNL     1       4.005   5.349  19.844  0.00  0.00    +0.000 OA
ENDBRANCH   1   3
BRANCH   2  15
ATOM     15  C   UNL     1       6.924   6.200  17.511  0.00  0.00    +0.000 A 
ATOM     16  C   UNL     1       7.686   6.319  18.669  0.00  0.00    +0.000 A 
ATOM     17  C   UNL     1       8.215   7.633  18.710  0.00  0.00    +0.000 A 
ATOM     18  C   UNL     1       7.764   8.255  17.575  0.00  0.00    +0.000 A 
ATOM     19  O   UNL     1       6.997   7.407  16.854  0.00  0.00    +0.000 OA
ENDBRANCH   2  15
BRANCH   1  21
ATOM     20  O   UNL     1       4.437   3.313  15.642  0.00  0.00    +0.000 OA
ATOM     21  C   UNL     1       4.072   3.813  16.711  0.00  0.00    +0.000 C 
BRANCH  21  22
ATOM     22  C   UNL     1       3.055   3.209  17.576  0.00  0.00    +0.000 A 
ATOM     23  N   UNL     1       1.775   3.537  17.562  0.00  0.00    +0.000 NA
ATOM     24  C   UNL     1       1.087   2.814  18.515  0.00  0.00    +0.000 A 
ATOM     25  C   UNL     1       1.856   1.960  19.273  0.00  0.00    +0.000 A 
ATOM     26  S   UNL     1       3.491   2.049  18.767  0.00  0.00    +0.000 S 
ENDBRANCH  21  22
ENDBRANCH   1  21
TORSDOF 4
ENDMDL
MODEL 2
REMARK VINA RESULT:      -7.2      2.170      4.824
REMARK  Name = 
REMARK  4 active torsions:
REMARK  status: ('A' for Active; 'I' for Inactive)
REMARK    1  A    between atoms: C_2  and  C_3
REMARK    2  A    between atoms: C_2  and  C_22
REMARK    3  A    between atoms: C_3  and  N_10
REMARK    4  A    between atoms: C_4  and  C_5
REMARK                            x       y       z     vdW  Elec       q    Type
REMARK                         _______ _______ _______ _____ _____    ______ ____
ROOT
ATOM      1  C   UNL     1       4.444   4.628  18.747  0.00  0.00    +0.000 C 
ATOM      2  C   UNL     1       4.135   3.316  18.829  0.00  0.00    +0.000 C 
ENDROOT
BRANCH   1   3
ATOM      3  N   UNL     1       3.537   5.629  19.073  0.00  0.00    +0.000 N 
ATOM      4  C   UNL     1       2.904   5.641  20.299  0.00  0.00    +0.000 A 
ATOM      5  N   UNL     1       2.102   6.567  20.712  0.00  0.00    +0.000 NA
ATOM      6  C   UNL     1       1.895   7.665  19.866  0.00  0.00    +0.000 A 
ATOM      7  C   UNL     1       1.136   8.740  20.331  0.00  0.00    +0.000 A 
ATOM      8  C   UNL     1       0.958   9.871  19.532  0.00  0.00    +0.000 A 
ATOM      9 CL   UNL     1       0.028  11.192  20.123  0.00  0.00    +0.000 Cl
ATOM     10  C   UNL     1       1.531   9.944  18.263  0.00  0.00    +0.000 A 
ATOM     11  C   UNL     1       2.276   8.868  17.781  0.00  0.00    +0.000 A 
ATOM     12  C   UNL     1       2.448   7.736  18.584  0.00  0.00    +0.000 A 
ATOM     13  C   UNL     1       3.252   6.596  18.115  0.00  0.00    +0.000 A 
ATOM     14  O   UNL     1       3.637   6.555  16.947  0.00  0.00    +0.000 OA
ENDBRANCH   1   3
BRANCH   2  15
ATOM     15  C   UNL     1       2.807   2.845  19.039  0.00  0.00    +0.000 A 
ATOM     16  C   UNL     1       1.761   2.694  18.134  0.00  0.00    +0.000 A 
ATOM     17  C   UNL     1       0.617   2.273  18.856  0.00  0.00    +0.000 A 
ATOM     18  C   UNL     1       1.014   2.175  20.164  0.00  0.00    +0.000 A 
ATOM     19  O   UNL     1       2.317   2.512  20.282  0.00  0.00    +0.000 OA
ENDBRANCH   2  15
BRANCH   1  21
ATOM     20  O   UNL     1       6.620   5.279  19.440  0.00  0.00    +0.000 OA
ATOM     21  C   UNL     1       5.897   4.993  18.480  0.00  0.00    +0.000 C 
BRANCH  21  22
ATOM     22  C   UNL     1       6.392   4.875  17.105  0.00  0.00    +0.000 A 
ATOM     23  N   UNL     1       7.417   5.556  16.623  0.00  0.00    +0.000 NA
ATOM     24  C   UNL     1       7.610   5.246  15.291  0.00  0.00    +0.000 A 
ATOM     25  C   UNL     1       6.707   4.352  14.759  0.00  0.00    +0.000 A 
ATOM     26  S   UNL     1       5.590   3.869  15.966  0.00  0.00    +0.000 S 
ENDBRANCH  21  22
ENDBRANCH   1  21
TORSDOF 4
ENDMDL
MODEL 3
REMARK VINA RESULT:      -7.0      5.089      8.519
REMARK  Name = 
REMARK  4 active torsions:
REMARK  status: ('A' for Active; 'I' for Inactive)
REMARK    1  A    between atoms: C_2  and  C_3
REMARK    2  A    between atoms: C_2  and  C_22
REMARK    3  A    between atoms: C_3  and  N_10
REMARK    4  A    between atoms: C_4  and  C_5
REMARK                            x       y       z     vdW  Elec       q    Type
REMARK                         _______ _______ _______ _____ _____    ______ ____
ROOT
ATOM      1  C   UNL     1      -0.030  11.464  19.865  0.00  0.00    +0.000 C 
ATOM      2  C   UNL     1      -1.160  11.941  19.299  0.00  0.00    +0.000 C 
ENDROOT
BRANCH   1   3
ATOM      3  N   UNL     1       0.684  10.403  19.323  0.00  0.00    +0.000 N 
ATOM      4  C   UNL     1       1.317  10.523  18.104  0.00  0.00    +0.000 A 
ATOM      5  N   UNL     1       2.058   9.614  17.557  0.00  0.00    +0.000 NA
ATOM      6  C   UNL     1       2.268   8.434  18.282  0.00  0.00    +0.000 A 
ATOM      7  C   UNL     1       3.161   7.486  17.780  0.00  0.00    +0.000 A 
ATOM      8  C   UNL     1       3.434   6.325  18.506  0.00  0.00    +0.000 A 
ATOM      9 CL   UNL     1       4.544   5.170  17.880  0.00  0.00    +0.000 Cl
ATOM     10  C   UNL     1       2.819   6.094  19.737  0.00  0.00    +0.000 A 
ATOM     11  C   UNL     1       1.912   7.025  20.239  0.00  0.00    +0.000 A 
ATOM     12  C   UNL     1       1.640   8.185  19.505  0.00  0.00    +0.000 A 
ATOM     13  C   UNL     1       0.708   9.200  20.022  0.00  0.00    +0.000 A 
ATOM     14  O   UNL     1       0.029   8.960  21.019  0.00  0.00    +0.000 OA
ENDBRANCH   1   3
BRANCH   2  15
ATOM     15  C   UNL     1      -1.837  11.272  18.239  0.00  0.00    +0.000 A 
ATOM     16  C   UNL     1      -2.407  10.005  18.205  0.00  0.00    +0.000 A 
ATOM     17  C   UNL     1      -2.880   9.774  16.889  0.00  0.00    +0.000 A 
ATOM     18  C   UNL     1      -2.589  10.911  16.181  0.00  0.00    +0.000 A 
ATOM     19  O   UNL     1      -1.969  11.809  16.978  0.00  0.00    +0.000 OA
ENDBRANCH   2  15
BRANCH   1  21
ATOM     20  O   UNL     1       1.791  12.430  21.043  0.00  0.00    +0.000 OA
ATOM     21  C   UNL     1       0.569  12.257  21.017  0.00  0.00    +0.000 C 
BRANCH  21  22
ATOM     22  C   UNL     1      -0.352  12.872  21.978  0.00  0.00    +0.000 A 
ATOM     23  N   UNL     1      -0.379  14.163  22.261  0.00  0.00    +0.000 NA
ATOM     24  C   UNL     1      -1.333  14.419  23.226  0.00  0.00    +0.000 A 
ATOM     25  C   UNL     1      -2.005  13.313  23.695  0.00  0.00    +0.000 A 
ATOM     26  S   UNL     1      -1.441  11.907  22.892  0.00  0.00    +0.000 S 
ENDBRANCH  21  22
ENDBRANCH   1  21
TORSDOF 4
ENDMDL
MODEL 4
REMARK VINA RESULT:      -6.9      5.128      8.547
REMARK  Name = 
REMARK  4 active torsions:
REMARK  status: ('A' for Active; 'I' for Inactive)
REMARK    1  A    between atoms: C_2  and  C_3
REMARK    2  A    between atoms: C_2  and  C_22
REMARK    3  A    between atoms: C_3  and  N_10
REMARK    4  A    between atoms: C_4  and  C_5
REMARK                            x       y       z     vdW  Elec       q    Type
REMARK                         _______ _______ _______ _____ _____    ______ ____
ROOT
ATOM      1  C   UNL     1       0.356  11.750  19.298  0.00  0.00    +0.000 C 
ATOM      2  C   UNL     1      -0.799  12.177  18.743  0.00  0.00    +0.000 C 
ENDROOT
BRANCH   1   3
ATOM      3  N   UNL     1       0.904  10.506  19.013  0.00  0.00    +0.000 N 
ATOM      4  C   UNL     1       1.575  10.281  17.829  0.00  0.00    +0.000 A 
ATOM      5  N   UNL     1       2.174   9.180  17.511  0.00  0.00    +0.000 NA
ATOM      6  C   UNL     1       2.179   8.151  18.463  0.00  0.00    +0.000 A 
ATOM      7  C   UNL     1       2.922   6.998  18.204  0.00  0.00    +0.000 A 
ATOM      8  C   UNL     1       2.990   5.980  19.157  0.00  0.00    +0.000 A 
ATOM      9 CL   UNL     1       3.918   4.568  18.828  0.00  0.00    +0.000 Cl
ATOM     10  C   UNL     1       2.320   6.096  20.374  0.00  0.00    +0.000 A 
ATOM     11  C   UNL     1       1.561   7.236  20.636  0.00  0.00    +0.000 A 
ATOM     12  C   UNL     1       1.493   8.251  19.676  0.00  0.00    +0.000 A 
ATOM     13  C   UNL     1       0.723   9.479  19.934  0.00  0.00    +0.000 A 
ATOM     14  O   UNL     1      -0.008   9.550  20.921  0.00  0.00    +0.000 OA
ENDBRANCH   1   3
BRANCH   2  15
ATOM     15  C   UNL     1      -1.662  11.322  17.999  0.00  0.00    +0.000 A 
ATOM     16  C   UNL     1      -2.368  10.195  18.406  0.00  0.00    +0.000 A 
ATOM     17  C   UNL     1      -3.013   9.650  17.268  0.00  0.00    +0.000 A 
ATOM     18  C   UNL     1      -2.683  10.470  16.221  0.00  0.00    +0.000 A 
ATOM     19  O   UNL     1      -1.881  11.470  16.648  0.00  0.00    +0.000 OA
ENDBRANCH   2  15
BRANCH   1  21
ATOM     20  O   UNL     1       1.273  12.590  21.321  0.00  0.00    +0.000 OA
ATOM     21  C   UNL     1       1.165  12.757  20.102  0.00  0.00    +0.000 C 
BRANCH  21  22
ATOM     22  C   UNL     1       1.870  13.812  19.368  0.00  0.00    +0.000 A 
ATOM     23  N   UNL     1       2.982  13.624  18.679  0.00  0.00    +0.000 NA
ATOM     24  C   UNL     1       3.412  14.818  18.134  0.00  0.00    +0.000 A 
ATOM     25  C   UNL     1       2.639  15.915  18.439  0.00  0.00    +0.000 A 
ATOM     26  S   UNL     1       1.320  15.440  19.426  0.00  0.00    +0.000 S 
ENDBRANCH  21  22
ENDBRANCH   1  21
TORSDOF 4
ENDMDL
MODEL 5
REMARK VINA RESULT:      -6.9      1.977      4.828
REMARK  Name = 
REMARK  4 active torsions:
REMARK  status: ('A' for Active; 'I' for Inactive)
REMARK    1  A    between atoms: C_2  and  C_3
REMARK    2  A    between atoms: C_2  and  C_22
REMARK    3  A    between atoms: C_3  and  N_10
REMARK    4  A    between atoms: C_4  and  C_5
REMARK                            x       y       z     vdW  Elec       q    Type
REMARK                         _______ _______ _______ _____ _____    ______ ____
ROOT
ATOM      1  C   UNL     1       4.050   5.696  17.378  0.00  0.00    +0.000 C 
ATOM      2  C   UNL     1       3.997   4.360  17.196  0.00  0.00    +0.000 C 
ENDROOT
BRANCH   1   3
ATOM      3  N   UNL     1       3.257   6.353  18.311  0.00  0.00    +0.000 N 
ATOM      4  C   UNL     1       3.093   5.849  19.583  0.00  0.00    +0.000 A 
ATOM      5  N   UNL     1       2.432   6.427  20.533  0.00  0.00    +0.000 NA
ATOM      6  C   UNL     1       1.878   7.684  20.259  0.00  0.00    +0.000 A 
ATOM      7  C   UNL     1       1.267   8.391  21.296  0.00  0.00    +0.000 A 
ATOM      8  C   UNL     1       0.755   9.669  21.067  0.00  0.00    +0.000 A 
ATOM      9 CL   UNL     1       0.013  10.533  22.357  0.00  0.00    +0.000 Cl
ATOM     10  C   UNL     1       0.842  10.257  19.805  0.00  0.00    +0.000 A 
ATOM     11  C   UNL     1       1.434   9.552  18.757  0.00  0.00    +0.000 A 
ATOM     12  C   UNL     1       1.942   8.270  18.992  0.00  0.00    +0.000 A 
ATOM     13  C   UNL     1       2.598   7.513  17.914  0.00  0.00    +0.000 A 
ATOM     14  O   UNL     1       2.552   7.926  16.756  0.00  0.00    +0.000 OA
ENDBRANCH   1   3
BRANCH   2  15
ATOM     15  C   UNL     1       2.985   3.539  17.773  0.00  0.00    +0.000 A 
ATOM     16  C   UNL     1       1.603   3.599  17.634  0.00  0.00    +0.000 A 
ATOM     17  C   UNL     1       1.037   2.615  18.483  0.00  0.00    +0.000 A 
ATOM     18  C   UNL     1       2.093   1.992  19.093  0.00  0.00    +0.000 A 
ATOM     19  O   UNL     1       3.258   2.535  18.675  0.00  0.00    +0.000 OA
ENDBRANCH   2  15
BRANCH   1  21
ATOM     20  O   UNL     1       4.973   6.836  15.510  0.00  0.00    +0.000 OA
ATOM     21  C   UNL     1       5.161   6.459  16.672  0.00  0.00    +0.000 C 
BRANCH  21  22
ATOM     22  C   UNL     1       6.356   6.806  17.447  0.00  0.00    +0.000 A 
ATOM     23  N   UNL     1       7.085   7.889  17.246  0.00  0.00    +0.000 NA
ATOM     24  C   UNL     1       8.158   7.910  18.115  0.00  0.00    +0.000 A 
ATOM     25  C   UNL     1       8.255   6.822  18.954  0.00  0.00    +0.000 A 
ATOM     26  S   UNL     1       6.954   5.744  18.660  0.00  0.00    +0.000 S 
ENDBRANCH  21  22
ENDBRANCH   1  21
TORSDOF 4
ENDMDL
MODEL 6
REMARK VINA RESULT:      -6.9      2.044      4.485
REMARK  Name = 
REMARK  4 active torsions:
REMARK  status: ('A' for Active; 'I' for Inactive)
REMARK    1  A    between atoms: C_2  and  C_3
REMARK    2  A    between atoms: C_2  and  C_22
REMARK    3  A    between atoms: C_3  and  N_10
REMARK    4  A    between atoms: C_4  and  C_5
REMARK                            x       y       z     vdW  Elec       q    Type
REMARK                         _______ _______ _______ _____ _____    ______ ____
ROOT
ATOM      1  C   UNL     1       4.741   4.475  17.967  0.00  0.00    +0.000 C 
ATOM      2  C   UNL     1       4.236   3.253  18.239  0.00  0.00    +0.000 C 
ENDROOT
BRANCH   1   3
ATOM      3  N   UNL     1       4.027   5.644  18.196  0.00  0.00    +0.000 N 
ATOM      4  C   UNL     1       3.840   6.570  17.191  0.00  0.00    +0.000 A 
ATOM      5  N   UNL     1       3.134   7.648  17.294  0.00  0.00    +0.000 NA
ATOM      6  C   UNL     1       2.471   7.869  18.508  0.00  0.00    +0.000 A 
ATOM      7  C   UNL     1       1.601   8.956  18.613  0.00  0.00    +0.000 A 
ATOM      8  C   UNL     1       0.885   9.171  19.791  0.00  0.00    +0.000 A 
ATOM      9 CL   UNL     1      -0.191  10.509  19.902  0.00  0.00    +0.000 Cl
ATOM     10  C   UNL     1       1.027   8.309  20.879  0.00  0.00    +0.000 A 
ATOM     11  C   UNL     1       1.907   7.231  20.793  0.00  0.00    +0.000 A 
ATOM     12  C   UNL     1       2.625   7.023  19.610  0.00  0.00    +0.000 A 
ATOM     13  C   UNL     1       3.540   5.878  19.478  0.00  0.00    +0.000 A 
ATOM     14  O   UNL     1       3.814   5.193  20.463  0.00  0.00    +0.000 OA
ENDBRANCH   1   3
BRANCH   2  15
ATOM     15  C   UNL     1       2.868   3.037  18.571  0.00  0.00    +0.000 A 
ATOM     16  C   UNL     1       1.717   3.348  17.854  0.00  0.00    +0.000 A 
ATOM     17  C   UNL     1       0.599   3.009  18.656  0.00  0.00    +0.000 A 
ATOM     18  C   UNL     1       1.112   2.497  19.819  0.00  0.00    +0.000 A 
ATOM     19  O   UNL     1       2.462   2.508  19.776  0.00  0.00    +0.000 OA
ENDBRANCH   2  15
BRANCH   1  21
ATOM     20  O   UNL     1       7.059   4.482  18.483  0.00  0.00    +0.000 OA
ATOM     21  C   UNL     1       6.212   4.559  17.588  0.00  0.00    +0.000 C 
BRANCH  21  22
ATOM     22  C   UNL     1       6.551   4.613  16.162  0.00  0.00    +0.000 A 
ATOM     23  N   UNL     1       7.430   5.449  15.637  0.00  0.00    +0.000 NA
ATOM     24  C   UNL     1       7.497   5.273  14.269  0.00  0.00    +0.000 A 
ATOM     25  C   UNL     1       6.642   4.323  13.757  0.00  0.00    +0.000 A 
ATOM     26  S   UNL     1       5.735   3.613  15.027  0.00  0.00    +0.000 S 
ENDBRANCH  21  22
ENDBRANCH   1  21
TORSDOF 4
ENDMDL
MODEL 7
REMARK VINA RESULT:      -6.9      1.469      1.650
REMARK  Name = 
REMARK  4 active torsions:
REMARK  status: ('A' for Active; 'I' for Inactive)
REMARK    1  A    between atoms: C_2  and  C_3
REMARK    2  A    between atoms: C_2  and  C_22
REMARK    3  A    between atoms: C_3  and  N_10
REMARK    4  A    between atoms: C_4  and  C_5
REMARK                            x       y       z     vdW  Elec       q    Type
REMARK                         _______ _______ _______ _____ _____    ______ ____
ROOT
ATOM      1  C   UNL     1       4.061   4.814  18.143  0.00  0.00    +0.000 C 
ATOM      2  C   UNL     1       5.367   4.574  17.898  0.00  0.00    +0.000 C 
ENDROOT
BRANCH   1   3
ATOM      3  N   UNL     1       3.532   6.098  18.169  0.00  0.00    +0.000 N 
ATOM      4  C   UNL     1       3.595   6.914  17.059  0.00  0.00    +0.000 A 
ATOM      5  N   UNL     1       3.071   8.093  16.972  0.00  0.00    +0.000 NA
ATOM      6  C   UNL     1       2.344   8.558  18.075  0.00  0.00    +0.000 A 
ATOM      7  C   UNL     1       1.660   9.770  17.970  0.00  0.00    +0.000 A 
ATOM      8  C   UNL     1       0.882  10.232  19.033  0.00  0.00    +0.000 A 
ATOM      9 CL   UNL     1       0.037  11.724  18.884  0.00  0.00    +0.000 Cl
ATOM     10  C   UNL     1       0.779   9.496  20.213  0.00  0.00    +0.000 A 
ATOM     11  C   UNL     1       1.472   8.292  20.337  0.00  0.00    +0.000 A 
ATOM     12  C   UNL     1       2.252   7.836  19.269  0.00  0.00    +0.000 A 
ATOM     13  C   UNL     1       2.974   6.556  19.358  0.00  0.00    +0.000 A 
ATOM     14  O   UNL     1       3.037   5.961  20.433  0.00  0.00    +0.000 OA
ENDBRANCH   1   3
BRANCH   2  15
ATOM     15  C   UNL     1       6.351   5.604  17.864  0.00  0.00    +0.000 A 
ATOM     16  C   UNL     1       7.217   6.042  18.860  0.00  0.00    +0.000 A 
ATOM     17  C   UNL     1       7.938   7.151  18.353  0.00  0.00    +0.000 A 
ATOM     18  C   UNL     1       7.491   7.337  17.072  0.00  0.00    +0.000 A 
ATOM     19  O   UNL     1       6.547   6.418  16.771  0.00  0.00    +0.000 OA
ENDBRANCH   2  15
BRANCH   1  21
ATOM     20  O   UNL     1       2.873   3.020  17.139  0.00  0.00    +0.000 OA
ATOM     21  C   UNL     1       3.123   3.618  18.191  0.00  0.00    +0.000 C 
BRANCH  21  22
ATOM     22  C   UNL     1       2.653   3.166  19.504  0.00  0.00    +0.000 A 
ATOM     23  N   UNL     1       3.433   2.647  20.436  0.00  0.00    +0.000 NA
ATOM     24  C   UNL     1       2.685   2.293  21.541  0.00  0.00    +0.000 A 
ATOM     25  C   UNL     1       1.332   2.517  21.430  0.00  0.00    +0.000 A 
ATOM     26  S   UNL     1       0.981   3.210  19.902  0.00  0.00    +0.000 S 
ENDBRANCH  21  22
ENDBRANCH   1  21
TORSDOF 4
ENDMDL
MODEL 8
REMARK VINA RESULT:      -6.9      4.898      8.425
REMARK  Name = 
REMARK  4 active torsions:
REMARK  status: ('A' for Active; 'I' for Inactive)
REMARK    1  A    between atoms: C_2  and  C_3
REMARK    2  A    between atoms: C_2  and  C_22
REMARK    3  A    between atoms: C_3  and  N_10
REMARK    4  A    between atoms: C_4  and  C_5
REMARK                            x       y       z     vdW  Elec       q    Type
REMARK                         _______ _______ _______ _____ _____    ______ ____
ROOT
ATOM      1  C   UNL     1       0.317  11.603  19.499  0.00  0.00    +0.000 C 
ATOM      2  C   UNL     1      -0.847  12.032  18.966  0.00  0.00    +0.000 C 
ENDROOT
BRANCH   1   3
ATOM      3  N   UNL     1       0.910  10.404  19.125  0.00  0.00    +0.000 N 
ATOM      4  C   UNL     1       1.570  10.284  17.920  0.00  0.00    +0.000 A 
ATOM      5  N   UNL     1       2.208   9.232  17.523  0.00  0.00    +0.000 NA
ATOM      6  C   UNL     1       2.271   8.145  18.405  0.00  0.00    +0.000 A 
ATOM      7  C   UNL     1       3.055   7.043  18.062  0.00  0.00    +0.000 A 
ATOM      8  C   UNL     1       3.181   5.969  18.945  0.00  0.00    +0.000 A 
ATOM      9 CL   UNL     1       4.159   4.622  18.512  0.00  0.00    +0.000 Cl
ATOM     10  C   UNL     1       2.528   5.979  20.177  0.00  0.00    +0.000 A 
ATOM     11  C   UNL     1       1.727   7.067  20.523  0.00  0.00    +0.000 A 
ATOM     12  C   UNL     1       1.601   8.138  19.632  0.00  0.00    +0.000 A 
ATOM     13  C   UNL     1       0.786   9.313  19.980  0.00  0.00    +0.000 A 
ATOM     14  O   UNL     1       0.070   9.290  20.980  0.00  0.00    +0.000 OA
ENDBRANCH   1   3
BRANCH   2  15
ATOM     15  C   UNL     1      -1.674  11.209  18.149  0.00  0.00    +0.000 A 
ATOM     16  C   UNL     1      -2.023  11.346  16.809  0.00  0.00    +0.000 A 
ATOM     17  C   UNL     1      -2.939  10.313  16.490  0.00  0.00    +0.000 A 
ATOM     18  C   UNL     1      -3.103   9.587  17.640  0.00  0.00    +0.000 A 
ATOM     19  O   UNL     1      -2.351  10.112  18.632  0.00  0.00    +0.000 OA
ENDBRANCH   2  15
BRANCH   1  21
ATOM     20  O   UNL     1       0.911  12.518  21.608  0.00  0.00    +0.000 OA
ATOM     21  C   UNL     1       1.083  12.573  20.386  0.00  0.00    +0.000 C 
BRANCH  21  22
ATOM     22  C   UNL     1       2.074  13.446  19.751  0.00  0.00    +0.000 A 
ATOM     23  N   UNL     1       2.131  13.687  18.453  0.00  0.00    +0.000 NA
ATOM     24  C   UNL     1       3.194  14.521  18.169  0.00  0.00    +0.000 A 
ATOM     25  C   UNL     1       3.962  14.884  19.253  0.00  0.00    +0.000 A 
ATOM     26  S   UNL     1       3.324  14.176  20.678  0.00  0.00    +0.000 S 
ENDBRANCH  21  22
ENDBRANCH   1  21
TORSDOF 4
ENDMDL
MODEL 9
REMARK VINA RESULT:      -6.9      1.573      4.547
REMARK  Name = 
REMARK  4 active torsions:
REMARK  status: ('A' for Active; 'I' for Inactive)
REMARK    1  A    between atoms: C_2  and  C_3
REMARK    2  A    between atoms: C_2  and  C_22
REMARK    3  A    between atoms: C_3  and  N_10
REMARK    4  A    between atoms: C_4  and  C_5
REMARK                            x       y       z     vdW  Elec       q    Type
REMARK                         _______ _______ _______ _____ _____    ______ ____
ROOT
ATOM      1  C   UNL     1       4.649   4.744  17.456  0.00  0.00    +0.000 C 
ATOM      2  C   UNL     1       4.205   3.490  17.688  0.00  0.00    +0.000 C 
ENDROOT
BRANCH   1   3
ATOM      3  N   UNL     1       3.928   5.870  17.833  0.00  0.00    +0.000 N 
ATOM      4  C   UNL     1       3.624   6.857  16.919  0.00  0.00    +0.000 A 
ATOM      5  N   UNL     1       2.903   7.902  17.165  0.00  0.00    +0.000 NA
ATOM      6  C   UNL     1       2.351   8.016  18.447  0.00  0.00    +0.000 A 
ATOM      7  C   UNL     1       1.467   9.064  18.709  0.00  0.00    +0.000 A 
ATOM      8  C   UNL     1       0.859   9.173  19.961  0.00  0.00    +0.000 A 
ATOM      9 CL   UNL     1      -0.237  10.464  20.266  0.00  0.00    +0.000 Cl
ATOM     10  C   UNL     1       1.125   8.243  20.966  0.00  0.00    +0.000 A 
ATOM     11  C   UNL     1       2.020   7.202  20.722  0.00  0.00    +0.000 A 
ATOM     12  C   UNL     1       2.629   7.101  19.466  0.00  0.00    +0.000 A 
ATOM     13  C   UNL     1       3.558   5.998  19.168  0.00  0.00    +0.000 A 
ATOM     14  O   UNL     1       3.940   5.256  20.072  0.00  0.00    +0.000 OA
ENDBRANCH   1   3
BRANCH   2  15
ATOM     15  C   UNL     1       2.881   3.206  18.132  0.00  0.00    +0.000 A 
ATOM     16  C   UNL     1       1.661   3.651  17.635  0.00  0.00    +0.000 A 
ATOM     17  C   UNL     1       0.638   3.153  18.480  0.00  0.00    +0.000 A 
ATOM     18  C   UNL     1       1.275   2.420  19.447  0.00  0.00    +0.000 A 
ATOM     19  O   UNL     1       2.610   2.444  19.246  0.00  0.00    +0.000 OA
ENDBRANCH   2  15
BRANCH   1  21
ATOM     20  O   UNL     1       6.470   4.147  16.054  0.00  0.00    +0.000 OA
ATOM     21  C   UNL     1       6.073   4.903  16.947  0.00  0.00    +0.000 C 
BRANCH  21  22
ATOM     22  C   UNL     1       6.865   6.023  17.464  0.00  0.00    +0.000 A 
ATOM     23  N   UNL     1       7.046   7.165  16.824  0.00  0.00    +0.000 NA
ATOM     24  C   UNL     1       7.865   7.999  17.559  0.00  0.00    +0.000 A 
ATOM     25  C   UNL     1       8.331   7.471  18.742  0.00  0.00    +0.000 A 
ATOM     26  S   UNL     1       7.710   5.887  18.954  0.00  0.00    +0.000 S 
ENDBRANCH  21  22
ENDBRANCH   1  21
TORSDOF 4
ENDMDL
