MODEL 1
REMARK VINA RESULT:      -8.0      0.000      0.000
REMARK  Name = 
REMARK  3 active torsions:
REMARK  status: ('A' for Active; 'I' for Inactive)
REMARK    1  A    between atoms: C_2  and  C_3
REMARK    2  A    between atoms: C_3  and  N_4
REMARK    3  A    between atoms: C_7  and  C_8
REMARK                            x       y       z     vdW  Elec       q    Type
REMARK                         _______ _______ _______ _____ _____    ______ ____
ROOT
ATOM      1  N   UNL     1       6.701   5.135  17.606  0.00  0.00    +0.000 N 
ATOM      2  N   UNL     1       7.382   6.234  17.230  0.00  0.00    +0.000 NA
ATOM      3  N   UNL     1       7.538   6.103  15.922  0.00  0.00    +0.000 NA
ATOM      4  C   UNL     1       6.888   4.951  15.549  0.00  0.00    +0.000 A 
ATOM      5  N   UNL     1       6.314   4.328  16.595  0.00  0.00    +0.000 NA
ENDROOT
BRANCH   4   6
ATOM      6  C   UNL     1       6.750   4.512  14.171  0.00  0.00    +0.000 A 
ATOM      7  C   UNL     1       5.694   3.662  13.795  0.00  0.00    +0.000 A 
ATOM      8  C   UNL     1       5.511   3.295  12.458  0.00  0.00    +0.000 A 
ATOM      9  C   UNL     1       6.383   3.766  11.480  0.00  0.00    +0.000 A 
ATOM     10  C   UNL     1       7.449   4.588  11.842  0.00  0.00    +0.000 A 
ATOM     11  C   UNL     1       7.629   4.952  13.177  0.00  0.00    +0.000 A 
ATOM     12  F   UNL     1       8.666   5.750  13.468  0.00  0.00    +0.000 F 
ENDBRANCH   4   6
BRANCH   1  13
ATOM     13  C   UNL     1       6.037   5.083  18.888  0.00  0.00    +0.000 C 
BRANCH  13  15
ATOM     14  O   UNL     1       4.130   6.479  18.450  0.00  0.00    +0.000 OA
ATOM     15  C   UNL     1       4.559   5.379  18.790  0.00  0.00    +0.000 C 
ATOM     16  N   UNL     1       3.702   4.326  19.123  0.00  0.00    +0.000 N 
ATOM     17  C   UNL     1       4.116   3.004  19.597  0.00  0.00    +0.000 C 
ATOM     18  C   UNL     1       3.471   1.901  18.763  0.00  0.00    +0.000 C 
ATOM     19  C   UNL     1       1.955   2.071  18.679  0.00  0.00    +0.000 C 
ATOM     20  C   UNL     1       1.569   3.485  18.244  0.00  0.00    +0.000 C 
ATOM     21  C   UNL     1       2.257   4.543  19.103  0.00  0.00    +0.000 C 
ENDBRANCH  13  15
ENDBRANCH   1  13
TORSDOF 3
ENDMDL
MODEL 2
REMARK VINA RESULT:      -8.0      4.013      6.302
REMARK  Name = 
REMARK  3 active torsions:
REMARK  status: ('A' for Active; 'I' for Inactive)
REMARK    1  A    between atoms: C_2  and  C_3
REMARK    2  A    between atoms: C_3  and  N_4
REMARK    3  A    between atoms: C_7  and  C_8
REMARK                            x       y       z     vdW  Elec       q    Type
REMARK                         _______ _______ _______ _____ _____    ______ ____
ROOT
ATOM      1  N   UNL     1       3.803   5.404  17.300  0.00  0.00    +0.000 N 
ATOM      2  N   UNL     1       4.762   6.306  17.021  0.00  0.00    +0.000 NA
ATOM      3  N   UNL     1       4.258   7.466  17.409  0.00  0.00    +0.000 NA
ATOM      4  C   UNL     1       3.028   7.208  17.967  0.00  0.00    +0.000 A 
ATOM      5  N   UNL     1       2.724   5.896  17.944  0.00  0.00    +0.000 NA
ENDROOT
BRANCH   4   6
ATOM      6  C   UNL     1       2.200   8.220  18.601  0.00  0.00    +0.000 A 
ATOM      7  C   UNL     1       1.827   9.379  17.897  0.00  0.00    +0.000 A 
ATOM      8  C   UNL     1       0.969  10.322  18.474  0.00  0.00    +0.000 A 
ATOM      9  C   UNL     1       0.479  10.122  19.762  0.00  0.00    +0.000 A 
ATOM     10  C   UNL     1       0.862   8.991  20.480  0.00  0.00    +0.000 A 
ATOM     11  C   UNL     1       1.718   8.053  19.902  0.00  0.00    +0.000 A 
ATOM     12  F   UNL     1       2.048   6.980  20.635  0.00  0.00    +0.000 F 
ENDBRANCH   4   6
BRANCH   1  13
ATOM     13  C   UNL     1       4.110   3.992  17.347  0.00  0.00    +0.000 C 
BRANCH  13  15
ATOM     14  O   UNL     1       5.506   3.619  19.268  0.00  0.00    +0.000 OA
ATOM     15  C   UNL     1       4.398   3.506  18.748  0.00  0.00    +0.000 C 
ATOM     16  N   UNL     1       3.329   2.905  19.417  0.00  0.00    +0.000 N 
ATOM     17  C   UNL     1       1.995   2.669  18.861  0.00  0.00    +0.000 C 
ATOM     18  C   UNL     1       0.915   3.229  19.782  0.00  0.00    +0.000 C 
ATOM     19  C   UNL     1       1.076   2.719  21.214  0.00  0.00    +0.000 C 
ATOM     20  C   UNL     1       2.501   2.925  21.729  0.00  0.00    +0.000 C 
ATOM     21  C   UNL     1       3.535   2.362  20.758  0.00  0.00    +0.000 C 
ENDBRANCH  13  15
ENDBRANCH   1  13
TORSDOF 3
ENDMDL
MODEL 3
REMARK VINA RESULT:      -7.9      1.130      1.541
REMARK  Name = 
REMARK  3 active torsions:
REMARK  status: ('A' for Active; 'I' for Inactive)
REMARK    1  A    between atoms: C_2  and  C_3
REMARK    2  A    between atoms: C_3  and  N_4
REMARK    3  A    between atoms: C_7  and  C_8
REMARK                            x       y       z     vdW  Elec       q    Type
REMARK                         _______ _______ _______ _____ _____    ______ ____
ROOT
ATOM      1  N   UNL     1       6.567   5.373  18.061  0.00  0.00    +0.000 N 
ATOM      2  N   UNL     1       7.185   6.524  17.740  0.00  0.00    +0.000 NA
ATOM      3  N   UNL     1       7.391   6.446  16.435  0.00  0.00    +0.000 NA
ATOM      4  C   UNL     1       6.830   5.267  16.006  0.00  0.00    +0.000 A 
ATOM      5  N   UNL     1       6.266   4.575  17.014  0.00  0.00    +0.000 NA
ENDROOT
BRANCH   4   6
ATOM      6  C   UNL     1       6.764   4.864  14.611  0.00  0.00    +0.000 A 
ATOM      7  C   UNL     1       7.765   5.261  13.706  0.00  0.00    +0.000 A 
ATOM      8  C   UNL     1       7.749   4.817  12.380  0.00  0.00    +0.000 A 
ATOM      9  C   UNL     1       6.731   3.975  11.940  0.00  0.00    +0.000 A 
ATOM     10  C   UNL     1       5.718   3.595  12.819  0.00  0.00    +0.000 A 
ATOM     11  C   UNL     1       5.738   4.040  14.141  0.00  0.00    +0.000 A 
ATOM     12  F   UNL     1       4.744   3.638  14.946  0.00  0.00    +0.000 F 
ENDBRANCH   4   6
BRANCH   1  13
ATOM     13  C   UNL     1       5.868   5.236  19.317  0.00  0.00    +0.000 C 
BRANCH  13  15
ATOM     14  O   UNL     1       3.874   6.541  19.001  0.00  0.00    +0.000 OA
ATOM     15  C   UNL     1       4.377   5.434  19.179  0.00  0.00    +0.000 C 
ATOM     16  N   UNL     1       3.596   4.279  19.278  0.00  0.00    +0.000 N 
ATOM     17  C   UNL     1       4.095   2.930  19.549  0.00  0.00    +0.000 C 
ATOM     18  C   UNL     1       3.587   1.941  18.504  0.00  0.00    +0.000 C 
ATOM     19  C   UNL     1       2.067   2.009  18.355  0.00  0.00    +0.000 C 
ATOM     20  C   UNL     1       1.586   3.445  18.140  0.00  0.00    +0.000 C 
ATOM     21  C   UNL     1       2.141   4.388  19.204  0.00  0.00    +0.000 C 
ENDBRANCH  13  15
ENDBRANCH   1  13
TORSDOF 3
ENDMDL
MODEL 4
REMARK VINA RESULT:      -7.9      1.517      1.955
REMARK  Name = 
REMARK  3 active torsions:
REMARK  status: ('A' for Active; 'I' for Inactive)
REMARK    1  A    between atoms: C_2  and  C_3
REMARK    2  A    between atoms: C_3  and  N_4
REMARK    3  A    between atoms: C_7  and  C_8
REMARK                            x       y       z     vdW  Elec       q    Type
REMARK                         _______ _______ _______ _____ _____    ______ ____
ROOT
ATOM      1  N   UNL     1       5.003   5.745  17.049  0.00  0.00    +0.000 N 
ATOM      2  N   UNL     1       5.294   6.916  16.453  0.00  0.00    +0.000 NA
ATOM      3  N   UNL     1       5.727   6.584  15.248  0.00  0.00    +0.000 NA
ATOM      4  C   UNL     1       5.622   5.217  15.142  0.00  0.00    +0.000 A 
ATOM      5  N   UNL     1       5.131   4.655  16.263  0.00  0.00    +0.000 NA
ENDROOT
BRANCH   4   6
ATOM      6  C   UNL     1       5.911   4.477  13.925  0.00  0.00    +0.000 A 
ATOM      7  C   UNL     1       4.949   3.616  13.368  0.00  0.00    +0.000 A 
ATOM      8  C   UNL     1       5.191   2.958  12.158  0.00  0.00    +0.000 A 
ATOM      9  C   UNL     1       6.400   3.145  11.493  0.00  0.00    +0.000 A 
ATOM     10  C   UNL     1       7.373   3.975  12.047  0.00  0.00    +0.000 A 
ATOM     11  C   UNL     1       7.128   4.630  13.254  0.00  0.00    +0.000 A 
ATOM     12  F   UNL     1       8.095   5.421  13.738  0.00  0.00    +0.000 F 
ENDBRANCH   4   6
BRANCH   1  13
ATOM     13  C   UNL     1       4.178   5.706  18.235  0.00  0.00    +0.000 C 
BRANCH  13  15
ATOM     14  O   UNL     1       5.604   4.195  19.445  0.00  0.00    +0.000 OA
ATOM     15  C   UNL     1       4.465   4.504  19.104  0.00  0.00    +0.000 C 
ATOM     16  N   UNL     1       3.353   3.749  19.487  0.00  0.00    +0.000 N 
ATOM     17  C   UNL     1       1.968   3.999  19.082  0.00  0.00    +0.000 C 
ATOM     18  C   UNL     1       1.050   4.070  20.298  0.00  0.00    +0.000 C 
ATOM     19  C   UNL     1       1.208   2.845  21.197  0.00  0.00    +0.000 C 
ATOM     20  C   UNL     1       2.676   2.584  21.540  0.00  0.00    +0.000 C 
ATOM     21  C   UNL     1       3.545   2.541  20.287  0.00  0.00    +0.000 C 
ENDBRANCH  13  15
ENDBRANCH   1  13
TORSDOF 3
ENDMDL
MODEL 5
REMARK VINA RESULT:      -7.8      1.212      1.737
REMARK  Name = 
REMARK  3 active torsions:
REMARK  status: ('A' for Active; 'I' for Inactive)
REMARK    1  A    between atoms: C_2  and  C_3
REMARK    2  A    between atoms: C_3  and  N_4
REMARK    3  A    between atoms: C_7  and  C_8
REMARK                            x       y       z     vdW  Elec       q    Type
REMARK                         _______ _______ _______ _____ _____    ______ ____
ROOT
ATOM      1  N   UNL     1       6.377   5.358  17.635  0.00  0.00    +0.000 N 
ATOM      2  N   UNL     1       7.202   6.356  17.266  0.00  0.00    +0.000 NA
ATOM      3  N   UNL     1       7.443   6.138  15.983  0.00  0.00    +0.000 NA
ATOM      4  C   UNL     1       6.701   5.043  15.611  0.00  0.00    +0.000 A 
ATOM      5  N   UNL     1       5.982   4.543  16.633  0.00  0.00    +0.000 NA
ENDROOT
BRANCH   4   6
ATOM      6  C   UNL     1       6.621   4.547  14.247  0.00  0.00    +0.000 A 
ATOM      7  C   UNL     1       5.580   3.683  13.862  0.00  0.00    +0.000 A 
ATOM      8  C   UNL     1       5.453   3.261  12.534  0.00  0.00    +0.000 A 
ATOM      9  C   UNL     1       6.369   3.690  11.576  0.00  0.00    +0.000 A 
ATOM     10  C   UNL     1       7.421   4.525  11.950  0.00  0.00    +0.000 A 
ATOM     11  C   UNL     1       7.543   4.944  13.275  0.00  0.00    +0.000 A 
ATOM     12  F   UNL     1       8.569   5.752  13.577  0.00  0.00    +0.000 F 
ENDBRANCH   4   6
BRANCH   1  13
ATOM     13  C   UNL     1       5.615   5.447  18.859  0.00  0.00    +0.000 C 
BRANCH  13  15
ATOM     14  O   UNL     1       5.542   3.106  19.403  0.00  0.00    +0.000 OA
ATOM     15  C   UNL     1       4.923   4.150  19.208  0.00  0.00    +0.000 C 
ATOM     16  N   UNL     1       3.529   4.203  19.283  0.00  0.00    +0.000 N 
ATOM     17  C   UNL     1       2.701   5.379  19.008  0.00  0.00    +0.000 C 
ATOM     18  C   UNL     1       1.746   5.655  20.165  0.00  0.00    +0.000 C 
ATOM     19  C   UNL     1       0.935   4.414  20.535  0.00  0.00    +0.000 C 
ATOM     20  C   UNL     1       1.834   3.195  20.748  0.00  0.00    +0.000 C 
ATOM     21  C   UNL     1       2.777   2.982  19.567  0.00  0.00    +0.000 C 
ENDBRANCH  13  15
ENDBRANCH   1  13
TORSDOF 3
ENDMDL
MODEL 6
REMARK VINA RESULT:      -7.7      1.303      1.746
REMARK  Name = 
REMARK  3 active torsions:
REMARK  status: ('A' for Active; 'I' for Inactive)
REMARK    1  A    between atoms: C_2  and  C_3
REMARK    2  A    between atoms: C_3  and  N_4
REMARK    3  A    between atoms: C_7  and  C_8
REMARK                            x       y       z     vdW  Elec       q    Type
REMARK                         _______ _______ _______ _____ _____    ______ ____
ROOT
ATOM      1  N   UNL     1       5.399   5.740  17.259  0.00  0.00    +0.000 N 
ATOM      2  N   UNL     1       5.217   6.903  16.607  0.00  0.00    +0.000 NA
ATOM      3  N   UNL     1       5.516   6.635  15.346  0.00  0.00    +0.000 NA
ATOM      4  C   UNL     1       5.811   5.294  15.276  0.00  0.00    +0.000 A 
ATOM      5  N   UNL     1       5.712   4.687  16.474  0.00  0.00    +0.000 NA
ENDROOT
BRANCH   4   6
ATOM      6  C   UNL     1       6.096   4.593  14.035  0.00  0.00    +0.000 A 
ATOM      7  C   UNL     1       5.169   3.680  13.502  0.00  0.00    +0.000 A 
ATOM      8  C   UNL     1       5.402   3.058  12.271  0.00  0.00    +0.000 A 
ATOM      9  C   UNL     1       6.567   3.335  11.560  0.00  0.00    +0.000 A 
ATOM     10  C   UNL     1       7.507   4.218  12.089  0.00  0.00    +0.000 A 
ATOM     11  C   UNL     1       7.270   4.836  13.317  0.00  0.00    +0.000 A 
ATOM     12  F   UNL     1       8.204   5.682  13.776  0.00  0.00    +0.000 F 
ENDBRANCH   4   6
BRANCH   1  13
ATOM     13  C   UNL     1       4.841   5.538  18.576  0.00  0.00    +0.000 C 
BRANCH  13  15
ATOM     14  O   UNL     1       5.540   3.446  19.532  0.00  0.00    +0.000 OA
ATOM     15  C   UNL     1       4.679   4.076  18.922  0.00  0.00    +0.000 C 
ATOM     16  N   UNL     1       3.493   3.475  18.493  0.00  0.00    +0.000 N 
ATOM     17  C   UNL     1       2.440   4.124  17.709  0.00  0.00    +0.000 C 
ATOM     18  C   UNL     1       1.079   3.948  18.376  0.00  0.00    +0.000 C 
ATOM     19  C   UNL     1       0.789   2.480  18.687  0.00  0.00    +0.000 C 
ATOM     20  C   UNL     1       1.943   1.826  19.448  0.00  0.00    +0.000 C 
ATOM     21  C   UNL     1       3.278   2.051  18.742  0.00  0.00    +0.000 C 
ENDBRANCH  13  15
ENDBRANCH   1  13
TORSDOF 3
ENDMDL
MODEL 7
REMARK VINA RESULT:      -7.7      3.970      6.482
REMARK  Name = 
REMARK  3 active torsions:
REMARK  status: ('A' for Active; 'I' for Inactive)
REMARK    1  A    between atoms: C_2  and  C_3
REMARK    2  A    between atoms: C_3  and  N_4
REMARK    3  A    between atoms: C_7  and  C_8
REMARK                            x       y       z     vdW  Elec       q    Type
REMARK                         _______ _______ _______ _____ _____    ______ ____
ROOT
ATOM      1  N   UNL     1       3.583   5.614  17.424  0.00  0.00    +0.000 N 
ATOM      2  N   UNL     1       4.406   6.619  17.073  0.00  0.00    +0.000 NA
ATOM      3  N   UNL     1       3.860   7.703  17.603  0.00  0.00    +0.000 NA
ATOM      4  C   UNL     1       2.754   7.295  18.309  0.00  0.00    +0.000 A 
ATOM      5  N   UNL     1       2.569   5.964  18.244  0.00  0.00    +0.000 NA
ENDROOT
BRANCH   4   6
ATOM      6  C   UNL     1       1.938   8.187  19.117  0.00  0.00    +0.000 A 
ATOM      7  C   UNL     1       1.661   7.878  20.461  0.00  0.00    +0.000 A 
ATOM      8  C   UNL     1       0.940   8.766  21.266  0.00  0.00    +0.000 A 
ATOM      9  C   UNL     1       0.482   9.970  20.738  0.00  0.00    +0.000 A 
ATOM     10  C   UNL     1       0.727  10.278  19.400  0.00  0.00    +0.000 A 
ATOM     11  C   UNL     1       1.446   9.389  18.601  0.00  0.00    +0.000 A 
ATOM     12  F   UNL     1       1.660   9.737  17.324  0.00  0.00    +0.000 F 
ENDBRANCH   4   6
BRANCH   1  13
ATOM     13  C   UNL     1       4.020   4.239  17.336  0.00  0.00    +0.000 C 
BRANCH  13  15
ATOM     14  O   UNL     1       5.508   3.769  19.165  0.00  0.00    +0.000 OA
ATOM     15  C   UNL     1       4.383   3.657  18.682  0.00  0.00    +0.000 C 
ATOM     16  N   UNL     1       3.364   2.968  19.344  0.00  0.00    +0.000 N 
ATOM     17  C   UNL     1       2.016   2.729  18.824  0.00  0.00    +0.000 C 
ATOM     18  C   UNL     1       0.958   3.177  19.829  0.00  0.00    +0.000 C 
ATOM     19  C   UNL     1       1.196   2.564  21.209  0.00  0.00    +0.000 C 
ATOM     20  C   UNL     1       2.634   2.780  21.681  0.00  0.00    +0.000 C 
ATOM     21  C   UNL     1       3.644   2.331  20.629  0.00  0.00    +0.000 C 
ENDBRANCH  13  15
ENDBRANCH   1  13
TORSDOF 3
ENDMDL
MODEL 8
REMARK VINA RESULT:      -7.7      1.649      2.304
REMARK  Name = 
REMARK  3 active torsions:
REMARK  status: ('A' for Active; 'I' for Inactive)
REMARK    1  A    between atoms: C_2  and  C_3
REMARK    2  A    between atoms: C_3  and  N_4
REMARK    3  A    between atoms: C_7  and  C_8
REMARK                            x       y       z     vdW  Elec       q    Type
REMARK                         _______ _______ _______ _____ _____    ______ ____
ROOT
ATOM      1  N   UNL     1       6.422   5.373  18.015  0.00  0.00    +0.000 N 
ATOM      2  N   UNL     1       7.203   6.436  17.752  0.00  0.00    +0.000 NA
ATOM      3  N   UNL     1       7.479   6.341  16.461  0.00  0.00    +0.000 NA
ATOM      4  C   UNL     1       6.798   5.249  15.980  0.00  0.00    +0.000 A 
ATOM      5  N   UNL     1       6.085   4.629  16.940  0.00  0.00    +0.000 NA
ENDROOT
BRANCH   4   6
ATOM      6  C   UNL     1       6.768   4.868  14.578  0.00  0.00    +0.000 A 
ATOM      7  C   UNL     1       7.766   5.319  13.695  0.00  0.00    +0.000 A 
ATOM      8  C   UNL     1       7.787   4.898  12.361  0.00  0.00    +0.000 A 
ATOM      9  C   UNL     1       6.808   4.027  11.891  0.00  0.00    +0.000 A 
ATOM     10  C   UNL     1       5.798   3.592  12.748  0.00  0.00    +0.000 A 
ATOM     11  C   UNL     1       5.781   4.015  14.077  0.00  0.00    +0.000 A 
ATOM     12  F   UNL     1       4.791   3.561  14.859  0.00  0.00    +0.000 F 
ENDBRANCH   4   6
BRANCH   1  13
ATOM     13  C   UNL     1       5.633   5.319  19.225  0.00  0.00    +0.000 C 
BRANCH  13  15
ATOM     14  O   UNL     1       5.414   2.935  19.443  0.00  0.00    +0.000 OA
ATOM     15  C   UNL     1       4.859   4.029  19.358  0.00  0.00    +0.000 C 
ATOM     16  N   UNL     1       3.467   4.150  19.366  0.00  0.00    +0.000 N 
ATOM     17  C   UNL     1       2.716   5.396  19.208  0.00  0.00    +0.000 C 
ATOM     18  C   UNL     1       1.707   5.570  20.339  0.00  0.00    +0.000 C 
ATOM     19  C   UNL     1       0.815   4.338  20.494  0.00  0.00    +0.000 C 
ATOM     20  C   UNL     1       1.640   3.054  20.588  0.00  0.00    +0.000 C 
ATOM     21  C   UNL     1       2.642   2.946  19.442  0.00  0.00    +0.000 C 
ENDBRANCH  13  15
ENDBRANCH   1  13
TORSDOF 3
ENDMDL
MODEL 9
REMARK VINA RESULT:      -7.4      3.907      7.085
REMARK  Name = 
REMARK  3 active torsions:
REMARK  status: ('A' for Active; 'I' for Inactive)
REMARK    1  A    between atoms: C_2  and  C_3
REMARK    2  A    between atoms: C_3  and  N_4
REMARK    3  A    between atoms: C_7  and  C_8
REMARK                            x       y       z     vdW  Elec       q    Type
REMARK                         _______ _______ _______ _____ _____    ______ ____
ROOT
ATOM      1  N   UNL     1       3.356   4.628  20.009  0.00  0.00    +0.000 N 
ATOM      2  N   UNL     1       2.189   4.388  20.634  0.00  0.00    +0.000 NA
ATOM      3  N   UNL     1       1.546   5.544  20.605  0.00  0.00    +0.000 NA
ATOM      4  C   UNL     1       2.332   6.428  19.905  0.00  0.00    +0.000 A 
ATOM      5  N   UNL     1       3.478   5.864  19.481  0.00  0.00    +0.000 NA
ENDROOT
BRANCH   4   6
ATOM      6  C   UNL     1       1.925   7.783  19.573  0.00  0.00    +0.000 A 
ATOM      7  C   UNL     1       2.112   8.285  18.273  0.00  0.00    +0.000 A 
ATOM      8  C   UNL     1       1.656   9.561  17.925  0.00  0.00    +0.000 A 
ATOM      9  C   UNL     1       1.012  10.353  18.873  0.00  0.00    +0.000 A 
ATOM     10  C   UNL     1       0.843   9.878  20.172  0.00  0.00    +0.000 A 
ATOM     11  C   UNL     1       1.300   8.605  20.515  0.00  0.00    +0.000 A 
ATOM     12  F   UNL     1       1.105   8.195  21.776  0.00  0.00    +0.000 F 
ENDBRANCH   4   6
BRANCH   1  13
ATOM     13  C   UNL     1       4.174   3.537  19.531  0.00  0.00    +0.000 C 
BRANCH  13  15
ATOM     14  O   UNL     1       3.310   2.939  17.369  0.00  0.00    +0.000 OA
ATOM     15  C   UNL     1       4.213   3.456  18.023  0.00  0.00    +0.000 C 
ATOM     16  N   UNL     1       5.348   3.995  17.412  0.00  0.00    +0.000 N 
ATOM     17  C   UNL     1       6.500   4.574  18.106  0.00  0.00    +0.000 C 
ATOM     18  C   UNL     1       6.814   5.967  17.570  0.00  0.00    +0.000 C 
ATOM     19  C   UNL     1       6.958   5.967  16.049  0.00  0.00    +0.000 C 
ATOM     20  C   UNL     1       5.764   5.294  15.370  0.00  0.00    +0.000 C 
ATOM     21  C   UNL     1       5.489   3.914  15.960  0.00  0.00    +0.000 C 
ENDBRANCH  13  15
ENDBRANCH   1  13
TORSDOF 3
ENDMDL
