MODEL 1
REMARK VINA RESULT:      -7.3      0.000      0.000
REMARK  Name = 
REMARK  5 active torsions:
REMARK  status: ('A' for Active; 'I' for Inactive)
REMARK    1  A    between atoms: C_1  and  N_2
REMARK    2  A    between atoms: N_2  and  C_3
REMARK    3  A    between atoms: C_3  and  C_4
REMARK    4  A    between atoms: C_4  and  C_5
REMARK    5  A    between atoms: C_5  and  N_6
REMARK                            x       y       z     vdW  Elec       q    Type
REMARK                         _______ _______ _______ _____ _____    ______ ____
ROOT
ATOM      1  N   UNL     1       3.728   5.543  19.116  0.00  0.00    +0.000 N 
ATOM      2  C   UNL     1       2.881   4.480  19.559  0.00  0.00    +0.000 A 
ATOM      3  C   UNL     1       2.381   4.535  20.878  0.00  0.00    +0.000 A 
ATOM      4  C   UNL     1       1.610   3.496  21.397  0.00  0.00    +0.000 A 
ATOM      5  C   UNL     1       1.314   2.389  20.615  0.00  0.00    +0.000 A 
ATOM      6  C   UNL     1       1.787   2.314  19.305  0.00  0.00    +0.000 A 
ATOM      7  C   UNL     1       2.581   3.340  18.756  0.00  0.00    +0.000 A 
ATOM      8  C   UNL     1       3.012   3.115  17.314  0.00  0.00    +0.000 C 
ATOM      9  C   UNL     1       3.796   4.210  16.591  0.00  0.00    +0.000 C 
ATOM     10  C   UNL     1       5.061   4.570  17.305  0.00  0.00    +0.000 A 
ATOM     11  C   UNL     1       6.311   4.294  16.733  0.00  0.00    +0.000 A 
ATOM     12  C   UNL     1       7.486   4.653  17.399  0.00  0.00    +0.000 A 
ATOM     13  C   UNL     1       7.418   5.310  18.631  0.00  0.00    +0.000 A 
ATOM     14  C   UNL     1       6.173   5.613  19.191  0.00  0.00    +0.000 A 
ATOM     15  C   UNL     1       4.989   5.236  18.537  0.00  0.00    +0.000 A 
ENDROOT
BRANCH   1  16
ATOM     16  C   UNL     1       3.322   6.937  19.263  0.00  0.00    +0.000 C 
BRANCH  16  17
ATOM     17  C   UNL     1       2.979   7.495  17.862  0.00  0.00    +0.000 C 
BRANCH  17  18
ATOM     18  C   UNL     1       1.722   8.367  17.779  0.00  0.00    +0.000 C 
BRANCH  18  20
ATOM     19  C   UNL     1       1.432  10.638  18.546  0.00  0.00    +0.000 C 
ATOM     20  N   UNL     1       2.075   9.775  17.557  0.00  0.00    +0.000 NA
ATOM     21  H   UNL     1       3.109   9.888  17.665  0.00  0.00    +0.000 HD
ENDBRANCH  18  20
ENDBRANCH  17  18
ENDBRANCH  16  17
ENDBRANCH   1  16
TORSDOF 4
ENDMDL
MODEL 2
REMARK VINA RESULT:      -7.1      1.478      5.068
REMARK  Name = 
REMARK  5 active torsions:
REMARK  status: ('A' for Active; 'I' for Inactive)
REMARK    1  A    between atoms: C_1  and  N_2
REMARK    2  A    between atoms: N_2  and  C_3
REMARK    3  A    between atoms: C_3  and  C_4
REMARK    4  A    between atoms: C_4  and  C_5
REMARK    5  A    between atoms: C_5  and  N_6
REMARK                            x       y       z     vdW  Elec       q    Type
REMARK                         _______ _______ _______ _____ _____    ______ ____
ROOT
ATOM      1  N   UNL     1       3.243   6.114  18.433  0.00  0.00    +0.000 N 
ATOM      2  C   UNL     1       2.600   4.841  18.531  0.00  0.00    +0.000 A 
ATOM      3  C   UNL     1       2.750   3.937  17.457  0.00  0.00    +0.000 A 
ATOM      4  C   UNL     1       2.090   2.708  17.455  0.00  0.00    +0.000 A 
ATOM      5  C   UNL     1       1.279   2.351  18.522  0.00  0.00    +0.000 A 
ATOM      6  C   UNL     1       1.122   3.221  19.600  0.00  0.00    +0.000 A 
ATOM      7  C   UNL     1       1.762   4.476  19.625  0.00  0.00    +0.000 A 
ATOM      8  C   UNL     1       1.498   5.306  20.873  0.00  0.00    +0.000 C 
ATOM      9  C   UNL     1       2.220   6.642  21.047  0.00  0.00    +0.000 C 
ATOM     10  C   UNL     1       1.955   7.582  19.912  0.00  0.00    +0.000 A 
ATOM     11  C   UNL     1       1.229   8.764  20.115  0.00  0.00    +0.000 A 
ATOM     12  C   UNL     1       1.006   9.645  19.054  0.00  0.00    +0.000 A 
ATOM     13  C   UNL     1       1.526   9.361  17.788  0.00  0.00    +0.000 A 
ATOM     14  C   UNL     1       2.275   8.197  17.588  0.00  0.00    +0.000 A 
ATOM     15  C   UNL     1       2.485   7.298  18.646  0.00  0.00    +0.000 A 
ENDROOT
BRANCH   1  16
ATOM     16  C   UNL     1       4.661   6.215  18.104  0.00  0.00    +0.000 C 
BRANCH  16  17
ATOM     17  C   UNL     1       5.472   5.540  19.234  0.00  0.00    +0.000 C 
BRANCH  17  18
ATOM     18  C   UNL     1       6.989   5.472  19.021  0.00  0.00    +0.000 C 
BRANCH  18  20
ATOM     19  C   UNL     1       7.431   4.596  16.815  0.00  0.00    +0.000 C 
ATOM     20  N   UNL     1       7.355   4.283  18.241  0.00  0.00    +0.000 NA
ATOM     21  H   UNL     1       8.301   3.957  18.543  0.00  0.00    +0.000 HD
ENDBRANCH  18  20
ENDBRANCH  17  18
ENDBRANCH  16  17
ENDBRANCH   1  16
TORSDOF 4
ENDMDL
MODEL 3
REMARK VINA RESULT:      -6.8      1.615      4.766
REMARK  Name = 
REMARK  5 active torsions:
REMARK  status: ('A' for Active; 'I' for Inactive)
REMARK    1  A    between atoms: C_1  and  N_2
REMARK    2  A    between atoms: N_2  and  C_3
REMARK    3  A    between atoms: C_3  and  C_4
REMARK    4  A    between atoms: C_4  and  C_5
REMARK    5  A    between atoms: C_5  and  N_6
REMARK                            x       y       z     vdW  Elec       q    Type
REMARK                         _______ _______ _______ _____ _____    ______ ____
ROOT
ATOM      1  N   UNL     1       3.552   5.666  18.752  0.00  0.00    +0.000 N 
ATOM      2  C   UNL     1       2.829   4.432  18.727  0.00  0.00    +0.000 A 
ATOM      3  C   UNL     1       3.160   3.489  17.730  0.00  0.00    +0.000 A 
ATOM      4  C   UNL     1       2.446   2.298  17.603  0.00  0.00    +0.000 A 
ATOM      5  C   UNL     1       1.398   2.018  18.468  0.00  0.00    +0.000 A 
ATOM      6  C   UNL     1       1.058   2.928  19.468  0.00  0.00    +0.000 A 
ATOM      7  C   UNL     1       1.749   4.146  19.613  0.00  0.00    +0.000 A 
ATOM      8  C   UNL     1       1.265   5.027  20.756  0.00  0.00    +0.000 C 
ATOM      9  C   UNL     1       2.008   6.328  21.062  0.00  0.00    +0.000 C 
ATOM     10  C   UNL     1       2.057   7.245  19.880  0.00  0.00    +0.000 A 
ATOM     11  C   UNL     1       1.375   8.470  19.894  0.00  0.00    +0.000 A 
ATOM     12  C   UNL     1       1.445   9.328  18.794  0.00  0.00    +0.000 A 
ATOM     13  C   UNL     1       2.215   8.978  17.682  0.00  0.00    +0.000 A 
ATOM     14  C   UNL     1       2.920   7.770  17.675  0.00  0.00    +0.000 A 
ATOM     15  C   UNL     1       2.837   6.894  18.769  0.00  0.00    +0.000 A 
ENDROOT
BRANCH   1  16
ATOM     16  C   UNL     1       5.011   5.681  18.746  0.00  0.00    +0.000 C 
BRANCH  16  17
ATOM     17  C   UNL     1       5.492   5.759  17.279  0.00  0.00    +0.000 C 
BRANCH  17  18
ATOM     18  C   UNL     1       6.937   6.227  17.071  0.00  0.00    +0.000 C 
BRANCH  18  20
ATOM     19  C   UNL     1       6.709   4.588  15.314  0.00  0.00    +0.000 C 
ATOM     20  N   UNL     1       7.464   5.745  15.789  0.00  0.00    +0.000 NA
ATOM     21  H   UNL     1       7.364   6.502  15.074  0.00  0.00    +0.000 HD
ENDBRANCH  18  20
ENDBRANCH  17  18
ENDBRANCH  16  17
ENDBRANCH   1  16
TORSDOF 4
ENDMDL
MODEL 4
REMARK VINA RESULT:      -6.7      2.266      3.721
REMARK  Name = 
REMARK  5 active torsions:
REMARK  status: ('A' for Active; 'I' for Inactive)
REMARK    1  A    between atoms: C_1  and  N_2
REMARK    2  A    between atoms: N_2  and  C_3
REMARK    3  A    between atoms: C_3  and  C_4
REMARK    4  A    between atoms: C_4  and  C_5
REMARK    5  A    between atoms: C_5  and  N_6
REMARK                            x       y       z     vdW  Elec       q    Type
REMARK                         _______ _______ _______ _____ _____    ______ ____
ROOT
ATOM      1  N   UNL     1       5.001   4.234  18.415  0.00  0.00    +0.000 N 
ATOM      2  C   UNL     1       3.663   3.982  18.853  0.00  0.00    +0.000 A 
ATOM      3  C   UNL     1       3.402   2.769  19.527  0.00  0.00    +0.000 A 
ATOM      4  C   UNL     1       2.108   2.428  19.917  0.00  0.00    +0.000 A 
ATOM      5  C   UNL     1       1.051   3.288  19.654  0.00  0.00    +0.000 A 
ATOM      6  C   UNL     1       1.283   4.497  18.999  0.00  0.00    +0.000 A 
ATOM      7  C   UNL     1       2.576   4.863  18.578  0.00  0.00    +0.000 A 
ATOM      8  C   UNL     1       2.666   6.215  17.886  0.00  0.00    +0.000 C 
ATOM      9  C   UNL     1       4.037   6.753  17.475  0.00  0.00    +0.000 C 
ATOM     10  C   UNL     1       4.764   5.817  16.560  0.00  0.00    +0.000 A 
ATOM     11  C   UNL     1       5.022   6.172  15.228  0.00  0.00    +0.000 A 
ATOM     12  C   UNL     1       5.720   5.300  14.389  0.00  0.00    +0.000 A 
ATOM     13  C   UNL     1       6.183   4.077  14.882  0.00  0.00    +0.000 A 
ATOM     14  C   UNL     1       5.954   3.731  16.217  0.00  0.00    +0.000 A 
ATOM     15  C   UNL     1       5.235   4.595  17.060  0.00  0.00    +0.000 A 
ENDROOT
BRANCH   1  16
ATOM     16  C   UNL     1       6.127   4.111  19.334  0.00  0.00    +0.000 C 
BRANCH  16  17
ATOM     17  C   UNL     1       6.714   5.521  19.575  0.00  0.00    +0.000 C 
BRANCH  17  18
ATOM     18  C   UNL     1       8.089   5.789  18.953  0.00  0.00    +0.000 C 
BRANCH  18  20
ATOM     19  C   UNL     1       7.714   7.758  17.606  0.00  0.00    +0.000 C 
ATOM     20  N   UNL     1       8.333   7.231  18.822  0.00  0.00    +0.000 NA
ATOM     21  H   UNL     1       7.899   7.725  19.635  0.00  0.00    +0.000 HD
ENDBRANCH  18  20
ENDBRANCH  17  18
ENDBRANCH  16  17
ENDBRANCH   1  16
TORSDOF 4
ENDMDL
MODEL 5
REMARK VINA RESULT:      -6.3      1.828      5.650
REMARK  Name = 
REMARK  5 active torsions:
REMARK  status: ('A' for Active; 'I' for Inactive)
REMARK    1  A    between atoms: C_1  and  N_2
REMARK    2  A    between atoms: N_2  and  C_3
REMARK    3  A    between atoms: C_3  and  C_4
REMARK    4  A    between atoms: C_4  and  C_5
REMARK    5  A    between atoms: C_5  and  N_6
REMARK                            x       y       z     vdW  Elec       q    Type
REMARK                         _______ _______ _______ _____ _____    ______ ____
ROOT
ATOM      1  N   UNL     1       2.710   5.824  19.253  0.00  0.00    +0.000 N 
ATOM      2  C   UNL     1       4.071   5.807  18.814  0.00  0.00    +0.000 A 
ATOM      3  C   UNL     1       4.946   4.864  19.396  0.00  0.00    +0.000 A 
ATOM      4  C   UNL     1       6.300   4.842  19.067  0.00  0.00    +0.000 A 
ATOM      5  C   UNL     1       6.809   5.748  18.148  0.00  0.00    +0.000 A 
ATOM      6  C   UNL     1       5.965   6.683  17.550  0.00  0.00    +0.000 A 
ATOM      7  C   UNL     1       4.595   6.741  17.872  0.00  0.00    +0.000 A 
ATOM      8  C   UNL     1       3.807   7.810  17.130  0.00  0.00    +0.000 C 
ATOM      9  C   UNL     1       2.294   7.898  17.334  0.00  0.00    +0.000 C 
ATOM     10  C   UNL     1       1.924   8.093  18.771  0.00  0.00    +0.000 A 
ATOM     11  C   UNL     1       1.330   9.288  19.202  0.00  0.00    +0.000 A 
ATOM     12  C   UNL     1       0.969   9.452  20.542  0.00  0.00    +0.000 A 
ATOM     13  C   UNL     1       1.180   8.415  21.455  0.00  0.00    +0.000 A 
ATOM     14  C   UNL     1       1.747   7.211  21.023  0.00  0.00    +0.000 A 
ATOM     15  C   UNL     1       2.130   7.048  19.682  0.00  0.00    +0.000 A 
ENDROOT
BRANCH   1  16
ATOM     16  C   UNL     1       1.915   4.600  19.279  0.00  0.00    +0.000 C 
BRANCH  16  17
ATOM     17  C   UNL     1       1.583   4.204  17.823  0.00  0.00    +0.000 C 
BRANCH  17  18
ATOM     18  C   UNL     1       2.414   3.058  17.235  0.00  0.00    +0.000 C 
BRANCH  18  20
ATOM     19  C   UNL     1       3.613   1.405  18.523  0.00  0.00    +0.000 C 
ATOM     20  N   UNL     1       2.299   1.850  18.062  0.00  0.00    +0.000 NA
ATOM     21  H   UNL     1       1.726   2.070  18.908  0.00  0.00    +0.000 HD
ENDBRANCH  18  20
ENDBRANCH  17  18
ENDBRANCH  16  17
ENDBRANCH   1  16
TORSDOF 4
ENDMDL
MODEL 6
REMARK VINA RESULT:      -6.3      1.338      4.614
REMARK  Name = 
REMARK  5 active torsions:
REMARK  status: ('A' for Active; 'I' for Inactive)
REMARK    1  A    between atoms: C_1  and  N_2
REMARK    2  A    between atoms: N_2  and  C_3
REMARK    3  A    between atoms: C_3  and  C_4
REMARK    4  A    between atoms: C_4  and  C_5
REMARK    5  A    between atoms: C_5  and  N_6
REMARK                            x       y       z     vdW  Elec       q    Type
REMARK                         _______ _______ _______ _____ _____    ______ ____
ROOT
ATOM      1  N   UNL     1       3.669   5.892  17.416  0.00  0.00    +0.000 N 
ATOM      2  C   UNL     1       4.911   5.534  16.803  0.00  0.00    +0.000 A 
ATOM      3  C   UNL     1       5.078   5.817  15.430  0.00  0.00    +0.000 A 
ATOM      4  C   UNL     1       6.234   5.428  14.753  0.00  0.00    +0.000 A 
ATOM      5  C   UNL     1       7.247   4.762  15.428  0.00  0.00    +0.000 A 
ATOM      6  C   UNL     1       7.110   4.480  16.786  0.00  0.00    +0.000 A 
ATOM      7  C   UNL     1       5.950   4.845  17.495  0.00  0.00    +0.000 A 
ATOM      8  C   UNL     1       5.956   4.475  18.971  0.00  0.00    +0.000 C 
ATOM      9  C   UNL     1       4.787   4.910  19.855  0.00  0.00    +0.000 C 
ATOM     10  C   UNL     1       3.473   4.400  19.350  0.00  0.00    +0.000 A 
ATOM     11  C   UNL     1       2.742   3.454  20.082  0.00  0.00    +0.000 A 
ATOM     12  C   UNL     1       1.507   3.001  19.612  0.00  0.00    +0.000 A 
ATOM     13  C   UNL     1       0.985   3.507  18.418  0.00  0.00    +0.000 A 
ATOM     14  C   UNL     1       1.697   4.471  17.699  0.00  0.00    +0.000 A 
ATOM     15  C   UNL     1       2.949   4.916  18.156  0.00  0.00    +0.000 A 
ENDROOT
BRANCH   1  16
ATOM     16  C   UNL     1       3.127   7.240  17.282  0.00  0.00    +0.000 C 
BRANCH  16  17
ATOM     17  C   UNL     1       2.534   7.665  18.645  0.00  0.00    +0.000 C 
BRANCH  17  18
ATOM     18  C   UNL     1       1.610   8.887  18.622  0.00  0.00    +0.000 C 
BRANCH  18  20
ATOM     19  C   UNL     1       2.186  11.157  18.036  0.00  0.00    +0.000 C 
ATOM     20  N   UNL     1       1.978   9.801  17.533  0.00  0.00    +0.000 NA
ATOM     21  H   UNL     1       2.879   9.480  17.109  0.00  0.00    +0.000 HD
ENDBRANCH  18  20
ENDBRANCH  17  18
ENDBRANCH  16  17
ENDBRANCH   1  16
TORSDOF 4
ENDMDL
MODEL 7
REMARK VINA RESULT:      -6.3      1.489      4.768
REMARK  Name = 
REMARK  5 active torsions:
REMARK  status: ('A' for Active; 'I' for Inactive)
REMARK    1  A    between atoms: C_1  and  N_2
REMARK    2  A    between atoms: N_2  and  C_3
REMARK    3  A    between atoms: C_3  and  C_4
REMARK    4  A    between atoms: C_4  and  C_5
REMARK    5  A    between atoms: C_5  and  N_6
REMARK                            x       y       z     vdW  Elec       q    Type
REMARK                         _______ _______ _______ _____ _____    ______ ____
ROOT
ATOM      1  N   UNL     1       3.571   5.487  18.931  0.00  0.00    +0.000 N 
ATOM      2  C   UNL     1       2.813   4.277  18.841  0.00  0.00    +0.000 A 
ATOM      3  C   UNL     1       3.231   3.299  17.912  0.00  0.00    +0.000 A 
ATOM      4  C   UNL     1       2.497   2.129  17.722  0.00  0.00    +0.000 A 
ATOM      5  C   UNL     1       1.341   1.904  18.456  0.00  0.00    +0.000 A 
ATOM      6  C   UNL     1       0.912   2.849  19.387  0.00  0.00    +0.000 A 
ATOM      7  C   UNL     1       1.623   4.048  19.592  0.00  0.00    +0.000 A 
ATOM      8  C   UNL     1       1.032   4.971  20.647  0.00  0.00    +0.000 C 
ATOM      9  C   UNL     1       1.776   6.254  21.017  0.00  0.00    +0.000 C 
ATOM     10  C   UNL     1       2.004   7.141  19.832  0.00  0.00    +0.000 A 
ATOM     11  C   UNL     1       1.369   8.387  19.737  0.00  0.00    +0.000 A 
ATOM     12  C   UNL     1       1.605   9.216  18.637  0.00  0.00    +0.000 A 
ATOM     13  C   UNL     1       2.493   8.813  17.636  0.00  0.00    +0.000 A 
ATOM     14  C   UNL     1       3.151   7.584  17.741  0.00  0.00    +0.000 A 
ATOM     15  C   UNL     1       2.902   6.737  18.834  0.00  0.00    +0.000 A 
ENDROOT
BRANCH   1  16
ATOM     16  C   UNL     1       5.019   5.454  19.107  0.00  0.00    +0.000 C 
BRANCH  16  17
ATOM     17  C   UNL     1       5.682   5.728  17.737  0.00  0.00    +0.000 C 
BRANCH  17  18
ATOM     18  C   UNL     1       6.650   4.652  17.234  0.00  0.00    +0.000 C 
BRANCH  18  20
ATOM     19  C   UNL     1       8.064   5.682  18.898  0.00  0.00    +0.000 C 
ATOM     20  N   UNL     1       7.744   4.443  18.191  0.00  0.00    +0.000 NA
ATOM     21  H   UNL     1       7.443   3.742  18.905  0.00  0.00    +0.000 HD
ENDBRANCH  18  20
ENDBRANCH  17  18
ENDBRANCH  16  17
ENDBRANCH   1  16
TORSDOF 4
ENDMDL
MODEL 8
REMARK VINA RESULT:      -6.2      1.666      5.149
REMARK  Name = 
REMARK  5 active torsions:
REMARK  status: ('A' for Active; 'I' for Inactive)
REMARK    1  A    between atoms: C_1  and  N_2
REMARK    2  A    between atoms: N_2  and  C_3
REMARK    3  A    between atoms: C_3  and  C_4
REMARK    4  A    between atoms: C_4  and  C_5
REMARK    5  A    between atoms: C_5  and  N_6
REMARK                            x       y       z     vdW  Elec       q    Type
REMARK                         _______ _______ _______ _____ _____    ______ ____
ROOT
ATOM      1  N   UNL     1       2.998   6.160  18.372  0.00  0.00    +0.000 N 
ATOM      2  C   UNL     1       2.325   4.910  18.543  0.00  0.00    +0.000 A 
ATOM      3  C   UNL     1       2.340   3.995  17.467  0.00  0.00    +0.000 A 
ATOM      4  C   UNL     1       1.642   2.790  17.540  0.00  0.00    +0.000 A 
ATOM      5  C   UNL     1       0.926   2.467  18.684  0.00  0.00    +0.000 A 
ATOM      6  C   UNL     1       0.904   3.348  19.764  0.00  0.00    +0.000 A 
ATOM      7  C   UNL     1       1.585   4.579  19.716  0.00  0.00    +0.000 A 
ATOM      8  C   UNL     1       1.472   5.425  20.976  0.00  0.00    +0.000 C 
ATOM      9  C   UNL     1       2.251   6.737  21.068  0.00  0.00    +0.000 C 
ATOM     10  C   UNL     1       1.910   7.679  19.956  0.00  0.00    +0.000 A 
ATOM     11  C   UNL     1       1.247   8.887  20.217  0.00  0.00    +0.000 A 
ATOM     12  C   UNL     1       0.952   9.768  19.175  0.00  0.00    +0.000 A 
ATOM     13  C   UNL     1       1.337   9.459  17.867  0.00  0.00    +0.000 A 
ATOM     14  C   UNL     1       2.024   8.270  17.606  0.00  0.00    +0.000 A 
ATOM     15  C   UNL     1       2.305   7.369  18.647  0.00  0.00    +0.000 A 
ENDROOT
BRANCH   1  16
ATOM     16  C   UNL     1       4.380   6.210  17.907  0.00  0.00    +0.000 C 
BRANCH  16  17
ATOM     17  C   UNL     1       5.280   5.560  18.982  0.00  0.00    +0.000 C 
BRANCH  17  18
ATOM     18  C   UNL     1       5.563   4.064  18.803  0.00  0.00    +0.000 C 
BRANCH  18  20
ATOM     19  C   UNL     1       4.503   2.079  19.678  0.00  0.00    +0.000 C 
ATOM     20  N   UNL     1       5.208   3.315  20.015  0.00  0.00    +0.000 NA
ATOM     21  H   UNL     1       6.085   3.050  20.520  0.00  0.00    +0.000 HD
ENDBRANCH  18  20
ENDBRANCH  17  18
ENDBRANCH  16  17
ENDBRANCH   1  16
TORSDOF 4
ENDMDL
MODEL 9
REMARK VINA RESULT:      -6.2      1.240      1.296
REMARK  Name = 
REMARK  5 active torsions:
REMARK  status: ('A' for Active; 'I' for Inactive)
REMARK    1  A    between atoms: C_1  and  N_2
REMARK    2  A    between atoms: N_2  and  C_3
REMARK    3  A    between atoms: C_3  and  C_4
REMARK    4  A    between atoms: C_4  and  C_5
REMARK    5  A    between atoms: C_5  and  N_6
REMARK                            x       y       z     vdW  Elec       q    Type
REMARK                         _______ _______ _______ _____ _____    ______ ____
ROOT
ATOM      1  N   UNL     1       3.164   5.544  18.170  0.00  0.00    +0.000 N 
ATOM      2  C   UNL     1       2.867   4.606  19.208  0.00  0.00    +0.000 A 
ATOM      3  C   UNL     1       2.373   5.105  20.433  0.00  0.00    +0.000 A 
ATOM      4  C   UNL     1       2.132   4.254  21.510  0.00  0.00    +0.000 A 
ATOM      5  C   UNL     1       2.369   2.892  21.389  0.00  0.00    +0.000 A 
ATOM      6  C   UNL     1       2.846   2.372  20.187  0.00  0.00    +0.000 A 
ATOM      7  C   UNL     1       3.114   3.207  19.085  0.00  0.00    +0.000 A 
ATOM      8  C   UNL     1       3.623   2.489  17.844  0.00  0.00    +0.000 C 
ATOM      9  C   UNL     1       3.853   3.287  16.561  0.00  0.00    +0.000 C 
ATOM     10  C   UNL     1       4.818   4.415  16.759  0.00  0.00    +0.000 A 
ATOM     11  C   UNL     1       6.070   4.407  16.129  0.00  0.00    +0.000 A 
ATOM     12  C   UNL     1       6.954   5.474  16.304  0.00  0.00    +0.000 A 
ATOM     13  C   UNL     1       6.584   6.567  17.092  0.00  0.00    +0.000 A 
ATOM     14  C   UNL     1       5.324   6.593  17.700  0.00  0.00    +0.000 A 
ATOM     15  C   UNL     1       4.440   5.513  17.545  0.00  0.00    +0.000 A 
ENDROOT
BRANCH   1  16
ATOM     16  C   UNL     1       2.181   6.540  17.755  0.00  0.00    +0.000 C 
BRANCH  16  17
ATOM     17  C   UNL     1       2.454   7.847  18.534  0.00  0.00    +0.000 C 
BRANCH  17  18
ATOM     18  C   UNL     1       2.002   9.142  17.848  0.00  0.00    +0.000 C 
BRANCH  18  20
ATOM     19  C   UNL     1       0.976   9.278  20.029  0.00  0.00    +0.000 C 
ATOM     20  N   UNL     1       1.215   9.974  18.766  0.00  0.00    +0.000 NA
ATOM     21  H   UNL     1       1.753  10.844  18.983  0.00  0.00    +0.000 HD
ENDBRANCH  18  20
ENDBRANCH  17  18
ENDBRANCH  16  17
ENDBRANCH   1  16
TORSDOF 4
ENDMDL
