MODEL 1
REMARK VINA RESULT:      -7.3      0.000      0.000
REMARK  Name = 
REMARK  4 active torsions:
REMARK  status: ('A' for Active; 'I' for Inactive)
REMARK    1  A    between atoms: S_2  and  C_4
REMARK    2  A    between atoms: S_2  and  C_10
REMARK    3  A    between atoms: C_12  and  O_13
REMARK    4  A    between atoms: C_16  and  O_17
REMARK                            x       y       z     vdW  Elec       q    Type
REMARK                         _______ _______ _______ _____ _____    ______ ____
ROOT
ATOM      1  C   UNL     1       5.440   5.726  18.079  0.00  0.00    +0.000 A 
ATOM      2  C   UNL     1       6.096   5.317  19.251  0.00  0.00    +0.000 A 
ATOM      3  C   UNL     1       7.399   5.737  19.487  0.00  0.00    +0.000 A 
ATOM      4  C   UNL     1       8.061   6.544  18.570  0.00  0.00    +0.000 A 
ATOM      5  C   UNL     1       7.410   6.943  17.401  0.00  0.00    +0.000 A 
ATOM      6  C   UNL     1       6.096   6.535  17.155  0.00  0.00    +0.000 A 
ENDROOT
BRANCH   1   8
ATOM      7  O   UNL     1       3.848   4.184  16.740  0.00  0.00    +0.000 OA
ATOM      8  S   UNL     1       3.782   5.156  17.823  0.00  0.00    +0.000 S 
ATOM      9  O   UNL     1       2.957   6.341  17.662  0.00  0.00    +0.000 OA
BRANCH   8  10
ATOM     10  C   UNL     1       3.178   4.246  19.230  0.00  0.00    +0.000 A 
ATOM     11  C   UNL     1       3.173   2.847  19.198  0.00  0.00    +0.000 A 
ATOM     12  C   UNL     1       2.580   2.138  20.244  0.00  0.00    +0.000 A 
ATOM     13  C   UNL     1       1.990   2.822  21.309  0.00  0.00    +0.000 A 
ATOM     14  C   UNL     1       1.994   4.217  21.335  0.00  0.00    +0.000 A 
ATOM     15  C   UNL     1       2.580   4.934  20.292  0.00  0.00    +0.000 A 
ENDBRANCH   8  10
ENDBRANCH   1   8
BRANCH   3  16
ATOM     16  O   UNL     1       8.068   5.378  20.618  0.00  0.00    +0.000 OA
ATOM     17  H   UNL     1       8.373   6.181  21.074  0.00  0.00    +0.000 HD
ENDBRANCH   3  16
BRANCH   6  18
ATOM     18  O   UNL     1       5.487   6.920  16.002  0.00  0.00    +0.000 OA
ATOM     19  H   UNL     1       6.062   6.718  15.244  0.00  0.00    +0.000 HD
ENDBRANCH   6  18
TORSDOF 4
ENDMDL
MODEL 2
REMARK VINA RESULT:      -7.3      0.310      1.176
REMARK  Name = 
REMARK  4 active torsions:
REMARK  status: ('A' for Active; 'I' for Inactive)
REMARK    1  A    between atoms: S_2  and  C_4
REMARK    2  A    between atoms: S_2  and  C_10
REMARK    3  A    between atoms: C_12  and  O_13
REMARK    4  A    between atoms: C_16  and  O_17
REMARK                            x       y       z     vdW  Elec       q    Type
REMARK                         _______ _______ _______ _____ _____    ______ ____
ROOT
ATOM      1  C   UNL     1       5.470   5.709  18.084  0.00  0.00    +0.000 A 
ATOM      2  C   UNL     1       6.126   5.312  19.260  0.00  0.00    +0.000 A 
ATOM      3  C   UNL     1       7.416   5.765  19.509  0.00  0.00    +0.000 A 
ATOM      4  C   UNL     1       8.064   6.593  18.602  0.00  0.00    +0.000 A 
ATOM      5  C   UNL     1       7.413   6.981  17.429  0.00  0.00    +0.000 A 
ATOM      6  C   UNL     1       6.112   6.541  17.170  0.00  0.00    +0.000 A 
ENDROOT
BRANCH   1   8
ATOM      7  O   UNL     1       3.933   4.119  16.738  0.00  0.00    +0.000 OA
ATOM      8  S   UNL     1       3.829   5.097  17.811  0.00  0.00    +0.000 S 
ATOM      9  O   UNL     1       2.979   6.262  17.629  0.00  0.00    +0.000 OA
BRANCH   8  10
ATOM     10  C   UNL     1       3.228   4.186  19.218  0.00  0.00    +0.000 A 
ATOM     11  C   UNL     1       2.368   4.810  20.129  0.00  0.00    +0.000 A 
ATOM     12  C   UNL     1       2.003   4.140  21.298  0.00  0.00    +0.000 A 
ATOM     13  C   UNL     1       2.498   2.861  21.556  0.00  0.00    +0.000 A 
ATOM     14  C   UNL     1       3.357   2.243  20.647  0.00  0.00    +0.000 A 
ATOM     15  C   UNL     1       3.731   2.907  19.479  0.00  0.00    +0.000 A 
ENDBRANCH   8  10
ENDBRANCH   1   8
BRANCH   3  16
ATOM     16  O   UNL     1       8.084   5.417  20.644  0.00  0.00    +0.000 OA
ATOM     17  H   UNL     1       8.540   6.200  20.995  0.00  0.00    +0.000 HD
ENDBRANCH   3  16
BRANCH   6  18
ATOM     18  O   UNL     1       5.503   6.916  16.014  0.00  0.00    +0.000 OA
ATOM     19  H   UNL     1       4.765   6.311  15.821  0.00  0.00    +0.000 HD
ENDBRANCH   6  18
TORSDOF 4
ENDMDL
MODEL 3
REMARK VINA RESULT:      -6.8      3.210      5.902
REMARK  Name = 
REMARK  4 active torsions:
REMARK  status: ('A' for Active; 'I' for Inactive)
REMARK    1  A    between atoms: S_2  and  C_4
REMARK    2  A    between atoms: S_2  and  C_10
REMARK    3  A    between atoms: C_12  and  O_13
REMARK    4  A    between atoms: C_16  and  O_17
REMARK                            x       y       z     vdW  Elec       q    Type
REMARK                         _______ _______ _______ _____ _____    ______ ____
ROOT
ATOM      1  C   UNL     1       5.607   5.648  17.390  0.00  0.00    +0.000 A 
ATOM      2  C   UNL     1       4.801   6.767  17.125  0.00  0.00    +0.000 A 
ATOM      3  C   UNL     1       3.614   6.934  17.828  0.00  0.00    +0.000 A 
ATOM      4  C   UNL     1       3.213   6.002  18.777  0.00  0.00    +0.000 A 
ATOM      5  C   UNL     1       4.012   4.887  19.033  0.00  0.00    +0.000 A 
ATOM      6  C   UNL     1       5.214   4.709  18.340  0.00  0.00    +0.000 A 
ENDROOT
BRANCH   1   8
ATOM      7  O   UNL     1       7.853   4.396  17.088  0.00  0.00    +0.000 OA
ATOM      8  S   UNL     1       7.106   5.477  16.460  0.00  0.00    +0.000 S 
ATOM      9  O   UNL     1       7.702   6.801  16.389  0.00  0.00    +0.000 OA
BRANCH   8  10
ATOM     10  C   UNL     1       6.787   4.922  14.799  0.00  0.00    +0.000 A 
ATOM     11  C   UNL     1       5.724   4.045  14.556  0.00  0.00    +0.000 A 
ATOM     12  C   UNL     1       5.555   3.508  13.279  0.00  0.00    +0.000 A 
ATOM     13  C   UNL     1       6.446   3.839  12.256  0.00  0.00    +0.000 A 
ATOM     14  C   UNL     1       7.506   4.712  12.502  0.00  0.00    +0.000 A 
ATOM     15  C   UNL     1       7.685   5.250  13.777  0.00  0.00    +0.000 A 
ENDBRANCH   8  10
ENDBRANCH   1   8
BRANCH   3  16
ATOM     16  O   UNL     1       2.809   8.013  17.615  0.00  0.00    +0.000 OA
ATOM     17  H   UNL     1       2.449   7.966  16.713  0.00  0.00    +0.000 HD
ENDBRANCH   3  16
BRANCH   6  18
ATOM     18  O   UNL     1       5.968   3.607  18.592  0.00  0.00    +0.000 OA
ATOM     19  H   UNL     1       6.606   3.801  19.301  0.00  0.00    +0.000 HD
ENDBRANCH   6  18
TORSDOF 4
ENDMDL
MODEL 4
REMARK VINA RESULT:      -6.7      3.150      5.870
REMARK  Name = 
REMARK  4 active torsions:
REMARK  status: ('A' for Active; 'I' for Inactive)
REMARK    1  A    between atoms: S_2  and  C_4
REMARK    2  A    between atoms: S_2  and  C_10
REMARK    3  A    between atoms: C_12  and  O_13
REMARK    4  A    between atoms: C_16  and  O_17
REMARK                            x       y       z     vdW  Elec       q    Type
REMARK                         _______ _______ _______ _____ _____    ______ ____
ROOT
ATOM      1  C   UNL     1       5.569   5.665  17.430  0.00  0.00    +0.000 A 
ATOM      2  C   UNL     1       4.799   6.808  17.161  0.00  0.00    +0.000 A 
ATOM      3  C   UNL     1       3.586   6.984  17.815  0.00  0.00    +0.000 A 
ATOM      4  C   UNL     1       3.124   6.036  18.720  0.00  0.00    +0.000 A 
ATOM      5  C   UNL     1       3.887   4.896  18.980  0.00  0.00    +0.000 A 
ATOM      6  C   UNL     1       5.114   4.710  18.336  0.00  0.00    +0.000 A 
ENDROOT
BRANCH   1   8
ATOM      7  O   UNL     1       7.870   4.485  17.294  0.00  0.00    +0.000 OA
ATOM      8  S   UNL     1       7.104   5.485  16.563  0.00  0.00    +0.000 S 
ATOM      9  O   UNL     1       7.651   6.823  16.408  0.00  0.00    +0.000 OA
BRANCH   8  10
ATOM     10  C   UNL     1       6.863   4.793  14.940  0.00  0.00    +0.000 A 
ATOM     11  C   UNL     1       7.712   5.173  13.894  0.00  0.00    +0.000 A 
ATOM     12  C   UNL     1       7.443   4.734  12.597  0.00  0.00    +0.000 A 
ATOM     13  C   UNL     1       6.330   3.928  12.347  0.00  0.00    +0.000 A 
ATOM     14  C   UNL     1       5.484   3.554  13.392  0.00  0.00    +0.000 A 
ATOM     15  C   UNL     1       5.744   3.992  14.690  0.00  0.00    +0.000 A 
ENDBRANCH   8  10
ENDBRANCH   1   8
BRANCH   3  16
ATOM     16  O   UNL     1       2.814   8.085  17.597  0.00  0.00    +0.000 OA
ATOM     17  H   UNL     1       1.910   7.800  17.380  0.00  0.00    +0.000 HD
ENDBRANCH   3  16
BRANCH   6  18
ATOM     18  O   UNL     1       5.832   3.585  18.590  0.00  0.00    +0.000 OA
ATOM     19  H   UNL     1       5.731   3.335  19.526  0.00  0.00    +0.000 HD
ENDBRANCH   6  18
TORSDOF 4
ENDMDL
MODEL 5
REMARK VINA RESULT:      -6.7      3.263      5.745
REMARK  Name = 
REMARK  4 active torsions:
REMARK  status: ('A' for Active; 'I' for Inactive)
REMARK    1  A    between atoms: S_2  and  C_4
REMARK    2  A    between atoms: S_2  and  C_10
REMARK    3  A    between atoms: C_12  and  O_13
REMARK    4  A    between atoms: C_16  and  O_17
REMARK                            x       y       z     vdW  Elec       q    Type
REMARK                         _______ _______ _______ _____ _____    ______ ____
ROOT
ATOM      1  C   UNL     1       5.628   5.109  17.338  0.00  0.00    +0.000 A 
ATOM      2  C   UNL     1       5.499   4.077  18.281  0.00  0.00    +0.000 A 
ATOM      3  C   UNL     1       4.314   3.948  18.994  0.00  0.00    +0.000 A 
ATOM      4  C   UNL     1       3.264   4.836  18.793  0.00  0.00    +0.000 A 
ATOM      5  C   UNL     1       3.397   5.866  17.860  0.00  0.00    +0.000 A 
ATOM      6  C   UNL     1       4.581   6.003  17.128  0.00  0.00    +0.000 A 
ENDROOT
BRANCH   1   8
ATOM      7  O   UNL     1       8.067   4.276  17.084  0.00  0.00    +0.000 OA
ATOM      8  S   UNL     1       7.163   5.234  16.461  0.00  0.00    +0.000 S 
ATOM      9  O   UNL     1       7.521   6.642  16.452  0.00  0.00    +0.000 OA
BRANCH   8  10
ATOM     10  C   UNL     1       6.999   4.692  14.773  0.00  0.00    +0.000 A 
ATOM     11  C   UNL     1       7.810   5.259  13.783  0.00  0.00    +0.000 A 
ATOM     12  C   UNL     1       7.591   4.931  12.445  0.00  0.00    +0.000 A 
ATOM     13  C   UNL     1       6.567   4.048  12.098  0.00  0.00    +0.000 A 
ATOM     14  C   UNL     1       5.759   3.486  13.087  0.00  0.00    +0.000 A 
ATOM     15  C   UNL     1       5.968   3.812  14.427  0.00  0.00    +0.000 A 
ENDBRANCH   8  10
ENDBRANCH   1   8
BRANCH   3  16
ATOM     16  O   UNL     1       4.139   2.953  19.908  0.00  0.00    +0.000 OA
ATOM     17  H   UNL     1       4.547   3.220  20.749  0.00  0.00    +0.000 HD
ENDBRANCH   3  16
BRANCH   6  18
ATOM     18  O   UNL     1       4.696   7.023  16.238  0.00  0.00    +0.000 OA
ATOM     19  H   UNL     1       5.636   7.184  16.043  0.00  0.00    +0.000 HD
ENDBRANCH   6  18
TORSDOF 4
ENDMDL
MODEL 6
REMARK VINA RESULT:      -6.6      2.494      3.746
REMARK  Name = 
REMARK  4 active torsions:
REMARK  status: ('A' for Active; 'I' for Inactive)
REMARK    1  A    between atoms: S_2  and  C_4
REMARK    2  A    between atoms: S_2  and  C_10
REMARK    3  A    between atoms: C_12  and  O_13
REMARK    4  A    between atoms: C_16  and  O_17
REMARK                            x       y       z     vdW  Elec       q    Type
REMARK                         _______ _______ _______ _____ _____    ______ ____
ROOT
ATOM      1  C   UNL     1       4.960   4.223  17.770  0.00  0.00    +0.000 A 
ATOM      2  C   UNL     1       4.985   3.863  16.413  0.00  0.00    +0.000 A 
ATOM      3  C   UNL     1       6.177   3.955  15.705  0.00  0.00    +0.000 A 
ATOM      4  C   UNL     1       7.335   4.412  16.321  0.00  0.00    +0.000 A 
ATOM      5  C   UNL     1       7.306   4.778  17.668  0.00  0.00    +0.000 A 
ATOM      6  C   UNL     1       6.116   4.682  18.396  0.00  0.00    +0.000 A 
ENDROOT
BRANCH   1   8
ATOM      7  O   UNL     1       3.719   3.545  19.939  0.00  0.00    +0.000 OA
ATOM      8  S   UNL     1       3.413   4.094  18.625  0.00  0.00    +0.000 S 
ATOM      9  O   UNL     1       2.513   3.367  17.745  0.00  0.00    +0.000 OA
BRANCH   8  10
ATOM     10  C   UNL     1       2.704   5.696  18.942  0.00  0.00    +0.000 A 
ATOM     11  C   UNL     1       2.835   6.711  17.988  0.00  0.00    +0.000 A 
ATOM     12  C   UNL     1       2.397   8.001  18.291  0.00  0.00    +0.000 A 
ATOM     13  C   UNL     1       1.837   8.275  19.540  0.00  0.00    +0.000 A 
ATOM     14  C   UNL     1       1.710   7.261  20.490  0.00  0.00    +0.000 A 
ATOM     15  C   UNL     1       2.151   5.971  20.198  0.00  0.00    +0.000 A 
ENDBRANCH   8  10
ENDBRANCH   1   8
BRANCH   3  16
ATOM     16  O   UNL     1       6.252   3.601  14.391  0.00  0.00    +0.000 OA
ATOM     17  H   UNL     1       5.571   4.084  13.894  0.00  0.00    +0.000 HD
ENDBRANCH   3  16
BRANCH   6  18
ATOM     18  O   UNL     1       6.105   5.060  19.701  0.00  0.00    +0.000 OA
ATOM     19  H   UNL     1       5.336   5.632  19.871  0.00  0.00    +0.000 HD
ENDBRANCH   6  18
TORSDOF 4
ENDMDL
MODEL 7
REMARK VINA RESULT:      -6.6      1.907      5.524
REMARK  Name = 
REMARK  4 active torsions:
REMARK  status: ('A' for Active; 'I' for Inactive)
REMARK    1  A    between atoms: S_2  and  C_4
REMARK    2  A    between atoms: S_2  and  C_10
REMARK    3  A    between atoms: C_12  and  O_13
REMARK    4  A    between atoms: C_16  and  O_17
REMARK                            x       y       z     vdW  Elec       q    Type
REMARK                         _______ _______ _______ _____ _____    ______ ____
ROOT
ATOM      1  C   UNL     1       3.183   4.036  19.304  0.00  0.00    +0.000 A 
ATOM      2  C   UNL     1       3.053   5.327  19.840  0.00  0.00    +0.000 A 
ATOM      3  C   UNL     1       1.864   5.692  20.460  0.00  0.00    +0.000 A 
ATOM      4  C   UNL     1       0.803   4.799  20.542  0.00  0.00    +0.000 A 
ATOM      5  C   UNL     1       0.932   3.518  20.002  0.00  0.00    +0.000 A 
ATOM      6  C   UNL     1       2.125   3.134  19.383  0.00  0.00    +0.000 A 
ENDROOT
BRANCH   1   8
ATOM      7  O   UNL     1       4.379   3.195  17.167  0.00  0.00    +0.000 OA
ATOM      8  S   UNL     1       4.717   3.623  18.518  0.00  0.00    +0.000 S 
ATOM      9  O   UNL     1       5.400   2.697  19.405  0.00  0.00    +0.000 OA
BRANCH   8  10
ATOM     10  C   UNL     1       5.751   5.057  18.308  0.00  0.00    +0.000 A 
ATOM     11  C   UNL     1       5.476   5.963  17.278  0.00  0.00    +0.000 A 
ATOM     12  C   UNL     1       6.361   7.013  17.031  0.00  0.00    +0.000 A 
ATOM     13  C   UNL     1       7.516   7.153  17.804  0.00  0.00    +0.000 A 
ATOM     14  C   UNL     1       7.788   6.246  18.829  0.00  0.00    +0.000 A 
ATOM     15  C   UNL     1       6.911   5.191  19.079  0.00  0.00    +0.000 A 
ENDBRANCH   8  10
ENDBRANCH   1   8
BRANCH   3  16
ATOM     16  O   UNL     1       1.699   6.929  21.008  0.00  0.00    +0.000 OA
ATOM     17  H   UNL     1       1.893   7.602  20.333  0.00  0.00    +0.000 HD
ENDBRANCH   3  16
BRANCH   6  18
ATOM     18  O   UNL     1       2.223   1.888  18.848  0.00  0.00    +0.000 OA
ATOM     19  H   UNL     1       1.349   1.597  18.531  0.00  0.00    +0.000 HD
ENDBRANCH   6  18
TORSDOF 4
ENDMDL
MODEL 8
REMARK VINA RESULT:      -6.6      2.366      5.376
REMARK  Name = 
REMARK  4 active torsions:
REMARK  status: ('A' for Active; 'I' for Inactive)
REMARK    1  A    between atoms: S_2  and  C_4
REMARK    2  A    between atoms: S_2  and  C_10
REMARK    3  A    between atoms: C_12  and  O_13
REMARK    4  A    between atoms: C_16  and  O_17
REMARK                            x       y       z     vdW  Elec       q    Type
REMARK                         _______ _______ _______ _____ _____    ______ ____
ROOT
ATOM      1  C   UNL     1       2.588   4.460  19.120  0.00  0.00    +0.000 A 
ATOM      2  C   UNL     1       2.950   4.021  20.403  0.00  0.00    +0.000 A 
ATOM      3  C   UNL     1       2.238   2.985  20.996  0.00  0.00    +0.000 A 
ATOM      4  C   UNL     1       1.168   2.391  20.338  0.00  0.00    +0.000 A 
ATOM      5  C   UNL     1       0.806   2.835  19.064  0.00  0.00    +0.000 A 
ATOM      6  C   UNL     1       1.518   3.870  18.452  0.00  0.00    +0.000 A 
ENDROOT
BRANCH   1   8
ATOM      7  O   UNL     1       4.516   6.164  19.411  0.00  0.00    +0.000 OA
ATOM      8  S   UNL     1       3.523   5.790  18.413  0.00  0.00    +0.000 S 
ATOM      9  O   UNL     1       2.559   6.781  17.966  0.00  0.00    +0.000 OA
BRANCH   8  10
ATOM     10  C   UNL     1       4.462   5.251  16.999  0.00  0.00    +0.000 A 
ATOM     11  C   UNL     1       4.792   3.898  16.864  0.00  0.00    +0.000 A 
ATOM     12  C   UNL     1       5.637   3.496  15.828  0.00  0.00    +0.000 A 
ATOM     13  C   UNL     1       6.154   4.441  14.939  0.00  0.00    +0.000 A 
ATOM     14  C   UNL     1       5.824   5.790  15.079  0.00  0.00    +0.000 A 
ATOM     15  C   UNL     1       4.985   6.200  16.114  0.00  0.00    +0.000 A 
ENDBRANCH   8  10
ENDBRANCH   1   8
BRANCH   3  16
ATOM     16  O   UNL     1       2.563   2.516  22.233  0.00  0.00    +0.000 OA
ATOM     17  H   UNL     1       3.519   2.343  22.264  0.00  0.00    +0.000 HD
ENDBRANCH   3  16
BRANCH   6  18
ATOM     18  O   UNL     1       1.137   4.299  17.220  0.00  0.00    +0.000 OA
ATOM     19  H   UNL     1       0.286   3.892  16.979  0.00  0.00    +0.000 HD
ENDBRANCH   6  18
TORSDOF 4
ENDMDL
MODEL 9
REMARK VINA RESULT:      -6.6      2.171      5.325
REMARK  Name = 
REMARK  4 active torsions:
REMARK  status: ('A' for Active; 'I' for Inactive)
REMARK    1  A    between atoms: S_2  and  C_4
REMARK    2  A    between atoms: S_2  and  C_10
REMARK    3  A    between atoms: C_12  and  O_13
REMARK    4  A    between atoms: C_16  and  O_17
REMARK                            x       y       z     vdW  Elec       q    Type
REMARK                         _______ _______ _______ _____ _____    ______ ____
ROOT
ATOM      1  C   UNL     1       4.000   4.465  17.147  0.00  0.00    +0.000 A 
ATOM      2  C   UNL     1       3.690   3.107  17.325  0.00  0.00    +0.000 A 
ATOM      3  C   UNL     1       2.563   2.755  18.059  0.00  0.00    +0.000 A 
ATOM      4  C   UNL     1       1.752   3.730  18.626  0.00  0.00    +0.000 A 
ATOM      5  C   UNL     1       2.067   5.079  18.454  0.00  0.00    +0.000 A 
ATOM      6  C   UNL     1       3.192   5.449  17.711  0.00  0.00    +0.000 A 
ENDROOT
BRANCH   1   8
ATOM      7  O   UNL     1       5.033   5.820  15.198  0.00  0.00    +0.000 OA
ATOM      8  S   UNL     1       5.452   4.860  16.210  0.00  0.00    +0.000 S 
ATOM      9  O   UNL     1       6.030   3.595  15.791  0.00  0.00    +0.000 OA
BRANCH   8  10
ATOM     10  C   UNL     1       6.656   5.720  17.200  0.00  0.00    +0.000 A 
ATOM     11  C   UNL     1       7.168   5.109  18.350  0.00  0.00    +0.000 A 
ATOM     12  C   UNL     1       8.010   5.832  19.196  0.00  0.00    +0.000 A 
ATOM     13  C   UNL     1       8.332   7.158  18.897  0.00  0.00    +0.000 A 
ATOM     14  C   UNL     1       7.818   7.765  17.751  0.00  0.00    +0.000 A 
ATOM     15  C   UNL     1       6.971   7.050  16.903  0.00  0.00    +0.000 A 
ENDBRANCH   8  10
ENDBRANCH   1   8
BRANCH   3  16
ATOM     16  O   UNL     1       2.215   1.451  18.244  0.00  0.00    +0.000 OA
ATOM     17  H   UNL     1       2.932   0.996  18.718  0.00  0.00    +0.000 HD
ENDBRANCH   3  16
BRANCH   6  18
ATOM     18  O   UNL     1       3.490   6.768  17.572  0.00  0.00    +0.000 OA
ATOM     19  H   UNL     1       4.085   7.047  18.290  0.00  0.00    +0.000 HD
ENDBRANCH   6  18
TORSDOF 4
ENDMDL
