MODEL 1
REMARK VINA RESULT:      -5.9      0.000      0.000
REMARK  Name = 
REMARK  16 active torsions:
REMARK  status: ('A' for Active; 'I' for Inactive)
REMARK    1  A    between atoms: C_1  and  O_2
REMARK    2  A    between atoms: O_2  and  P_3
REMARK    3  A    between atoms: P_3  and  O_5
REMARK    4  A    between atoms: P_3  and  O_7
REMARK    5  A    between atoms: O_5  and  C_6
REMARK    6  A    between atoms: O_7  and  C_8
REMARK    7  A    between atoms: C_8  and  C_9
REMARK    8  A    between atoms: C_9  and  O_10
REMARK    9  A    between atoms: C_9  and  C_11
REMARK   10  A    between atoms: C_11  and  O_12
REMARK   11  A    between atoms: C_11  and  C_13
REMARK   12  A    between atoms: C_13  and  O_14
REMARK   13  A    between atoms: C_13  and  CA_15
REMARK   14  A    between atoms: CA_15  and  N_16
REMARK   15  A    between atoms: CA_15  and  C_17
REMARK   16  A    between atoms: C_17  and  O_18
REMARK                            x       y       z     vdW  Elec       q    Type
REMARK                         _______ _______ _______ _____ _____    ______ ____
ROOT
ATOM      1  C   UNL     1       3.479   3.295  18.433  0.00  0.00    +0.000 C 
ENDROOT
BRANCH   1   2
ATOM      2  O   UNL     1       2.923   4.626  18.371  0.00  0.00    +0.000 OA
ATOM      3  H   UNL     1       3.656   5.226  18.617  0.00  0.00    +0.000 HD
ENDBRANCH   1   2
BRANCH   1   4
ATOM      4  C   UNL     1       4.938   3.395  18.942  0.00  0.00    +0.000 C 
BRANCH   4   5
ATOM      5  O   UNL     1       5.197   2.387  19.922  0.00  0.00    +0.000 OA
ATOM      6  H   UNL     1       4.619   2.594  20.687  0.00  0.00    +0.000 HD
ENDBRANCH   4   5
BRANCH   4   7
ATOM      7  C   UNL     1       5.206   4.788  19.508  0.00  0.00    +0.000 C 
BRANCH   7   8
ATOM      8  O   UNL     1       6.597   5.151  19.360  0.00  0.00    +0.000 OA
BRANCH   8   9
ATOM      9  P   UNL     1       7.079   5.502  17.736  0.00  0.00    +0.000 P 
ATOM     10  O   UNL     1       8.032   4.298  17.767  0.00  0.00    +0.000 OA
BRANCH   9  12
ATOM     11  C   UNL     1       7.094   4.996  15.089  0.00  0.00    +0.000 C 
ATOM     12  O   UNL     1       7.561   5.852  16.112  0.00  0.00    +0.000 OA
ENDBRANCH   9  12
BRANCH   9  13
ATOM     13  O   UNL     1       7.858   6.879  18.198  0.00  0.00    +0.000 OA
ATOM     14  C   UNL     1       7.598   8.088  17.496  0.00  0.00    +0.000 C 
ENDBRANCH   9  13
ENDBRANCH   8   9
ENDBRANCH   7   8
ENDBRANCH   4   7
ENDBRANCH   1   4
BRANCH   1  15
ATOM     15  C   UNL     1       2.495   2.435  19.260  0.00  0.00    +0.000 C 
BRANCH  15  16
ATOM     16  O   UNL     1       1.886   1.438  18.435  0.00  0.00    +0.000 OA
ATOM     17  H   UNL     1       1.495   1.901  17.668  0.00  0.00    +0.000 HD
ENDBRANCH  15  16
BRANCH  15  18
ATOM     18  CA  UNL     1       1.418   3.200  20.068  0.00  0.00    +0.000 C 
BRANCH  18  19
ATOM     19  N   UNL     1       0.011   2.927  19.708  0.00  0.00    +0.000 NA
ATOM     20  H1  UNL     1      -0.068   1.953  19.410  0.00  0.00    +0.000 HD
ATOM     21  H2  UNL     1      -0.307   3.477  18.917  0.00  0.00    +0.000 HD
ENDBRANCH  18  19
BRANCH  18  22
ATOM     22  C   UNL     1       1.592   2.864  21.575  0.00  0.00    +0.000 C 
BRANCH  22  23
ATOM     23  O   UNL     1       2.924   2.449  21.885  0.00  0.00    +0.000 OA
ATOM     24  H   UNL     1       2.934   1.477  21.883  0.00  0.00    +0.000 HD
ENDBRANCH  22  23
ENDBRANCH  18  22
ENDBRANCH  15  18
ENDBRANCH   1  15
TORSDOF 14
ENDMDL
MODEL 2
REMARK VINA RESULT:      -5.9      1.557      2.570
REMARK  Name = 
REMARK  16 active torsions:
REMARK  status: ('A' for Active; 'I' for Inactive)
REMARK    1  A    between atoms: C_1  and  O_2
REMARK    2  A    between atoms: O_2  and  P_3
REMARK    3  A    between atoms: P_3  and  O_5
REMARK    4  A    between atoms: P_3  and  O_7
REMARK    5  A    between atoms: O_5  and  C_6
REMARK    6  A    between atoms: O_7  and  C_8
REMARK    7  A    between atoms: C_8  and  C_9
REMARK    8  A    between atoms: C_9  and  O_10
REMARK    9  A    between atoms: C_9  and  C_11
REMARK   10  A    between atoms: C_11  and  O_12
REMARK   11  A    between atoms: C_11  and  C_13
REMARK   12  A    between atoms: C_13  and  O_14
REMARK   13  A    between atoms: C_13  and  CA_15
REMARK   14  A    between atoms: CA_15  and  N_16
REMARK   15  A    between atoms: CA_15  and  C_17
REMARK   16  A    between atoms: C_17  and  O_18
REMARK                            x       y       z     vdW  Elec       q    Type
REMARK                         _______ _______ _______ _____ _____    ______ ____
ROOT
ATOM      1  C   UNL     1       4.015   2.819  19.708  0.00  0.00    +0.000 C 
ENDROOT
BRANCH   1   2
ATOM      2  O   UNL     1       5.062   1.838  19.866  0.00  0.00    +0.000 OA
ATOM      3  H   UNL     1       4.727   1.028  19.431  0.00  0.00    +0.000 HD
ENDBRANCH   1   2
BRANCH   1   4
ATOM      4  C   UNL     1       4.328   3.674  18.455  0.00  0.00    +0.000 C 
BRANCH   4   5
ATOM      5  O   UNL     1       4.665   2.834  17.348  0.00  0.00    +0.000 OA
ATOM      6  H   UNL     1       5.212   3.381  16.746  0.00  0.00    +0.000 HD
ENDBRANCH   4   5
BRANCH   4   7
ATOM      7  C   UNL     1       5.455   4.659  18.755  0.00  0.00    +0.000 C 
BRANCH   7   8
ATOM      8  O   UNL     1       6.416   4.695  17.676  0.00  0.00    +0.000 OA
BRANCH   8   9
ATOM      9  P   UNL     1       7.019   6.273  17.302  0.00  0.00    +0.000 P 
ATOM     10  O   UNL     1       5.583   6.816  17.308  0.00  0.00    +0.000 OA
BRANCH   9  12
ATOM     11  C   UNL     1       8.139   8.625  17.992  0.00  0.00    +0.000 C 
ATOM     12  O   UNL     1       7.622   7.851  16.929  0.00  0.00    +0.000 OA
ENDBRANCH   9  12
BRANCH   9  13
ATOM     13  O   UNL     1       7.465   5.811  15.784  0.00  0.00    +0.000 OA
ATOM     14  C   UNL     1       6.933   4.608  15.244  0.00  0.00    +0.000 C 
ENDBRANCH   9  13
ENDBRANCH   8   9
ENDBRANCH   7   8
ENDBRANCH   4   7
ENDBRANCH   1   4
BRANCH   1  15
ATOM     15  C   UNL     1       2.672   2.052  19.728  0.00  0.00    +0.000 C 
BRANCH  15  16
ATOM     16  O   UNL     1       2.138   1.941  18.406  0.00  0.00    +0.000 OA
ATOM     17  H   UNL     1       1.348   2.516  18.368  0.00  0.00    +0.000 HD
ENDBRANCH  15  16
BRANCH  15  18
ATOM     18  CA  UNL     1       1.591   2.575  20.706  0.00  0.00    +0.000 C 
BRANCH  18  19
ATOM     19  N   UNL     1       2.048   2.910  22.071  0.00  0.00    +0.000 NA
ATOM     20  H1  UNL     1       1.906   3.909  22.227  0.00  0.00    +0.000 HD
ATOM     21  H2  UNL     1       3.042   2.756  22.203  0.00  0.00    +0.000 HD
ENDBRANCH  18  19
BRANCH  18  22
ATOM     22  C   UNL     1       0.942   3.850  20.100  0.00  0.00    +0.000 C 
BRANCH  22  23
ATOM     23  O   UNL     1       1.434   5.046  20.709  0.00  0.00    +0.000 OA
ATOM     24  H   UNL     1       0.742   5.722  20.623  0.00  0.00    +0.000 HD
ENDBRANCH  22  23
ENDBRANCH  18  22
ENDBRANCH  15  18
ENDBRANCH   1  15
TORSDOF 14
ENDMDL
MODEL 3
REMARK VINA RESULT:      -5.8      3.139      6.140
REMARK  Name = 
REMARK  16 active torsions:
REMARK  status: ('A' for Active; 'I' for Inactive)
REMARK    1  A    between atoms: C_1  and  O_2
REMARK    2  A    between atoms: O_2  and  P_3
REMARK    3  A    between atoms: P_3  and  O_5
REMARK    4  A    between atoms: P_3  and  O_7
REMARK    5  A    between atoms: O_5  and  C_6
REMARK    6  A    between atoms: O_7  and  C_8
REMARK    7  A    between atoms: C_8  and  C_9
REMARK    8  A    between atoms: C_9  and  O_10
REMARK    9  A    between atoms: C_9  and  C_11
REMARK   10  A    between atoms: C_11  and  O_12
REMARK   11  A    between atoms: C_11  and  C_13
REMARK   12  A    between atoms: C_13  and  O_14
REMARK   13  A    between atoms: C_13  and  CA_15
REMARK   14  A    between atoms: CA_15  and  N_16
REMARK   15  A    between atoms: CA_15  and  C_17
REMARK   16  A    between atoms: C_17  and  O_18
REMARK                            x       y       z     vdW  Elec       q    Type
REMARK                         _______ _______ _______ _____ _____    ______ ____
ROOT
ATOM      1  C   UNL     1       5.283   5.756  16.739  0.00  0.00    +0.000 C 
ENDROOT
BRANCH   1   2
ATOM      2  O   UNL     1       3.948   5.667  17.282  0.00  0.00    +0.000 OA
ATOM      3  H   UNL     1       3.396   5.308  16.559  0.00  0.00    +0.000 HD
ENDBRANCH   1   2
BRANCH   1   4
ATOM      4  C   UNL     1       6.292   5.763  17.913  0.00  0.00    +0.000 C 
BRANCH   4   5
ATOM      5  O   UNL     1       7.463   5.016  17.572  0.00  0.00    +0.000 OA
ATOM      6  H   UNL     1       8.226   5.594  17.782  0.00  0.00    +0.000 HD
ENDBRANCH   4   5
BRANCH   4   7
ATOM      7  C   UNL     1       5.638   5.206  19.176  0.00  0.00    +0.000 C 
BRANCH   7   8
ATOM      8  O   UNL     1       5.625   3.761  19.161  0.00  0.00    +0.000 OA
BRANCH   8   9
ATOM      9  P   UNL     1       4.130   3.050  19.665  0.00  0.00    +0.000 P 
ATOM     10  O   UNL     1       4.909   1.940  20.385  0.00  0.00    +0.000 OA
BRANCH   9  12
ATOM     11  C   UNL     1       2.115   2.726  21.425  0.00  0.00    +0.000 C 
ATOM     12  O   UNL     1       2.636   2.340  20.169  0.00  0.00    +0.000 OA
ENDBRANCH   9  12
BRANCH   9  13
ATOM     13  O   UNL     1       3.754   2.598  18.125  0.00  0.00    +0.000 OA
ATOM     14  C   UNL     1       2.388   2.563  17.730  0.00  0.00    +0.000 C 
ENDBRANCH   9  13
ENDBRANCH   8   9
ENDBRANCH   7   8
ENDBRANCH   4   7
ENDBRANCH   1   4
BRANCH   1  15
ATOM     15  C   UNL     1       5.419   4.625  15.692  0.00  0.00    +0.000 C 
BRANCH  15  16
ATOM     16  O   UNL     1       5.878   3.421  16.312  0.00  0.00    +0.000 OA
ATOM     17  H   UNL     1       5.437   3.361  17.182  0.00  0.00    +0.000 HD
ENDBRANCH  15  16
BRANCH  15  18
ATOM     18  CA  UNL     1       6.265   4.943  14.435  0.00  0.00    +0.000 C 
BRANCH  18  19
ATOM     19  N   UNL     1       7.678   5.310  14.672  0.00  0.00    +0.000 NA
ATOM     20  H1  UNL     1       8.254   4.472  14.577  0.00  0.00    +0.000 HD
ATOM     21  H2  UNL     1       7.845   5.646  15.615  0.00  0.00    +0.000 HD
ENDBRANCH  18  19
BRANCH  18  22
ATOM     22  C   UNL     1       6.251   3.706  13.496  0.00  0.00    +0.000 C 
BRANCH  22  23
ATOM     23  O   UNL     1       5.078   3.662  12.681  0.00  0.00    +0.000 OA
ATOM     24  H   UNL     1       5.261   4.178  11.878  0.00  0.00    +0.000 HD
ENDBRANCH  22  23
ENDBRANCH  18  22
ENDBRANCH  15  18
ENDBRANCH   1  15
TORSDOF 14
ENDMDL
MODEL 4
REMARK VINA RESULT:      -5.7      1.540      2.150
REMARK  Name = 
REMARK  16 active torsions:
REMARK  status: ('A' for Active; 'I' for Inactive)
REMARK    1  A    between atoms: C_1  and  O_2
REMARK    2  A    between atoms: O_2  and  P_3
REMARK    3  A    between atoms: P_3  and  O_5
REMARK    4  A    between atoms: P_3  and  O_7
REMARK    5  A    between atoms: O_5  and  C_6
REMARK    6  A    between atoms: O_7  and  C_8
REMARK    7  A    between atoms: C_8  and  C_9
REMARK    8  A    between atoms: C_9  and  O_10
REMARK    9  A    between atoms: C_9  and  C_11
REMARK   10  A    between atoms: C_11  and  O_12
REMARK   11  A    between atoms: C_11  and  C_13
REMARK   12  A    between atoms: C_13  and  O_14
REMARK   13  A    between atoms: C_13  and  CA_15
REMARK   14  A    between atoms: CA_15  and  N_16
REMARK   15  A    between atoms: CA_15  and  C_17
REMARK   16  A    between atoms: C_17  and  O_18
REMARK                            x       y       z     vdW  Elec       q    Type
REMARK                         _______ _______ _______ _____ _____    ______ ____
ROOT
ATOM      1  C   UNL     1       4.371   3.719  19.657  0.00  0.00    +0.000 C 
ENDROOT
BRANCH   1   2
ATOM      2  O   UNL     1       5.518   3.236  18.924  0.00  0.00    +0.000 OA
ATOM      3  H   UNL     1       5.153   2.679  18.207  0.00  0.00    +0.000 HD
ENDBRANCH   1   2
BRANCH   1   4
ATOM      4  C   UNL     1       4.393   5.267  19.637  0.00  0.00    +0.000 C 
BRANCH   4   5
ATOM      5  O   UNL     1       3.116   5.790  20.012  0.00  0.00    +0.000 OA
ATOM      6  H   UNL     1       2.580   5.818  19.191  0.00  0.00    +0.000 HD
ENDBRANCH   4   5
BRANCH   4   7
ATOM      7  C   UNL     1       4.806   5.772  18.256  0.00  0.00    +0.000 C 
BRANCH   7   8
ATOM      8  O   UNL     1       6.232   5.996  18.189  0.00  0.00    +0.000 OA
BRANCH   8   9
ATOM      9  P   UNL     1       6.976   5.458  16.722  0.00  0.00    +0.000 P 
ATOM     10  O   UNL     1       7.900   4.541  17.536  0.00  0.00    +0.000 OA
BRANCH   9  12
ATOM     11  C   UNL     1       6.889   4.741  14.126  0.00  0.00    +0.000 C 
ATOM     12  O   UNL     1       7.719   4.919  15.256  0.00  0.00    +0.000 OA
ENDBRANCH   9  12
BRANCH   9  13
ATOM     13  O   UNL     1       7.680   6.926  16.468  0.00  0.00    +0.000 OA
ATOM     14  C   UNL     1       7.751   7.853  17.544  0.00  0.00    +0.000 C 
ENDBRANCH   9  13
ENDBRANCH   8   9
ENDBRANCH   7   8
ENDBRANCH   4   7
ENDBRANCH   1   4
BRANCH   1  15
ATOM     15  C   UNL     1       3.129   3.017  19.061  0.00  0.00    +0.000 C 
BRANCH  15  16
ATOM     16  O   UNL     1       2.540   3.824  18.036  0.00  0.00    +0.000 OA
ATOM     17  H   UNL     1       3.258   4.071  17.420  0.00  0.00    +0.000 HD
ENDBRANCH  15  16
BRANCH  15  18
ATOM     18  CA  UNL     1       2.049   2.549  20.067  0.00  0.00    +0.000 C 
BRANCH  18  19
ATOM     19  N   UNL     1       2.080   3.180  21.404  0.00  0.00    +0.000 NA
ATOM     20  H1  UNL     1       1.447   2.670  22.021  0.00  0.00    +0.000 HD
ATOM     21  H2  UNL     1       1.738   4.135  21.396  0.00  0.00    +0.000 HD
ENDBRANCH  18  19
BRANCH  18  22
ATOM     22  C   UNL     1       0.646   2.814  19.455  0.00  0.00    +0.000 C 
BRANCH  22  23
ATOM     23  O   UNL     1       0.351   1.922  18.377  0.00  0.00    +0.000 OA
ATOM     24  H   UNL     1      -0.361   2.325  17.852  0.00  0.00    +0.000 HD
ENDBRANCH  22  23
ENDBRANCH  18  22
ENDBRANCH  15  18
ENDBRANCH   1  15
TORSDOF 14
ENDMDL
MODEL 5
REMARK VINA RESULT:      -5.7      1.357      1.707
REMARK  Name = 
REMARK  16 active torsions:
REMARK  status: ('A' for Active; 'I' for Inactive)
REMARK    1  A    between atoms: C_1  and  O_2
REMARK    2  A    between atoms: O_2  and  P_3
REMARK    3  A    between atoms: P_3  and  O_5
REMARK    4  A    between atoms: P_3  and  O_7
REMARK    5  A    between atoms: O_5  and  C_6
REMARK    6  A    between atoms: O_7  and  C_8
REMARK    7  A    between atoms: C_8  and  C_9
REMARK    8  A    between atoms: C_9  and  O_10
REMARK    9  A    between atoms: C_9  and  C_11
REMARK   10  A    between atoms: C_11  and  O_12
REMARK   11  A    between atoms: C_11  and  C_13
REMARK   12  A    between atoms: C_13  and  O_14
REMARK   13  A    between atoms: C_13  and  CA_15
REMARK   14  A    between atoms: CA_15  and  N_16
REMARK   15  A    between atoms: CA_15  and  C_17
REMARK   16  A    between atoms: C_17  and  O_18
REMARK                            x       y       z     vdW  Elec       q    Type
REMARK                         _______ _______ _______ _____ _____    ______ ____
ROOT
ATOM      1  C   UNL     1       2.984   2.529  18.726  0.00  0.00    +0.000 C 
ENDROOT
BRANCH   1   2
ATOM      2  O   UNL     1       2.158   2.110  17.618  0.00  0.00    +0.000 OA
ATOM      3  H   UNL     1       2.783   1.844  16.913  0.00  0.00    +0.000 HD
ENDBRANCH   1   2
BRANCH   1   4
ATOM      4  C   UNL     1       4.435   2.708  18.216  0.00  0.00    +0.000 C 
BRANCH   4   5
ATOM      5  O   UNL     1       5.330   2.914  19.313  0.00  0.00    +0.000 OA
ATOM      6  H   UNL     1       5.943   2.150  19.312  0.00  0.00    +0.000 HD
ENDBRANCH   4   5
BRANCH   4   7
ATOM      7  C   UNL     1       4.508   3.870  17.226  0.00  0.00    +0.000 C 
BRANCH   7   8
ATOM      8  O   UNL     1       5.634   4.729  17.515  0.00  0.00    +0.000 OA
BRANCH   8   9
ATOM      9  P   UNL     1       6.687   5.011  16.172  0.00  0.00    +0.000 P 
ATOM     10  O   UNL     1       7.844   4.370  16.952  0.00  0.00    +0.000 OA
BRANCH   9  12
ATOM     11  C   UNL     1       7.286   4.904  13.546  0.00  0.00    +0.000 C 
ATOM     12  O   UNL     1       7.739   5.292  14.828  0.00  0.00    +0.000 OA
ENDBRANCH   9  12
BRANCH   9  13
ATOM     13  O   UNL     1       6.652   6.641  16.407  0.00  0.00    +0.000 OA
ATOM     14  C   UNL     1       7.383   7.198  17.492  0.00  0.00    +0.000 C 
ENDBRANCH   9  13
ENDBRANCH   8   9
ENDBRANCH   7   8
ENDBRANCH   4   7
ENDBRANCH   1   4
BRANCH   1  15
ATOM     15  C   UNL     1       2.296   3.761  19.358  0.00  0.00    +0.000 C 
BRANCH  15  16
ATOM     16  O   UNL     1       3.249   4.559  20.067  0.00  0.00    +0.000 OA
ATOM     17  H   UNL     1       2.743   5.137  20.672  0.00  0.00    +0.000 HD
ENDBRANCH  15  16
BRANCH  15  18
ATOM     18  CA  UNL     1       1.058   3.483  20.246  0.00  0.00    +0.000 C 
BRANCH  18  19
ATOM     19  N   UNL     1      -0.090   2.828  19.583  0.00  0.00    +0.000 NA
ATOM     20  H1  UNL     1       0.168   2.613  18.619  0.00  0.00    +0.000 HD
ATOM     21  H2  UNL     1      -0.903   3.432  19.517  0.00  0.00    +0.000 HD
ENDBRANCH  18  19
BRANCH  18  22
ATOM     22  C   UNL     1       1.488   2.584  21.438  0.00  0.00    +0.000 C 
BRANCH  22  23
ATOM     23  O   UNL     1       2.408   3.247  22.308  0.00  0.00    +0.000 OA
ATOM     24  H   UNL     1       2.341   4.200  22.131  0.00  0.00    +0.000 HD
ENDBRANCH  22  23
ENDBRANCH  18  22
ENDBRANCH  15  18
ENDBRANCH   1  15
TORSDOF 14
ENDMDL
MODEL 6
REMARK VINA RESULT:      -5.7      2.631      6.141
REMARK  Name = 
REMARK  16 active torsions:
REMARK  status: ('A' for Active; 'I' for Inactive)
REMARK    1  A    between atoms: C_1  and  O_2
REMARK    2  A    between atoms: O_2  and  P_3
REMARK    3  A    between atoms: P_3  and  O_5
REMARK    4  A    between atoms: P_3  and  O_7
REMARK    5  A    between atoms: O_5  and  C_6
REMARK    6  A    between atoms: O_7  and  C_8
REMARK    7  A    between atoms: C_8  and  C_9
REMARK    8  A    between atoms: C_9  and  O_10
REMARK    9  A    between atoms: C_9  and  C_11
REMARK   10  A    between atoms: C_11  and  O_12
REMARK   11  A    between atoms: C_11  and  C_13
REMARK   12  A    between atoms: C_13  and  O_14
REMARK   13  A    between atoms: C_13  and  CA_15
REMARK   14  A    between atoms: CA_15  and  N_16
REMARK   15  A    between atoms: CA_15  and  C_17
REMARK   16  A    between atoms: C_17  and  O_18
REMARK                            x       y       z     vdW  Elec       q    Type
REMARK                         _______ _______ _______ _____ _____    ______ ____
ROOT
ATOM      1  C   UNL     1       7.016   4.527  17.580  0.00  0.00    +0.000 C 
ENDROOT
BRANCH   1   2
ATOM      2  O   UNL     1       8.355   4.010  17.743  0.00  0.00    +0.000 OA
ATOM      3  H   UNL     1       8.908   4.785  17.967  0.00  0.00    +0.000 HD
ENDBRANCH   1   2
BRANCH   1   4
ATOM      4  C   UNL     1       6.683   5.421  18.800  0.00  0.00    +0.000 C 
BRANCH   4   5
ATOM      5  O   UNL     1       7.714   5.325  19.787  0.00  0.00    +0.000 OA
ATOM      6  H   UNL     1       8.437   4.806  19.377  0.00  0.00    +0.000 HD
ENDBRANCH   4   5
BRANCH   4   7
ATOM      7  C   UNL     1       5.328   5.031  19.386  0.00  0.00    +0.000 C 
BRANCH   7   8
ATOM      8  O   UNL     1       5.195   3.595  19.480  0.00  0.00    +0.000 OA
BRANCH   8   9
ATOM      9  P   UNL     1       3.578   3.038  19.743  0.00  0.00    +0.000 P 
ATOM     10  O   UNL     1       3.924   1.721  19.035  0.00  0.00    +0.000 OA
BRANCH   9  12
ATOM     11  C   UNL     1       1.367   2.760  21.258  0.00  0.00    +0.000 C 
ATOM     12  O   UNL     1       1.962   2.482  20.007  0.00  0.00    +0.000 OA
ENDBRANCH   9  12
BRANCH   9  13
ATOM     13  O   UNL     1       2.961   4.133  18.677  0.00  0.00    +0.000 OA
ATOM     14  C   UNL     1       2.163   3.669  17.595  0.00  0.00    +0.000 C 
ENDBRANCH   9  13
ENDBRANCH   8   9
ENDBRANCH   7   8
ENDBRANCH   4   7
ENDBRANCH   1   4
BRANCH   1  15
ATOM     15  C   UNL     1       6.955   5.183  16.181  0.00  0.00    +0.000 C 
BRANCH  15  16
ATOM     16  O   UNL     1       7.658   6.430  16.180  0.00  0.00    +0.000 OA
ATOM     17  H   UNL     1       7.159   7.038  16.760  0.00  0.00    +0.000 HD
ENDBRANCH  15  16
BRANCH  15  18
ATOM     18  CA  UNL     1       5.548   5.355  15.557  0.00  0.00    +0.000 C 
BRANCH  18  19
ATOM     19  N   UNL     1       5.147   6.737  15.215  0.00  0.00    +0.000 NA
ATOM     20  H1  UNL     1       5.675   7.037  14.394  0.00  0.00    +0.000 HD
ATOM     21  H2  UNL     1       5.378   7.405  15.943  0.00  0.00    +0.000 HD
ENDBRANCH  18  19
BRANCH  18  22
ATOM     22  C   UNL     1       5.470   4.507  14.258  0.00  0.00    +0.000 C 
BRANCH  22  23
ATOM     23  O   UNL     1       6.361   3.390  14.289  0.00  0.00    +0.000 OA
ATOM     24  H   UNL     1       7.267   3.740  14.283  0.00  0.00    +0.000 HD
ENDBRANCH  22  23
ENDBRANCH  18  22
ENDBRANCH  15  18
ENDBRANCH   1  15
TORSDOF 14
ENDMDL
MODEL 7
REMARK VINA RESULT:      -5.7      2.978      6.405
REMARK  Name = 
REMARK  16 active torsions:
REMARK  status: ('A' for Active; 'I' for Inactive)
REMARK    1  A    between atoms: C_1  and  O_2
REMARK    2  A    between atoms: O_2  and  P_3
REMARK    3  A    between atoms: P_3  and  O_5
REMARK    4  A    between atoms: P_3  and  O_7
REMARK    5  A    between atoms: O_5  and  C_6
REMARK    6  A    between atoms: O_7  and  C_8
REMARK    7  A    between atoms: C_8  and  C_9
REMARK    8  A    between atoms: C_9  and  O_10
REMARK    9  A    between atoms: C_9  and  C_11
REMARK   10  A    between atoms: C_11  and  O_12
REMARK   11  A    between atoms: C_11  and  C_13
REMARK   12  A    between atoms: C_13  and  O_14
REMARK   13  A    between atoms: C_13  and  CA_15
REMARK   14  A    between atoms: CA_15  and  N_16
REMARK   15  A    between atoms: CA_15  and  C_17
REMARK   16  A    between atoms: C_17  and  O_18
REMARK                            x       y       z     vdW  Elec       q    Type
REMARK                         _______ _______ _______ _____ _____    ______ ____
ROOT
ATOM      1  C   UNL     1       5.983   3.980  17.498  0.00  0.00    +0.000 C 
ENDROOT
BRANCH   1   2
ATOM      2  O   UNL     1       5.510   3.669  18.826  0.00  0.00    +0.000 OA
ATOM      3  H   UNL     1       6.172   3.054  19.201  0.00  0.00    +0.000 HD
ENDBRANCH   1   2
BRANCH   1   4
ATOM      4  C   UNL     1       4.813   4.594  16.691  0.00  0.00    +0.000 C 
BRANCH   4   5
ATOM      5  O   UNL     1       5.202   5.846  16.118  0.00  0.00    +0.000 OA
ATOM      6  H   UNL     1       6.099   6.037  16.464  0.00  0.00    +0.000 HD
ENDBRANCH   4   5
BRANCH   4   7
ATOM      7  C   UNL     1       3.585   4.760  17.584  0.00  0.00    +0.000 C 
BRANCH   7   8
ATOM      8  O   UNL     1       2.880   3.508  17.738  0.00  0.00    +0.000 OA
BRANCH   8   9
ATOM      9  P   UNL     1       1.920   3.395  19.173  0.00  0.00    +0.000 P 
ATOM     10  O   UNL     1       0.809   2.708  18.367  0.00  0.00    +0.000 OA
BRANCH   9  12
ATOM     11  C   UNL     1       1.481   2.531  21.687  0.00  0.00    +0.000 C 
ATOM     12  O   UNL     1       0.961   3.281  20.608  0.00  0.00    +0.000 OA
ENDBRANCH   9  12
BRANCH   9  13
ATOM     13  O   UNL     1       1.688   5.026  19.221  0.00  0.00    +0.000 OA
ATOM     14  C   UNL     1       1.882   5.715  20.450  0.00  0.00    +0.000 C 
ENDBRANCH   9  13
ENDBRANCH   8   9
ENDBRANCH   7   8
ENDBRANCH   4   7
ENDBRANCH   1   4
BRANCH   1  15
ATOM     15  C   UNL     1       7.259   4.838  17.665  0.00  0.00    +0.000 C 
BRANCH  15  16
ATOM     16  O   UNL     1       8.411   4.001  17.805  0.00  0.00    +0.000 OA
ATOM     17  H   UNL     1       8.088   3.104  18.019  0.00  0.00    +0.000 HD
ENDBRANCH  15  16
BRANCH  15  18
ATOM     18  CA  UNL     1       7.231   5.911  18.780  0.00  0.00    +0.000 C 
BRANCH  18  19
ATOM     19  N   UNL     1       7.882   5.547  20.057  0.00  0.00    +0.000 NA
ATOM     20  H1  UNL     1       7.234   4.979  20.605  0.00  0.00    +0.000 HD
ATOM     21  H2  UNL     1       8.091   6.353  20.636  0.00  0.00    +0.000 HD
ENDBRANCH  18  19
BRANCH  18  22
ATOM     22  C   UNL     1       7.918   7.200  18.252  0.00  0.00    +0.000 C 
BRANCH  22  23
ATOM     23  O   UNL     1       7.825   7.316  16.831  0.00  0.00    +0.000 OA
ATOM     24  H   UNL     1       7.023   7.828  16.632  0.00  0.00    +0.000 HD
ENDBRANCH  22  23
ENDBRANCH  18  22
ENDBRANCH  15  18
ENDBRANCH   1  15
TORSDOF 14
ENDMDL
MODEL 8
REMARK VINA RESULT:      -5.5      1.548      1.886
REMARK  Name = 
REMARK  16 active torsions:
REMARK  status: ('A' for Active; 'I' for Inactive)
REMARK    1  A    between atoms: C_1  and  O_2
REMARK    2  A    between atoms: O_2  and  P_3
REMARK    3  A    between atoms: P_3  and  O_5
REMARK    4  A    between atoms: P_3  and  O_7
REMARK    5  A    between atoms: O_5  and  C_6
REMARK    6  A    between atoms: O_7  and  C_8
REMARK    7  A    between atoms: C_8  and  C_9
REMARK    8  A    between atoms: C_9  and  O_10
REMARK    9  A    between atoms: C_9  and  C_11
REMARK   10  A    between atoms: C_11  and  O_12
REMARK   11  A    between atoms: C_11  and  C_13
REMARK   12  A    between atoms: C_13  and  O_14
REMARK   13  A    between atoms: C_13  and  CA_15
REMARK   14  A    between atoms: CA_15  and  N_16
REMARK   15  A    between atoms: CA_15  and  C_17
REMARK   16  A    between atoms: C_17  and  O_18
REMARK                            x       y       z     vdW  Elec       q    Type
REMARK                         _______ _______ _______ _____ _____    ______ ____
ROOT
ATOM      1  C   UNL     1       4.005   3.435  19.436  0.00  0.00    +0.000 C 
ENDROOT
BRANCH   1   2
ATOM      2  O   UNL     1       5.325   2.863  19.316  0.00  0.00    +0.000 OA
ATOM      3  H   UNL     1       5.880   3.348  19.959  0.00  0.00    +0.000 HD
ENDBRANCH   1   2
BRANCH   1   4
ATOM      4  C   UNL     1       3.729   4.301  18.183  0.00  0.00    +0.000 C 
BRANCH   4   5
ATOM      5  O   UNL     1       3.999   3.558  16.991  0.00  0.00    +0.000 OA
ATOM      6  H   UNL     1       3.167   3.092  16.765  0.00  0.00    +0.000 HD
ENDBRANCH   4   5
BRANCH   4   7
ATOM      7  C   UNL     1       4.564   5.580  18.229  0.00  0.00    +0.000 C 
BRANCH   7   8
ATOM      8  O   UNL     1       5.976   5.282  18.151  0.00  0.00    +0.000 OA
BRANCH   8   9
ATOM      9  P   UNL     1       6.671   5.496  16.582  0.00  0.00    +0.000 P 
ATOM     10  O   UNL     1       7.830   4.570  16.976  0.00  0.00    +0.000 OA
BRANCH   9  12
ATOM     11  C   UNL     1       7.101   4.721  14.036  0.00  0.00    +0.000 C 
ATOM     12  O   UNL     1       7.365   5.709  15.012  0.00  0.00    +0.000 OA
ENDBRANCH   9  12
BRANCH   9  13
ATOM     13  O   UNL     1       7.045   7.070  16.893  0.00  0.00    +0.000 OA
ATOM     14  C   UNL     1       7.853   7.378  18.023  0.00  0.00    +0.000 C 
ENDBRANCH   9  13
ENDBRANCH   8   9
ENDBRANCH   7   8
ENDBRANCH   4   7
ENDBRANCH   1   4
BRANCH   1  15
ATOM     15  C   UNL     1       3.033   2.267  19.721  0.00  0.00    +0.000 C 
BRANCH  15  16
ATOM     16  O   UNL     1       2.449   1.793  18.504  0.00  0.00    +0.000 OA
ATOM     17  H   UNL     1       2.179   0.866  18.659  0.00  0.00    +0.000 HD
ENDBRANCH  15  16
BRANCH  15  18
ATOM     18  CA  UNL     1       1.936   2.522  20.784  0.00  0.00    +0.000 C 
BRANCH  18  19
ATOM     19  N   UNL     1       2.406   2.900  22.134  0.00  0.00    +0.000 NA
ATOM     20  H1  UNL     1       1.598   2.974  22.753  0.00  0.00    +0.000 HD
ATOM     21  H2  UNL     1       2.847   3.814  22.156  0.00  0.00    +0.000 HD
ENDBRANCH  18  19
BRANCH  18  22
ATOM     22  C   UNL     1       1.002   3.655  20.277  0.00  0.00    +0.000 C 
BRANCH  22  23
ATOM     23  O   UNL     1       1.303   4.914  20.884  0.00  0.00    +0.000 OA
ATOM     24  H   UNL     1       2.271   4.992  20.928  0.00  0.00    +0.000 HD
ENDBRANCH  22  23
ENDBRANCH  18  22
ENDBRANCH  15  18
ENDBRANCH   1  15
TORSDOF 14
ENDMDL
MODEL 9
REMARK VINA RESULT:      -5.5      1.958      2.879
REMARK  Name = 
REMARK  16 active torsions:
REMARK  status: ('A' for Active; 'I' for Inactive)
REMARK    1  A    between atoms: C_1  and  O_2
REMARK    2  A    between atoms: O_2  and  P_3
REMARK    3  A    between atoms: P_3  and  O_5
REMARK    4  A    between atoms: P_3  and  O_7
REMARK    5  A    between atoms: O_5  and  C_6
REMARK    6  A    between atoms: O_7  and  C_8
REMARK    7  A    between atoms: C_8  and  C_9
REMARK    8  A    between atoms: C_9  and  O_10
REMARK    9  A    between atoms: C_9  and  C_11
REMARK   10  A    between atoms: C_11  and  O_12
REMARK   11  A    between atoms: C_11  and  C_13
REMARK   12  A    between atoms: C_13  and  O_14
REMARK   13  A    between atoms: C_13  and  CA_15
REMARK   14  A    between atoms: CA_15  and  N_16
REMARK   15  A    between atoms: CA_15  and  C_17
REMARK   16  A    between atoms: C_17  and  O_18
REMARK                            x       y       z     vdW  Elec       q    Type
REMARK                         _______ _______ _______ _____ _____    ______ ____
ROOT
ATOM      1  C   UNL     1       3.206   4.242  19.676  0.00  0.00    +0.000 C 
ENDROOT
BRANCH   1   2
ATOM      2  O   UNL     1       2.600   4.158  20.984  0.00  0.00    +0.000 OA
ATOM      3  H   UNL     1       1.739   3.714  20.844  0.00  0.00    +0.000 HD
ENDBRANCH   1   2
BRANCH   1   4
ATOM      4  C   UNL     1       3.917   5.611  19.552  0.00  0.00    +0.000 C 
BRANCH   4   5
ATOM      5  O   UNL     1       3.048   6.667  19.969  0.00  0.00    +0.000 OA
ATOM      6  H   UNL     1       3.414   7.491  19.583  0.00  0.00    +0.000 HD
ENDBRANCH   4   5
BRANCH   4   7
ATOM      7  C   UNL     1       4.394   5.832  18.117  0.00  0.00    +0.000 C 
BRANCH   7   8
ATOM      8  O   UNL     1       5.810   6.119  18.078  0.00  0.00    +0.000 OA
BRANCH   8   9
ATOM      9  P   UNL     1       6.646   5.434  16.727  0.00  0.00    +0.000 P 
ATOM     10  O   UNL     1       7.281   4.392  17.657  0.00  0.00    +0.000 OA
BRANCH   9  12
ATOM     11  C   UNL     1       6.780   4.647  14.153  0.00  0.00    +0.000 C 
ATOM     12  O   UNL     1       7.481   4.749  15.376  0.00  0.00    +0.000 OA
ENDBRANCH   9  12
BRANCH   9  13
ATOM     13  O   UNL     1       7.617   6.757  16.578  0.00  0.00    +0.000 OA
ATOM     14  C   UNL     1       7.563   7.770  17.576  0.00  0.00    +0.000 C 
ENDBRANCH   9  13
ENDBRANCH   8   9
ENDBRANCH   7   8
ENDBRANCH   4   7
ENDBRANCH   1   4
BRANCH   1  15
ATOM     15  C   UNL     1       4.072   2.973  19.499  0.00  0.00    +0.000 C 
BRANCH  15  16
ATOM     16  O   UNL     1       5.462   3.301  19.563  0.00  0.00    +0.000 OA
ATOM     17  H   UNL     1       5.929   2.504  19.883  0.00  0.00    +0.000 HD
ENDBRANCH  15  16
BRANCH  15  18
ATOM     18  CA  UNL     1       3.779   2.102  18.253  0.00  0.00    +0.000 C 
BRANCH  18  19
ATOM     19  N   UNL     1       4.028   0.651  18.393  0.00  0.00    +0.000 NA
ATOM     20  H1  UNL     1       3.517   0.309  19.207  0.00  0.00    +0.000 HD
ATOM     21  H2  UNL     1       5.002   0.435  18.575  0.00  0.00    +0.000 HD
ENDBRANCH  18  19
BRANCH  18  22
ATOM     22  C   UNL     1       2.289   2.287  17.852  0.00  0.00    +0.000 C 
BRANCH  22  23
ATOM     23  O   UNL     1       2.138   3.158  16.728  0.00  0.00    +0.000 OA
ATOM     24  H   UNL     1       1.213   3.095  16.434  0.00  0.00    +0.000 HD
ENDBRANCH  22  23
ENDBRANCH  18  22
ENDBRANCH  15  18
ENDBRANCH   1  15
TORSDOF 14
ENDMDL
