MODEL 1
REMARK VINA RESULT:      -7.9      0.000      0.000
REMARK  Name = 
REMARK  4 active torsions:
REMARK  status: ('A' for Active; 'I' for Inactive)
REMARK    1  A    between atoms: N_1  and  C_2
REMARK    2  A    between atoms: C_5  and  N_6
REMARK    3  A    between atoms: N_6  and  C_7
REMARK    4  A    between atoms: C_9  and  C_10
REMARK                            x       y       z     vdW  Elec       q    Type
REMARK                         _______ _______ _______ _____ _____    ______ ____
ROOT
ATOM      1  C   UNL     1       2.366   4.256  19.252  0.00  0.00    +0.000 C 
ATOM      2  C   UNL     1       1.384   4.368  20.380  0.00  0.00    +0.000 C 
ATOM      3  C   UNL     1       2.471   5.397  20.249  0.00  0.00    +0.000 C 
ENDROOT
BRANCH   3   4
ATOM      4  C   UNL     1       2.195   6.827  19.850  0.00  0.00    +0.000 A 
ATOM      5  C   UNL     1       2.487   7.300  18.561  0.00  0.00    +0.000 A 
ATOM      6  C   UNL     1       2.056   8.561  18.129  0.00  0.00    +0.000 A 
ATOM      7  C   UNL     1       1.307   9.394  18.974  0.00  0.00    +0.000 A 
ATOM      8  C   UNL     1       0.802  10.635  18.546  0.00  0.00    +0.000 A 
ATOM      9  C   UNL     1       0.037  11.429  19.404  0.00  0.00    +0.000 A 
ATOM     10  C   UNL     1      -0.220  11.001  20.701  0.00  0.00    +0.000 A 
ATOM     11  C   UNL     1       0.280   9.775  21.143  0.00  0.00    +0.000 A 
ATOM     12  C   UNL     1       1.035   8.959  20.288  0.00  0.00    +0.000 A 
ATOM     13  C   UNL     1       1.492   7.694  20.704  0.00  0.00    +0.000 A 
ENDBRANCH   3   4
BRANCH   1  14
ATOM     14  N   UNL     1       3.482   3.293  19.251  0.00  0.00    +0.000 NA
ATOM     15  H   UNL     1       3.878   3.215  20.188  0.00  0.00    +0.000 HD
BRANCH  14  19
ATOM     16  C   UNL     1       6.191   5.403  16.640  0.00  0.00    +0.000 C 
ATOM     17  C   UNL     1       5.162   4.466  15.999  0.00  0.00    +0.000 C 
ATOM     18  C   UNL     1       4.023   4.140  16.967  0.00  0.00    +0.000 C 
ATOM     19  C   UNL     1       4.550   3.528  18.273  0.00  0.00    +0.000 C 
ATOM     20  C   UNL     1       5.595   4.462  18.913  0.00  0.00    +0.000 C 
ATOM     21  C   UNL     1       6.729   4.813  17.946  0.00  0.00    +0.000 C 
BRANCH  16  22
ATOM     22  N   UNL     1       7.300   5.660  15.723  0.00  0.00    +0.000 NA
ATOM     23  H   UNL     1       7.296   6.639  15.439  0.00  0.00    +0.000 HD
ATOM     24  H   UNL     1       7.181   5.118  14.868  0.00  0.00    +0.000 HD
ENDBRANCH  16  22
ENDBRANCH  14  19
ENDBRANCH   1  14
TORSDOF 4
ENDMDL
MODEL 2
REMARK VINA RESULT:      -7.8      1.902      3.917
REMARK  Name = 
REMARK  4 active torsions:
REMARK  status: ('A' for Active; 'I' for Inactive)
REMARK    1  A    between atoms: N_1  and  C_2
REMARK    2  A    between atoms: C_5  and  N_6
REMARK    3  A    between atoms: N_6  and  C_7
REMARK    4  A    between atoms: C_9  and  C_10
REMARK                            x       y       z     vdW  Elec       q    Type
REMARK                         _______ _______ _______ _____ _____    ______ ____
ROOT
ATOM      1  C   UNL     1       3.716   6.039  18.075  0.00  0.00    +0.000 C 
ATOM      2  C   UNL     1       4.332   7.094  17.205  0.00  0.00    +0.000 C 
ATOM      3  C   UNL     1       2.861   7.159  17.505  0.00  0.00    +0.000 C 
ENDROOT
BRANCH   3   4
ATOM      4  C   UNL     1       2.256   8.223  18.390  0.00  0.00    +0.000 A 
ATOM      5  C   UNL     1       1.868   9.472  17.878  0.00  0.00    +0.000 A 
ATOM      6  C   UNL     1       1.133  10.381  18.648  0.00  0.00    +0.000 A 
ATOM      7  C   UNL     1       0.753  10.069  19.962  0.00  0.00    +0.000 A 
ATOM      8  C   UNL     1      -0.044  10.933  20.736  0.00  0.00    +0.000 A 
ATOM      9  C   UNL     1      -0.427  10.582  22.032  0.00  0.00    +0.000 A 
ATOM     10  C   UNL     1      -0.010   9.372  22.576  0.00  0.00    +0.000 A 
ATOM     11  C   UNL     1       0.786   8.507  21.823  0.00  0.00    +0.000 A 
ATOM     12  C   UNL     1       1.165   8.839  20.513  0.00  0.00    +0.000 A 
ATOM     13  C   UNL     1       1.916   7.946  19.725  0.00  0.00    +0.000 A 
ENDBRANCH   3   4
BRANCH   1  14
ATOM     14  N   UNL     1       3.407   4.681  17.594  0.00  0.00    +0.000 NA
ATOM     15  H   UNL     1       2.776   4.727  16.793  0.00  0.00    +0.000 HD
BRANCH  14  19
ATOM     16  C   UNL     1       1.918   3.160  21.347  0.00  0.00    +0.000 C 
ATOM     17  C   UNL     1       3.254   2.614  20.831  0.00  0.00    +0.000 C 
ATOM     18  C   UNL     1       3.855   3.526  19.760  0.00  0.00    +0.000 C 
ATOM     19  C   UNL     1       2.886   3.736  18.588  0.00  0.00    +0.000 C 
ATOM     20  C   UNL     1       1.537   4.272  19.105  0.00  0.00    +0.000 C 
ATOM     21  C   UNL     1       0.936   3.379  20.193  0.00  0.00    +0.000 C 
BRANCH  16  22
ATOM     22  N   UNL     1       1.330   2.250  22.327  0.00  0.00    +0.000 NA
ATOM     23  H   UNL     1       1.440   1.285  22.016  0.00  0.00    +0.000 HD
ATOM     24  H   UNL     1       0.326   2.411  22.398  0.00  0.00    +0.000 HD
ENDBRANCH  16  22
ENDBRANCH  14  19
ENDBRANCH   1  14
TORSDOF 4
ENDMDL
MODEL 3
REMARK VINA RESULT:      -7.7      3.757      7.976
REMARK  Name = 
REMARK  4 active torsions:
REMARK  status: ('A' for Active; 'I' for Inactive)
REMARK    1  A    between atoms: N_1  and  C_2
REMARK    2  A    between atoms: C_5  and  N_6
REMARK    3  A    between atoms: N_6  and  C_7
REMARK    4  A    between atoms: C_9  and  C_10
REMARK                            x       y       z     vdW  Elec       q    Type
REMARK                         _______ _______ _______ _____ _____    ______ ____
ROOT
ATOM      1  C   UNL     1       0.852   9.493  18.069  0.00  0.00    +0.000 C 
ATOM      2  C   UNL     1       2.211  10.057  17.778  0.00  0.00    +0.000 C 
ATOM      3  C   UNL     1       2.097   8.808  18.607  0.00  0.00    +0.000 C 
ENDROOT
BRANCH   3   4
ATOM      4  C   UNL     1       2.538   7.454  18.105  0.00  0.00    +0.000 A 
ATOM      5  C   UNL     1       3.804   7.259  17.530  0.00  0.00    +0.000 A 
ATOM      6  C   UNL     1       4.287   5.976  17.245  0.00  0.00    +0.000 A 
ATOM      7  C   UNL     1       3.520   4.837  17.532  0.00  0.00    +0.000 A 
ATOM      8  C   UNL     1       4.006   3.534  17.320  0.00  0.00    +0.000 A 
ATOM      9  C   UNL     1       3.227   2.420  17.642  0.00  0.00    +0.000 A 
ATOM     10  C   UNL     1       1.950   2.593  18.164  0.00  0.00    +0.000 A 
ATOM     11  C   UNL     1       1.452   3.879  18.374  0.00  0.00    +0.000 A 
ATOM     12  C   UNL     1       2.228   5.008  18.072  0.00  0.00    +0.000 A 
ATOM     13  C   UNL     1       1.758   6.308  18.337  0.00  0.00    +0.000 A 
ENDBRANCH   3   4
BRANCH   1  14
ATOM     14  N   UNL     1      -0.057  10.067  19.076  0.00  0.00    +0.000 NA
ATOM     15  H   UNL     1       0.041   9.569  19.962  0.00  0.00    +0.000 HD
BRANCH  14  19
ATOM     16  C   UNL     1      -3.636  11.326  17.022  0.00  0.00    +0.000 C 
ATOM     17  C   UNL     1      -3.519  11.643  18.517  0.00  0.00    +0.000 C 
ATOM     18  C   UNL     1      -2.070  11.540  18.998  0.00  0.00    +0.000 C 
ATOM     19  C   UNL     1      -1.474  10.156  18.706  0.00  0.00    +0.000 C 
ATOM     20  C   UNL     1      -1.603   9.829  17.205  0.00  0.00    +0.000 C 
ATOM     21  C   UNL     1      -3.046   9.949  16.707  0.00  0.00    +0.000 C 
BRANCH  16  22
ATOM     22  N   UNL     1      -5.031  11.373  16.590  0.00  0.00    +0.000 NA
ATOM     23  H   UNL     1      -5.091  11.197  15.588  0.00  0.00    +0.000 HD
ATOM     24  H   UNL     1      -5.412  12.307  16.735  0.00  0.00    +0.000 HD
ENDBRANCH  16  22
ENDBRANCH  14  19
ENDBRANCH   1  14
TORSDOF 4
ENDMDL
MODEL 4
REMARK VINA RESULT:      -7.6      3.774      8.037
REMARK  Name = 
REMARK  4 active torsions:
REMARK  status: ('A' for Active; 'I' for Inactive)
REMARK    1  A    between atoms: N_1  and  C_2
REMARK    2  A    between atoms: C_5  and  N_6
REMARK    3  A    between atoms: N_6  and  C_7
REMARK    4  A    between atoms: C_9  and  C_10
REMARK                            x       y       z     vdW  Elec       q    Type
REMARK                         _______ _______ _______ _____ _____    ______ ____
ROOT
ATOM      1  C   UNL     1       0.860   9.195  18.012  0.00  0.00    +0.000 C 
ATOM      2  C   UNL     1       2.282   9.189  17.535  0.00  0.00    +0.000 C 
ATOM      3  C   UNL     1       1.966   8.660  18.906  0.00  0.00    +0.000 C 
ENDROOT
BRANCH   3   4
ATOM      4  C   UNL     1       2.063   7.195  19.256  0.00  0.00    +0.000 A 
ATOM      5  C   UNL     1       1.708   6.717  20.528  0.00  0.00    +0.000 A 
ATOM      6  C   UNL     1       1.611   5.346  20.793  0.00  0.00    +0.000 A 
ATOM      7  C   UNL     1       1.860   4.399  19.788  0.00  0.00    +0.000 A 
ATOM      8  C   UNL     1       1.703   3.018  20.006  0.00  0.00    +0.000 A 
ATOM      9  C   UNL     1       1.934   2.102  18.977  0.00  0.00    +0.000 A 
ATOM     10  C   UNL     1       2.336   2.552  17.724  0.00  0.00    +0.000 A 
ATOM     11  C   UNL     1       2.501   3.918  17.494  0.00  0.00    +0.000 A 
ATOM     12  C   UNL     1       2.258   4.852  18.514  0.00  0.00    +0.000 A 
ATOM     13  C   UNL     1       2.363   6.235  18.274  0.00  0.00    +0.000 A 
ENDBRANCH   3   4
BRANCH   1  14
ATOM     14  N   UNL     1       0.178  10.413  18.486  0.00  0.00    +0.000 NA
ATOM     15  H   UNL     1       0.488  10.644  19.430  0.00  0.00    +0.000 HD
BRANCH  14  19
ATOM     16  C   UNL     1      -3.827  11.291  17.141  0.00  0.00    +0.000 C 
ATOM     17  C   UNL     1      -3.412  11.788  18.530  0.00  0.00    +0.000 C 
ATOM     18  C   UNL     1      -1.890  11.795  18.690  0.00  0.00    +0.000 C 
ATOM     19  C   UNL     1      -1.288  10.407  18.428  0.00  0.00    +0.000 C 
ATOM     20  C   UNL     1      -1.716   9.898  17.036  0.00  0.00    +0.000 C 
ATOM     21  C   UNL     1      -3.236   9.908  16.857  0.00  0.00    +0.000 C 
BRANCH  16  22
ATOM     22  N   UNL     1      -5.282  11.237  17.023  0.00  0.00    +0.000 NA
ATOM     23  H   UNL     1      -5.558  11.375  16.051  0.00  0.00    +0.000 HD
ATOM     24  H   UNL     1      -5.705  12.003  17.547  0.00  0.00    +0.000 HD
ENDBRANCH  16  22
ENDBRANCH  14  19
ENDBRANCH   1  14
TORSDOF 4
ENDMDL
MODEL 5
REMARK VINA RESULT:      -7.6      3.087      5.480
REMARK  Name = 
REMARK  4 active torsions:
REMARK  status: ('A' for Active; 'I' for Inactive)
REMARK    1  A    between atoms: N_1  and  C_2
REMARK    2  A    between atoms: C_5  and  N_6
REMARK    3  A    between atoms: N_6  and  C_7
REMARK    4  A    between atoms: C_9  and  C_10
REMARK                            x       y       z     vdW  Elec       q    Type
REMARK                         _______ _______ _______ _____ _____    ______ ____
ROOT
ATOM      1  C   UNL     1       7.050   5.737  16.781  0.00  0.00    +0.000 C 
ATOM      2  C   UNL     1       7.311   6.862  17.738  0.00  0.00    +0.000 C 
ATOM      3  C   UNL     1       5.932   6.692  17.163  0.00  0.00    +0.000 C 
ENDROOT
BRANCH   3   4
ATOM      4  C   UNL     1       4.754   6.242  17.994  0.00  0.00    +0.000 A 
ATOM      5  C   UNL     1       3.505   6.877  17.903  0.00  0.00    +0.000 A 
ATOM      6  C   UNL     1       2.367   6.343  18.520  0.00  0.00    +0.000 A 
ATOM      7  C   UNL     1       2.437   5.146  19.249  0.00  0.00    +0.000 A 
ATOM      8  C   UNL     1       1.299   4.550  19.821  0.00  0.00    +0.000 A 
ATOM      9  C   UNL     1       1.399   3.344  20.519  0.00  0.00    +0.000 A 
ATOM     10  C   UNL     1       2.636   2.726  20.664  0.00  0.00    +0.000 A 
ATOM     11  C   UNL     1       3.775   3.308  20.106  0.00  0.00    +0.000 A 
ATOM     12  C   UNL     1       3.688   4.511  19.389  0.00  0.00    +0.000 A 
ATOM     13  C   UNL     1       4.821   5.074  18.772  0.00  0.00    +0.000 A 
ENDBRANCH   3   4
BRANCH   1  14
ATOM     14  N   UNL     1       7.473   5.768  15.370  0.00  0.00    +0.000 NA
ATOM     15  H   UNL     1       7.189   6.648  14.938  0.00  0.00    +0.000 HD
BRANCH  14  19
ATOM     16  C   UNL     1       5.523   3.582  12.202  0.00  0.00    +0.000 C 
ATOM     17  C   UNL     1       5.100   3.284  13.645  0.00  0.00    +0.000 C 
ATOM     18  C   UNL     1       5.534   4.401  14.596  0.00  0.00    +0.000 C 
ATOM     19  C   UNL     1       7.049   4.640  14.533  0.00  0.00    +0.000 C 
ATOM     20  C   UNL     1       7.480   4.926  13.081  0.00  0.00    +0.000 C 
ATOM     21  C   UNL     1       7.032   3.826  12.115  0.00  0.00    +0.000 C 
BRANCH  16  22
ATOM     22  N   UNL     1       5.151   2.481  11.315  0.00  0.00    +0.000 NA
ATOM     23  H   UNL     1       4.669   2.845  10.494  0.00  0.00    +0.000 HD
ATOM     24  H   UNL     1       4.487   1.864  11.781  0.00  0.00    +0.000 HD
ENDBRANCH  16  22
ENDBRANCH  14  19
ENDBRANCH   1  14
TORSDOF 4
ENDMDL
MODEL 6
REMARK VINA RESULT:      -7.6      3.774      7.901
REMARK  Name = 
REMARK  4 active torsions:
REMARK  status: ('A' for Active; 'I' for Inactive)
REMARK    1  A    between atoms: N_1  and  C_2
REMARK    2  A    between atoms: C_5  and  N_6
REMARK    3  A    between atoms: N_6  and  C_7
REMARK    4  A    between atoms: C_9  and  C_10
REMARK                            x       y       z     vdW  Elec       q    Type
REMARK                         _______ _______ _______ _____ _____    ______ ____
ROOT
ATOM      1  C   UNL     1       0.777   9.436  18.274  0.00  0.00    +0.000 C 
ATOM      2  C   UNL     1       2.174   9.778  17.848  0.00  0.00    +0.000 C 
ATOM      3  C   UNL     1       1.969   8.851  19.013  0.00  0.00    +0.000 C 
ENDROOT
BRANCH   3   4
ATOM      4  C   UNL     1       2.296   7.378  18.949  0.00  0.00    +0.000 A 
ATOM      5  C   UNL     1       3.109   6.848  17.934  0.00  0.00    +0.000 A 
ATOM      6  C   UNL     1       3.571   5.528  17.983  0.00  0.00    +0.000 A 
ATOM      7  C   UNL     1       3.241   4.688  19.057  0.00  0.00    +0.000 A 
ATOM      8  C   UNL     1       3.747   3.380  19.167  0.00  0.00    +0.000 A 
ATOM      9  C   UNL     1       3.420   2.578  20.263  0.00  0.00    +0.000 A 
ATOM     10  C   UNL     1       2.575   3.067  21.254  0.00  0.00    +0.000 A 
ATOM     11  C   UNL     1       2.061   4.360  21.155  0.00  0.00    +0.000 A 
ATOM     12  C   UNL     1       2.393   5.183  20.069  0.00  0.00    +0.000 A 
ATOM     13  C   UNL     1       1.929   6.510  19.991  0.00  0.00    +0.000 A 
ENDBRANCH   3   4
BRANCH   1  14
ATOM     14  N   UNL     1      -0.074  10.357  19.047  0.00  0.00    +0.000 NA
ATOM     15  H   UNL     1       0.057  10.200  20.047  0.00  0.00    +0.000 HD
BRANCH  14  19
ATOM     16  C   UNL     1      -3.782  11.339  17.072  0.00  0.00    +0.000 C 
ATOM     17  C   UNL     1      -3.634  11.721  18.549  0.00  0.00    +0.000 C 
ATOM     18  C   UNL     1      -2.167  11.716  18.982  0.00  0.00    +0.000 C 
ATOM     19  C   UNL     1      -1.506  10.355  18.723  0.00  0.00    +0.000 C 
ATOM     20  C   UNL     1      -1.665   9.962  17.241  0.00  0.00    +0.000 C 
ATOM     21  C   UNL     1      -3.128   9.984  16.789  0.00  0.00    +0.000 C 
BRANCH  16  22
ATOM     22  N   UNL     1      -5.191  11.294  16.687  0.00  0.00    +0.000 NA
ATOM     23  H   UNL     1      -5.377  11.989  15.964  0.00  0.00    +0.000 HD
ATOM     24  H   UNL     1      -5.780  11.549  17.479  0.00  0.00    +0.000 HD
ENDBRANCH  16  22
ENDBRANCH  14  19
ENDBRANCH   1  14
TORSDOF 4
ENDMDL
MODEL 7
REMARK VINA RESULT:      -7.5      3.374      5.557
REMARK  Name = 
REMARK  4 active torsions:
REMARK  status: ('A' for Active; 'I' for Inactive)
REMARK    1  A    between atoms: N_1  and  C_2
REMARK    2  A    between atoms: C_5  and  N_6
REMARK    3  A    between atoms: N_6  and  C_7
REMARK    4  A    between atoms: C_9  and  C_10
REMARK                            x       y       z     vdW  Elec       q    Type
REMARK                         _______ _______ _______ _____ _____    ______ ____
ROOT
ATOM      1  C   UNL     1       6.929   4.934  16.724  0.00  0.00    +0.000 C 
ATOM      2  C   UNL     1       7.542   5.175  18.071  0.00  0.00    +0.000 C 
ATOM      3  C   UNL     1       6.277   5.898  17.701  0.00  0.00    +0.000 C 
ENDROOT
BRANCH   3   4
ATOM      4  C   UNL     1       4.947   5.594  18.346  0.00  0.00    +0.000 A 
ATOM      5  C   UNL     1       3.758   6.193  17.900  0.00  0.00    +0.000 A 
ATOM      6  C   UNL     1       2.507   5.769  18.362  0.00  0.00    +0.000 A 
ATOM      7  C   UNL     1       2.399   4.720  19.288  0.00  0.00    +0.000 A 
ATOM      8  C   UNL     1       1.153   4.227  19.718  0.00  0.00    +0.000 A 
ATOM      9  C   UNL     1       1.080   3.163  20.621  0.00  0.00    +0.000 A 
ATOM     10  C   UNL     1       2.246   2.590  21.115  0.00  0.00    +0.000 A 
ATOM     11  C   UNL     1       3.489   3.072  20.701  0.00  0.00    +0.000 A 
ATOM     12  C   UNL     1       3.579   4.129  19.783  0.00  0.00    +0.000 A 
ATOM     13  C   UNL     1       4.827   4.581  19.314  0.00  0.00    +0.000 A 
ENDBRANCH   3   4
BRANCH   1  14
ATOM     14  N   UNL     1       7.457   5.529  15.484  0.00  0.00    +0.000 NA
ATOM     15  H   UNL     1       7.511   6.544  15.577  0.00  0.00    +0.000 HD
BRANCH  14  19
ATOM     16  C   UNL     1       5.882   3.126  12.265  0.00  0.00    +0.000 C 
ATOM     17  C   UNL     1       6.961   4.160  11.926  0.00  0.00    +0.000 C 
ATOM     18  C   UNL     1       7.717   4.611  13.178  0.00  0.00    +0.000 C 
ATOM     19  C   UNL     1       6.763   5.177  14.240  0.00  0.00    +0.000 C 
ATOM     20  C   UNL     1       5.668   4.144  14.573  0.00  0.00    +0.000 C 
ATOM     21  C   UNL     1       4.920   3.669  13.326  0.00  0.00    +0.000 C 
BRANCH  16  22
ATOM     22  N   UNL     1       5.132   2.748  11.069  0.00  0.00    +0.000 NA
ATOM     23  H   UNL     1       4.133   2.742  11.273  0.00  0.00    +0.000 HD
ATOM     24  H   UNL     1       5.369   1.795  10.794  0.00  0.00    +0.000 HD
ENDBRANCH  16  22
ENDBRANCH  14  19
ENDBRANCH   1  14
TORSDOF 4
ENDMDL
MODEL 8
REMARK VINA RESULT:      -7.5      0.968      1.545
REMARK  Name = 
REMARK  4 active torsions:
REMARK  status: ('A' for Active; 'I' for Inactive)
REMARK    1  A    between atoms: N_1  and  C_2
REMARK    2  A    between atoms: C_5  and  N_6
REMARK    3  A    between atoms: N_6  and  C_7
REMARK    4  A    between atoms: C_9  and  C_10
REMARK                            x       y       z     vdW  Elec       q    Type
REMARK                         _______ _______ _______ _____ _____    ______ ____
ROOT
ATOM      1  C   UNL     1       2.619   5.057  18.708  0.00  0.00    +0.000 C 
ATOM      2  C   UNL     1       2.033   4.977  20.087  0.00  0.00    +0.000 C 
ATOM      3  C   UNL     1       2.832   6.190  19.698  0.00  0.00    +0.000 C 
ENDROOT
BRANCH   3   4
ATOM      4  C   UNL     1       2.204   7.548  19.496  0.00  0.00    +0.000 A 
ATOM      5  C   UNL     1       2.154   8.155  18.230  0.00  0.00    +0.000 A 
ATOM      6  C   UNL     1       1.405   9.316  18.006  0.00  0.00    +0.000 A 
ATOM      7  C   UNL     1       0.671   9.911  19.042  0.00  0.00    +0.000 A 
ATOM      8  C   UNL     1      -0.145  11.038  18.830  0.00  0.00    +0.000 A 
ATOM      9  C   UNL     1      -0.885  11.591  19.878  0.00  0.00    +0.000 A 
ATOM     10  C   UNL     1      -0.809  11.036  21.150  0.00  0.00    +0.000 A 
ATOM     11  C   UNL     1       0.000   9.922  21.377  0.00  0.00    +0.000 A 
ATOM     12  C   UNL     1       0.737   9.345  20.331  0.00  0.00    +0.000 A 
ATOM     13  C   UNL     1       1.508   8.185  20.537  0.00  0.00    +0.000 A 
ENDBRANCH   3   4
BRANCH   1  14
ATOM     14  N   UNL     1       3.826   4.315  18.305  0.00  0.00    +0.000 NA
ATOM     15  H   UNL     1       4.398   4.103  19.123  0.00  0.00    +0.000 HD
BRANCH  14  19
ATOM     16  C   UNL     1       7.032   4.844  15.466  0.00  0.00    +0.000 C 
ATOM     17  C   UNL     1       6.938   5.832  16.634  0.00  0.00    +0.000 C 
ATOM     18  C   UNL     1       6.061   5.283  17.761  0.00  0.00    +0.000 C 
ATOM     19  C   UNL     1       4.654   4.928  17.260  0.00  0.00    +0.000 C 
ATOM     20  C   UNL     1       4.745   3.945  16.076  0.00  0.00    +0.000 C 
ATOM     21  C   UNL     1       5.638   4.474  14.951  0.00  0.00    +0.000 C 
BRANCH  16  22
ATOM     22  N   UNL     1       7.826   5.405  14.375  0.00  0.00    +0.000 NA
ATOM     23  H   UNL     1       8.683   4.864  14.255  0.00  0.00    +0.000 HD
ATOM     24  H   UNL     1       8.122   6.353  14.608  0.00  0.00    +0.000 HD
ENDBRANCH  16  22
ENDBRANCH  14  19
ENDBRANCH   1  14
TORSDOF 4
ENDMDL
MODEL 9
REMARK VINA RESULT:      -7.5      3.585      7.984
REMARK  Name = 
REMARK  4 active torsions:
REMARK  status: ('A' for Active; 'I' for Inactive)
REMARK    1  A    between atoms: N_1  and  C_2
REMARK    2  A    between atoms: C_5  and  N_6
REMARK    3  A    between atoms: N_6  and  C_7
REMARK    4  A    between atoms: C_9  and  C_10
REMARK                            x       y       z     vdW  Elec       q    Type
REMARK                         _______ _______ _______ _____ _____    ______ ____
ROOT
ATOM      1  C   UNL     1       1.012   9.146  18.512  0.00  0.00    +0.000 C 
ATOM      2  C   UNL     1       2.211   8.955  17.632  0.00  0.00    +0.000 C 
ATOM      3  C   UNL     1       2.237   8.416  19.034  0.00  0.00    +0.000 C 
ENDROOT
BRANCH   3   4
ATOM      4  C   UNL     1       2.209   6.937  19.339  0.00  0.00    +0.000 A 
ATOM      5  C   UNL     1       1.716   6.446  20.559  0.00  0.00    +0.000 A 
ATOM      6  C   UNL     1       1.508   5.077  20.766  0.00  0.00    +0.000 A 
ATOM      7  C   UNL     1       1.781   4.146  19.752  0.00  0.00    +0.000 A 
ATOM      8  C   UNL     1       1.517   2.773  19.907  0.00  0.00    +0.000 A 
ATOM      9  C   UNL     1       1.775   1.875  18.868  0.00  0.00    +0.000 A 
ATOM     10  C   UNL     1       2.311   2.334  17.670  0.00  0.00    +0.000 A 
ATOM     11  C   UNL     1       2.583   3.693  17.504  0.00  0.00    +0.000 A 
ATOM     12  C   UNL     1       2.314   4.610  18.532  0.00  0.00    +0.000 A 
ATOM     13  C   UNL     1       2.529   5.989  18.352  0.00  0.00    +0.000 A 
ENDBRANCH   3   4
BRANCH   1  14
ATOM     14  N   UNL     1       0.693  10.427  19.168  0.00  0.00    +0.000 NA
ATOM     15  H   UNL     1       0.611  10.293  20.177  0.00  0.00    +0.000 HD
BRANCH  14  19
ATOM     16  C   UNL     1      -3.436  11.440  18.436  0.00  0.00    +0.000 C 
ATOM     17  C   UNL     1      -2.572  11.043  17.234  0.00  0.00    +0.000 C 
ATOM     18  C   UNL     1      -1.304  10.309  17.676  0.00  0.00    +0.000 C 
ATOM     19  C   UNL     1      -0.479  11.149  18.662  0.00  0.00    +0.000 C 
ATOM     20  C   UNL     1      -1.350  11.562  19.865  0.00  0.00    +0.000 C 
ATOM     21  C   UNL     1      -2.633  12.278  19.434  0.00  0.00    +0.000 C 
BRANCH  16  22
ATOM     22  N   UNL     1      -4.614  12.189  18.002  0.00  0.00    +0.000 NA
ATOM     23  H   UNL     1      -5.429  11.575  17.984  0.00  0.00    +0.000 HD
ATOM     24  H   UNL     1      -4.488  12.518  17.046  0.00  0.00    +0.000 HD
ENDBRANCH  16  22
ENDBRANCH  14  19
ENDBRANCH   1  14
TORSDOF 4
ENDMDL
