MODEL 1
REMARK VINA RESULT:      -7.1      0.000      0.000
REMARK  Name = 
REMARK  11 active torsions:
REMARK  status: ('A' for Active; 'I' for Inactive)
REMARK    1  A    between atoms: C_2  and  C_3
REMARK    2  A    between atoms: C_3  and  O_4
REMARK    3  A    between atoms: O_4  and  C_5
REMARK    4  A    between atoms: C_5  and  C_7
REMARK    5  A    between atoms: C_7  and  C_8
REMARK    6  A    between atoms: C_7  and  C_11
REMARK    7  A    between atoms: C_8  and  C_9
REMARK    8  A    between atoms: C_11  and  N_12
REMARK    9  A    between atoms: C_11  and  C_17
REMARK   10  A    between atoms: C_13  and  O_15
REMARK   11  A    between atoms: O_15  and  C_16
REMARK                            x       y       z     vdW  Elec       q    Type
REMARK                         _______ _______ _______ _____ _____    ______ ____
ROOT
ATOM      1  C   UNL     1       3.902   5.972  18.401  0.00  0.00    +0.000 C 
ENDROOT
BRANCH   1   2
ATOM      2  C   UNL     1       2.880   7.081  18.693  0.00  0.00    +0.000 A 
ATOM      3  C   UNL     1       2.253   7.152  19.949  0.00  0.00    +0.000 A 
ATOM      4  C   UNL     1       1.400   8.219  20.270  0.00  0.00    +0.000 A 
ATOM      5  C   UNL     1       1.160   9.224  19.336  0.00  0.00    +0.000 A 
ATOM      6 CL   UNL     1       0.150  10.556  19.743  0.00  0.00    +0.000 Cl
ATOM      7  C   UNL     1       1.748   9.162  18.079  0.00  0.00    +0.000 A 
ATOM      8  C   UNL     1       2.598   8.097  17.759  0.00  0.00    +0.000 A 
ENDBRANCH   1   2
BRANCH   1   9
ATOM      9  N   UNL     1       4.314   6.033  17.007  0.00  0.00    +0.000 N 
ATOM     10  C   UNL     1       5.529   6.491  16.600  0.00  0.00    +0.000 C 
ATOM     11  O   UNL     1       6.421   6.906  17.321  0.00  0.00    +0.000 OA
ATOM     12  H   UNL     1       3.673   5.772  16.272  0.00  0.00    +0.000 HD
BRANCH  10  13
ATOM     13  O   UNL     1       5.592   6.416  15.244  0.00  0.00    +0.000 OA
ATOM     14  C   UNL     1       5.855   5.110  14.745  0.00  0.00    +0.000 C 
ENDBRANCH  10  13
ENDBRANCH   1   9
BRANCH   1  15
ATOM     15  C   UNL     1       3.486   4.548  18.867  0.00  0.00    +0.000 C 
BRANCH  15  16
ATOM     16  C   UNL     1       4.698   3.699  19.242  0.00  0.00    +0.000 C 
ATOM     17  C   UNL     1       4.482   2.342  19.870  0.00  0.00    +0.000 C 
ATOM     18  O   UNL     1       5.858   4.085  19.091  0.00  0.00    +0.000 OA
ENDBRANCH  15  16
BRANCH  15  19
ATOM     19  C   UNL     1       2.582   3.840  17.879  0.00  0.00    +0.000 C 
ATOM     20  O   UNL     1       2.942   3.316  16.831  0.00  0.00    +0.000 OA
BRANCH  19  21
ATOM     21  O   UNL     1       1.297   3.876  18.323  0.00  0.00    +0.000 OA
BRANCH  21  22
ATOM     22  C   UNL     1       0.863   2.835  19.210  0.00  0.00    +0.000 C 
BRANCH  22  24
ATOM     23  C   UNL     1       1.422   2.664  21.650  0.00  0.00    +0.000 C 
ATOM     24  C   UNL     1       0.844   3.314  20.630  0.00  0.00    +0.000 C 
ENDBRANCH  22  24
ENDBRANCH  21  22
ENDBRANCH  19  21
ENDBRANCH  15  19
ENDBRANCH   1  15
TORSDOF 9
ENDMDL
MODEL 2
REMARK VINA RESULT:      -6.9      1.610      4.876
REMARK  Name = 
REMARK  11 active torsions:
REMARK  status: ('A' for Active; 'I' for Inactive)
REMARK    1  A    between atoms: C_2  and  C_3
REMARK    2  A    between atoms: C_3  and  O_4
REMARK    3  A    between atoms: O_4  and  C_5
REMARK    4  A    between atoms: C_5  and  C_7
REMARK    5  A    between atoms: C_7  and  C_8
REMARK    6  A    between atoms: C_7  and  C_11
REMARK    7  A    between atoms: C_8  and  C_9
REMARK    8  A    between atoms: C_11  and  N_12
REMARK    9  A    between atoms: C_11  and  C_17
REMARK   10  A    between atoms: C_13  and  O_15
REMARK   11  A    between atoms: O_15  and  C_16
REMARK                            x       y       z     vdW  Elec       q    Type
REMARK                         _______ _______ _______ _____ _____    ______ ____
ROOT
ATOM      1  C   UNL     1       3.066   5.299  18.202  0.00  0.00    +0.000 C 
ENDROOT
BRANCH   1   2
ATOM      2  C   UNL     1       2.544   6.641  18.735  0.00  0.00    +0.000 A 
ATOM      3  C   UNL     1       2.391   7.736  17.867  0.00  0.00    +0.000 A 
ATOM      4  C   UNL     1       1.815   8.935  18.312  0.00  0.00    +0.000 A 
ATOM      5  C   UNL     1       1.389   9.054  19.633  0.00  0.00    +0.000 A 
ATOM      6 CL   UNL     1       0.642  10.509  20.170  0.00  0.00    +0.000 Cl
ATOM      7  C   UNL     1       1.553   7.996  20.517  0.00  0.00    +0.000 A 
ATOM      8  C   UNL     1       2.130   6.800  20.072  0.00  0.00    +0.000 A 
ENDBRANCH   1   2
BRANCH   1   9
ATOM      9  N   UNL     1       2.734   4.233  19.135  0.00  0.00    +0.000 N 
ATOM     10  C   UNL     1       1.779   3.293  18.895  0.00  0.00    +0.000 C 
ATOM     11  O   UNL     1       1.083   3.211  17.896  0.00  0.00    +0.000 OA
ATOM     12  H   UNL     1       3.184   4.183  20.037  0.00  0.00    +0.000 HD
BRANCH  10  13
ATOM     13  O   UNL     1       1.719   2.450  19.960  0.00  0.00    +0.000 OA
ATOM     14  C   UNL     1       1.691   3.107  21.221  0.00  0.00    +0.000 C 
ENDBRANCH  10  13
ENDBRANCH   1   9
BRANCH   1  15
ATOM     15  C   UNL     1       4.557   5.297  17.758  0.00  0.00    +0.000 C 
BRANCH  15  16
ATOM     16  C   UNL     1       4.771   4.460  16.500  0.00  0.00    +0.000 C 
ATOM     17  C   UNL     1       5.531   5.055  15.338  0.00  0.00    +0.000 C 
ATOM     18  O   UNL     1       4.316   3.323  16.368  0.00  0.00    +0.000 OA
ENDBRANCH  15  16
BRANCH  15  19
ATOM     19  C   UNL     1       5.507   4.902  18.870  0.00  0.00    +0.000 C 
ATOM     20  O   UNL     1       5.519   3.822  19.449  0.00  0.00    +0.000 OA
BRANCH  19  21
ATOM     21  O   UNL     1       6.352   5.933  19.140  0.00  0.00    +0.000 OA
BRANCH  21  22
ATOM     22  C   UNL     1       7.571   6.019  18.387  0.00  0.00    +0.000 C 
BRANCH  22  24
ATOM     23  C   UNL     1       8.019   8.437  17.888  0.00  0.00    +0.000 C 
ATOM     24  C   UNL     1       7.571   7.232  17.507  0.00  0.00    +0.000 C 
ENDBRANCH  22  24
ENDBRANCH  21  22
ENDBRANCH  19  21
ENDBRANCH  15  19
ENDBRANCH   1  15
TORSDOF 9
ENDMDL
MODEL 3
REMARK VINA RESULT:      -6.9      1.694      4.670
REMARK  Name = 
REMARK  11 active torsions:
REMARK  status: ('A' for Active; 'I' for Inactive)
REMARK    1  A    between atoms: C_2  and  C_3
REMARK    2  A    between atoms: C_3  and  O_4
REMARK    3  A    between atoms: O_4  and  C_5
REMARK    4  A    between atoms: C_5  and  C_7
REMARK    5  A    between atoms: C_7  and  C_8
REMARK    6  A    between atoms: C_7  and  C_11
REMARK    7  A    between atoms: C_8  and  C_9
REMARK    8  A    between atoms: C_11  and  N_12
REMARK    9  A    between atoms: C_11  and  C_17
REMARK   10  A    between atoms: C_13  and  O_15
REMARK   11  A    between atoms: O_15  and  C_16
REMARK                            x       y       z     vdW  Elec       q    Type
REMARK                         _______ _______ _______ _____ _____    ______ ____
ROOT
ATOM      1  C   UNL     1       3.021   5.347  18.358  0.00  0.00    +0.000 C 
ENDROOT
BRANCH   1   2
ATOM      2  C   UNL     1       2.375   6.665  18.810  0.00  0.00    +0.000 A 
ATOM      3  C   UNL     1       1.985   6.838  20.150  0.00  0.00    +0.000 A 
ATOM      4  C   UNL     1       1.493   8.071  20.603  0.00  0.00    +0.000 A 
ATOM      5  C   UNL     1       1.381   9.143  19.721  0.00  0.00    +0.000 A 
ATOM      6 CL   UNL     1       0.820  10.669  20.287  0.00  0.00    +0.000 Cl
ATOM      7  C   UNL     1       1.735   8.989  18.388  0.00  0.00    +0.000 A 
ATOM      8  C   UNL     1       2.224   7.758  17.935  0.00  0.00    +0.000 A 
ENDBRANCH   1   2
BRANCH   1   9
ATOM      9  N   UNL     1       2.697   4.287  19.301  0.00  0.00    +0.000 N 
ATOM     10  C   UNL     1       1.963   3.188  18.976  0.00  0.00    +0.000 C 
ATOM     11  O   UNL     1       1.484   2.940  17.881  0.00  0.00    +0.000 OA
ATOM     12  H   UNL     1       2.976   4.359  20.269  0.00  0.00    +0.000 HD
BRANCH  10  13
ATOM     13  O   UNL     1       1.842   2.401  20.077  0.00  0.00    +0.000 OA
ATOM     14  C   UNL     1       2.436   2.946  21.249  0.00  0.00    +0.000 C 
ENDBRANCH  10  13
ENDBRANCH   1   9
BRANCH   1  15
ATOM     15  C   UNL     1       4.536   5.435  18.016  0.00  0.00    +0.000 C 
BRANCH  15  16
ATOM     16  C   UNL     1       4.829   4.921  16.609  0.00  0.00    +0.000 C 
ATOM     17  C   UNL     1       5.300   5.893  15.552  0.00  0.00    +0.000 C 
ATOM     18  O   UNL     1       4.661   3.747  16.277  0.00  0.00    +0.000 OA
ENDBRANCH  15  16
BRANCH  15  19
ATOM     19  C   UNL     1       5.419   4.774  19.055  0.00  0.00    +0.000 C 
ATOM     20  O   UNL     1       5.420   3.582  19.337  0.00  0.00    +0.000 OA
BRANCH  19  21
ATOM     21  O   UNL     1       6.216   5.707  19.642  0.00  0.00    +0.000 OA
BRANCH  21  22
ATOM     22  C   UNL     1       7.610   5.712  19.300  0.00  0.00    +0.000 C 
BRANCH  22  24
ATOM     23  C   UNL     1       7.823   7.811  17.943  0.00  0.00    +0.000 C 
ATOM     24  C   UNL     1       7.847   6.474  18.031  0.00  0.00    +0.000 C 
ENDBRANCH  22  24
ENDBRANCH  21  22
ENDBRANCH  19  21
ENDBRANCH  15  19
ENDBRANCH   1  15
TORSDOF 9
ENDMDL
MODEL 4
REMARK VINA RESULT:      -6.7      1.485      4.693
REMARK  Name = 
REMARK  11 active torsions:
REMARK  status: ('A' for Active; 'I' for Inactive)
REMARK    1  A    between atoms: C_2  and  C_3
REMARK    2  A    between atoms: C_3  and  O_4
REMARK    3  A    between atoms: O_4  and  C_5
REMARK    4  A    between atoms: C_5  and  C_7
REMARK    5  A    between atoms: C_7  and  C_8
REMARK    6  A    between atoms: C_7  and  C_11
REMARK    7  A    between atoms: C_8  and  C_9
REMARK    8  A    between atoms: C_11  and  N_12
REMARK    9  A    between atoms: C_11  and  C_17
REMARK   10  A    between atoms: C_13  and  O_15
REMARK   11  A    between atoms: O_15  and  C_16
REMARK                            x       y       z     vdW  Elec       q    Type
REMARK                         _______ _______ _______ _____ _____    ______ ____
ROOT
ATOM      1  C   UNL     1       3.067   5.780  18.058  0.00  0.00    +0.000 C 
ENDROOT
BRANCH   1   2
ATOM      2  C   UNL     1       2.494   7.097  18.601  0.00  0.00    +0.000 A 
ATOM      3  C   UNL     1       2.321   8.199  17.745  0.00  0.00    +0.000 A 
ATOM      4  C   UNL     1       1.700   9.373  18.197  0.00  0.00    +0.000 A 
ATOM      5  C   UNL     1       1.250   9.460  19.513  0.00  0.00    +0.000 A 
ATOM      6 CL   UNL     1       0.449  10.883  20.057  0.00  0.00    +0.000 Cl
ATOM      7  C   UNL     1       1.434   8.395  20.384  0.00  0.00    +0.000 A 
ATOM      8  C   UNL     1       2.054   7.225  19.933  0.00  0.00    +0.000 A 
ENDBRANCH   1   2
BRANCH   1   9
ATOM      9  N   UNL     1       2.571   4.662  18.847  0.00  0.00    +0.000 N 
ATOM     10  C   UNL     1       1.635   3.781  18.398  0.00  0.00    +0.000 C 
ATOM     11  O   UNL     1       1.092   3.800  17.306  0.00  0.00    +0.000 OA
ATOM     12  H   UNL     1       2.881   4.528  19.798  0.00  0.00    +0.000 HD
BRANCH  10  13
ATOM     13  O   UNL     1       1.394   2.865  19.374  0.00  0.00    +0.000 OA
ATOM     14  C   UNL     1       1.513   3.378  20.695  0.00  0.00    +0.000 C 
ENDBRANCH  10  13
ENDBRANCH   1   9
BRANCH   1  15
ATOM     15  C   UNL     1       4.609   5.762  17.853  0.00  0.00    +0.000 C 
BRANCH  15  16
ATOM     16  C   UNL     1       4.982   5.724  16.372  0.00  0.00    +0.000 C 
ATOM     17  C   UNL     1       5.216   4.389  15.705  0.00  0.00    +0.000 C 
ATOM     18  O   UNL     1       5.140   6.742  15.696  0.00  0.00    +0.000 OA
ENDBRANCH  15  16
BRANCH  15  19
ATOM     19  C   UNL     1       5.300   4.667  18.639  0.00  0.00    +0.000 C 
ATOM     20  O   UNL     1       4.946   3.496  18.694  0.00  0.00    +0.000 OA
BRANCH  19  21
ATOM     21  O   UNL     1       6.380   5.179  19.288  0.00  0.00    +0.000 OA
BRANCH  21  22
ATOM     22  C   UNL     1       7.563   5.444  18.520  0.00  0.00    +0.000 C 
BRANCH  22  24
ATOM     23  C   UNL     1       7.845   7.780  17.649  0.00  0.00    +0.000 C 
ATOM     24  C   UNL     1       7.967   6.883  18.637  0.00  0.00    +0.000 C 
ENDBRANCH  22  24
ENDBRANCH  21  22
ENDBRANCH  19  21
ENDBRANCH  15  19
ENDBRANCH   1  15
TORSDOF 9
ENDMDL
MODEL 5
REMARK VINA RESULT:      -6.7      1.654      4.803
REMARK  Name = 
REMARK  11 active torsions:
REMARK  status: ('A' for Active; 'I' for Inactive)
REMARK    1  A    between atoms: C_2  and  C_3
REMARK    2  A    between atoms: C_3  and  O_4
REMARK    3  A    between atoms: O_4  and  C_5
REMARK    4  A    between atoms: C_5  and  C_7
REMARK    5  A    between atoms: C_7  and  C_8
REMARK    6  A    between atoms: C_7  and  C_11
REMARK    7  A    between atoms: C_8  and  C_9
REMARK    8  A    between atoms: C_11  and  N_12
REMARK    9  A    between atoms: C_11  and  C_17
REMARK   10  A    between atoms: C_13  and  O_15
REMARK   11  A    between atoms: O_15  and  C_16
REMARK                            x       y       z     vdW  Elec       q    Type
REMARK                         _______ _______ _______ _____ _____    ______ ____
ROOT
ATOM      1  C   UNL     1       3.448   5.636  17.857  0.00  0.00    +0.000 C 
ENDROOT
BRANCH   1   2
ATOM      2  C   UNL     1       2.650   6.800  18.463  0.00  0.00    +0.000 A 
ATOM      3  C   UNL     1       2.274   6.770  19.817  0.00  0.00    +0.000 A 
ATOM      4  C   UNL     1       1.639   7.870  20.414  0.00  0.00    +0.000 A 
ATOM      5  C   UNL     1       1.369   9.010  19.662  0.00  0.00    +0.000 A 
ATOM      6 CL   UNL     1       0.632  10.377  20.403  0.00  0.00    +0.000 Cl
ATOM      7  C   UNL     1       1.708   9.054  18.316  0.00  0.00    +0.000 A 
ATOM      8  C   UNL     1       2.339   7.956  17.720  0.00  0.00    +0.000 A 
ENDBRANCH   1   2
BRANCH   1   9
ATOM      9  N   UNL     1       3.295   4.448  18.682  0.00  0.00    +0.000 N 
ATOM     10  C   UNL     1       2.586   3.351  18.298  0.00  0.00    +0.000 C 
ATOM     11  O   UNL     1       1.993   3.210  17.240  0.00  0.00    +0.000 OA
ATOM     12  H   UNL     1       3.682   4.417  19.613  0.00  0.00    +0.000 HD
BRANCH  10  13
ATOM     13  O   UNL     1       2.639   2.426  19.293  0.00  0.00    +0.000 OA
ATOM     14  C   UNL     1       1.632   2.581  20.285  0.00  0.00    +0.000 C 
ENDBRANCH  10  13
ENDBRANCH   1   9
BRANCH   1  15
ATOM     15  C   UNL     1       4.927   5.962  17.501  0.00  0.00    +0.000 C 
BRANCH  15  16
ATOM     16  C   UNL     1       5.237   5.656  16.037  0.00  0.00    +0.000 C 
ATOM     17  C   UNL     1       5.203   4.223  15.560  0.00  0.00    +0.000 C 
ATOM     18  O   UNL     1       5.554   6.526  15.225  0.00  0.00    +0.000 OA
ENDBRANCH  15  16
BRANCH  15  19
ATOM     19  C   UNL     1       5.921   5.308  18.438  0.00  0.00    +0.000 C 
ATOM     20  O   UNL     1       6.011   4.106  18.658  0.00  0.00    +0.000 OA
BRANCH  19  21
ATOM     21  O   UNL     1       6.704   6.259  19.014  0.00  0.00    +0.000 OA
BRANCH  21  22
ATOM     22  C   UNL     1       7.907   6.644  18.332  0.00  0.00    +0.000 C 
BRANCH  22  24
ATOM     23  C   UNL     1       8.356   9.104  18.130  0.00  0.00    +0.000 C 
ATOM     24  C   UNL     1       7.752   7.990  17.692  0.00  0.00    +0.000 C 
ENDBRANCH  22  24
ENDBRANCH  21  22
ENDBRANCH  19  21
ENDBRANCH  15  19
ENDBRANCH   1  15
TORSDOF 9
ENDMDL
MODEL 6
REMARK VINA RESULT:      -6.6      0.744      1.281
REMARK  Name = 
REMARK  11 active torsions:
REMARK  status: ('A' for Active; 'I' for Inactive)
REMARK    1  A    between atoms: C_2  and  C_3
REMARK    2  A    between atoms: C_3  and  O_4
REMARK    3  A    between atoms: O_4  and  C_5
REMARK    4  A    between atoms: C_5  and  C_7
REMARK    5  A    between atoms: C_7  and  C_8
REMARK    6  A    between atoms: C_7  and  C_11
REMARK    7  A    between atoms: C_8  and  C_9
REMARK    8  A    between atoms: C_11  and  N_12
REMARK    9  A    between atoms: C_11  and  C_17
REMARK   10  A    between atoms: C_13  and  O_15
REMARK   11  A    between atoms: O_15  and  C_16
REMARK                            x       y       z     vdW  Elec       q    Type
REMARK                         _______ _______ _______ _____ _____    ______ ____
ROOT
ATOM      1  C   UNL     1       3.718   6.214  18.489  0.00  0.00    +0.000 C 
ENDROOT
BRANCH   1   2
ATOM      2  C   UNL     1       2.761   7.383  18.764  0.00  0.00    +0.000 A 
ATOM      3  C   UNL     1       2.398   8.260  17.726  0.00  0.00    +0.000 A 
ATOM      4  C   UNL     1       1.443   9.266  17.934  0.00  0.00    +0.000 A 
ATOM      5  C   UNL     1       0.843   9.410  19.182  0.00  0.00    +0.000 A 
ATOM      6 CL   UNL     1      -0.362  10.615  19.426  0.00  0.00    +0.000 Cl
ATOM      7  C   UNL     1       1.204   8.573  20.230  0.00  0.00    +0.000 A 
ATOM      8  C   UNL     1       2.158   7.571  20.023  0.00  0.00    +0.000 A 
ENDBRANCH   1   2
BRANCH   1   9
ATOM      9  N   UNL     1       4.120   6.222  17.090  0.00  0.00    +0.000 N 
ATOM     10  C   UNL     1       5.362   6.585  16.666  0.00  0.00    +0.000 C 
ATOM     11  O   UNL     1       6.289   6.946  17.374  0.00  0.00    +0.000 OA
ATOM     12  H   UNL     1       3.456   5.997  16.365  0.00  0.00    +0.000 HD
BRANCH  10  13
ATOM     13  O   UNL     1       5.407   6.484  15.311  0.00  0.00    +0.000 OA
ATOM     14  C   UNL     1       5.737   5.185  14.835  0.00  0.00    +0.000 C 
ENDBRANCH  10  13
ENDBRANCH   1   9
BRANCH   1  15
ATOM     15  C   UNL     1       3.229   4.825  18.989  0.00  0.00    +0.000 C 
BRANCH  15  16
ATOM     16  C   UNL     1       4.259   3.732  18.717  0.00  0.00    +0.000 C 
ATOM     17  C   UNL     1       3.798   2.404  18.164  0.00  0.00    +0.000 C 
ATOM     18  O   UNL     1       5.459   3.866  18.965  0.00  0.00    +0.000 OA
ENDBRANCH  15  16
BRANCH  15  19
ATOM     19  C   UNL     1       1.858   4.454  18.463  0.00  0.00    +0.000 C 
ATOM     20  O   UNL     1       1.552   4.342  17.282  0.00  0.00    +0.000 OA
BRANCH  19  21
ATOM     21  O   UNL     1       1.002   4.267  19.504  0.00  0.00    +0.000 OA
BRANCH  21  22
ATOM     22  C   UNL     1       0.791   2.925  19.968  0.00  0.00    +0.000 C 
BRANCH  22  24
ATOM     23  C   UNL     1       2.530   2.581  21.744  0.00  0.00    +0.000 C 
ATOM     24  C   UNL     1       1.252   2.771  21.386  0.00  0.00    +0.000 C 
ENDBRANCH  22  24
ENDBRANCH  21  22
ENDBRANCH  19  21
ENDBRANCH  15  19
ENDBRANCH   1  15
TORSDOF 9
ENDMDL
MODEL 7
REMARK VINA RESULT:      -6.6      1.906      5.120
REMARK  Name = 
REMARK  11 active torsions:
REMARK  status: ('A' for Active; 'I' for Inactive)
REMARK    1  A    between atoms: C_2  and  C_3
REMARK    2  A    between atoms: C_3  and  O_4
REMARK    3  A    between atoms: O_4  and  C_5
REMARK    4  A    between atoms: C_5  and  C_7
REMARK    5  A    between atoms: C_7  and  C_8
REMARK    6  A    between atoms: C_7  and  C_11
REMARK    7  A    between atoms: C_8  and  C_9
REMARK    8  A    between atoms: C_11  and  N_12
REMARK    9  A    between atoms: C_11  and  C_17
REMARK   10  A    between atoms: C_13  and  O_15
REMARK   11  A    between atoms: O_15  and  C_16
REMARK                            x       y       z     vdW  Elec       q    Type
REMARK                         _______ _______ _______ _____ _____    ______ ____
ROOT
ATOM      1  C   UNL     1       4.166   5.059  17.313  0.00  0.00    +0.000 C 
ENDROOT
BRANCH   1   2
ATOM      2  C   UNL     1       3.451   6.211  18.034  0.00  0.00    +0.000 A 
ATOM      3  C   UNL     1       3.259   7.442  17.383  0.00  0.00    +0.000 A 
ATOM      4  C   UNL     1       2.514   8.468  17.985  0.00  0.00    +0.000 A 
ATOM      5  C   UNL     1       1.958   8.275  19.247  0.00  0.00    +0.000 A 
ATOM      6 CL   UNL     1       1.007   9.516  19.968  0.00  0.00    +0.000 Cl
ATOM      7  C   UNL     1       2.156   7.078  19.921  0.00  0.00    +0.000 A 
ATOM      8  C   UNL     1       2.900   6.056  19.321  0.00  0.00    +0.000 A 
ENDBRANCH   1   2
BRANCH   1   9
ATOM      9  N   UNL     1       4.079   3.845  18.111  0.00  0.00    +0.000 N 
ATOM     10  C   UNL     1       3.125   2.892  17.930  0.00  0.00    +0.000 C 
ATOM     11  O   UNL     1       2.230   2.916  17.101  0.00  0.00    +0.000 OA
ATOM     12  H   UNL     1       4.716   3.690  18.878  0.00  0.00    +0.000 HD
BRANCH  10  13
ATOM     13  O   UNL     1       3.325   1.897  18.835  0.00  0.00    +0.000 OA
ATOM     14  C   UNL     1       3.978   2.316  20.026  0.00  0.00    +0.000 C 
ENDBRANCH  10  13
ENDBRANCH   1   9
BRANCH   1  15
ATOM     15  C   UNL     1       5.606   5.379  16.819  0.00  0.00    +0.000 C 
BRANCH  15  16
ATOM     16  C   UNL     1       6.035   4.448  15.687  0.00  0.00    +0.000 C 
ATOM     17  C   UNL     1       6.736   5.027  14.481  0.00  0.00    +0.000 C 
ATOM     18  O   UNL     1       5.800   3.239  15.690  0.00  0.00    +0.000 OA
ENDBRANCH  15  16
BRANCH  15  19
ATOM     19  C   UNL     1       6.624   5.414  17.939  0.00  0.00    +0.000 C 
ATOM     20  O   UNL     1       6.623   4.690  18.928  0.00  0.00    +0.000 OA
BRANCH  19  21
ATOM     21  O   UNL     1       7.549   6.380  17.690  0.00  0.00    +0.000 OA
BRANCH  21  22
ATOM     22  C   UNL     1       7.102   7.743  17.643  0.00  0.00    +0.000 C 
BRANCH  22  24
ATOM     23  C   UNL     1       8.580   9.552  18.559  0.00  0.00    +0.000 C 
ATOM     24  C   UNL     1       8.266   8.685  17.585  0.00  0.00    +0.000 C 
ENDBRANCH  22  24
ENDBRANCH  21  22
ENDBRANCH  19  21
ENDBRANCH  15  19
ENDBRANCH   1  15
TORSDOF 9
ENDMDL
MODEL 8
REMARK VINA RESULT:      -6.5      1.423      3.896
REMARK  Name = 
REMARK  11 active torsions:
REMARK  status: ('A' for Active; 'I' for Inactive)
REMARK    1  A    between atoms: C_2  and  C_3
REMARK    2  A    between atoms: C_3  and  O_4
REMARK    3  A    between atoms: O_4  and  C_5
REMARK    4  A    between atoms: C_5  and  C_7
REMARK    5  A    between atoms: C_7  and  C_8
REMARK    6  A    between atoms: C_7  and  C_11
REMARK    7  A    between atoms: C_8  and  C_9
REMARK    8  A    between atoms: C_11  and  N_12
REMARK    9  A    between atoms: C_11  and  C_17
REMARK   10  A    between atoms: C_13  and  O_15
REMARK   11  A    between atoms: O_15  and  C_16
REMARK                            x       y       z     vdW  Elec       q    Type
REMARK                         _______ _______ _______ _____ _____    ______ ____
ROOT
ATOM      1  C   UNL     1       3.690   5.782  18.547  0.00  0.00    +0.000 C 
ENDROOT
BRANCH   1   2
ATOM      2  C   UNL     1       2.883   7.071  18.765  0.00  0.00    +0.000 A 
ATOM      3  C   UNL     1       2.724   7.991  17.715  0.00  0.00    +0.000 A 
ATOM      4  C   UNL     1       1.902   9.119  17.863  0.00  0.00    +0.000 A 
ATOM      5  C   UNL     1       1.234   9.341  19.065  0.00  0.00    +0.000 A 
ATOM      6 CL   UNL     1       0.191  10.699  19.233  0.00  0.00    +0.000 Cl
ATOM      7  C   UNL     1       1.396   8.459  20.125  0.00  0.00    +0.000 A 
ATOM      8  C   UNL     1       2.217   7.336  19.978  0.00  0.00    +0.000 A 
ENDBRANCH   1   2
BRANCH   1   9
ATOM      9  N   UNL     1       5.072   6.110  18.232  0.00  0.00    +0.000 N 
ATOM     10  C   UNL     1       6.139   5.599  18.904  0.00  0.00    +0.000 C 
ATOM     11  O   UNL     1       6.094   4.817  19.840  0.00  0.00    +0.000 OA
ATOM     12  H   UNL     1       5.287   6.784  17.512  0.00  0.00    +0.000 HD
BRANCH  10  13
ATOM     13  O   UNL     1       7.279   6.106  18.364  0.00  0.00    +0.000 OA
ATOM     14  C   UNL     1       7.060   7.059  17.331  0.00  0.00    +0.000 C 
ENDBRANCH  10  13
ENDBRANCH   1   9
BRANCH   1  15
ATOM     15  C   UNL     1       3.052   4.759  17.564  0.00  0.00    +0.000 C 
BRANCH  15  16
ATOM     16  C   UNL     1       1.818   4.090  18.166  0.00  0.00    +0.000 C 
ATOM     17  C   UNL     1       1.821   3.718  19.630  0.00  0.00    +0.000 C 
ATOM     18  O   UNL     1       0.823   3.800  17.500  0.00  0.00    +0.000 OA
ENDBRANCH  15  16
BRANCH  15  19
ATOM     19  C   UNL     1       4.045   3.745  17.036  0.00  0.00    +0.000 C 
ATOM     20  O   UNL     1       4.289   2.655  17.539  0.00  0.00    +0.000 OA
BRANCH  19  21
ATOM     21  O   UNL     1       4.640   4.226  15.911  0.00  0.00    +0.000 OA
BRANCH  21  22
ATOM     22  C   UNL     1       5.976   3.793  15.619  0.00  0.00    +0.000 C 
BRANCH  22  24
ATOM     23  C   UNL     1       6.330   3.769  13.135  0.00  0.00    +0.000 C 
ATOM     24  C   UNL     1       6.456   4.376  14.324  0.00  0.00    +0.000 C 
ENDBRANCH  22  24
ENDBRANCH  21  22
ENDBRANCH  19  21
ENDBRANCH  15  19
ENDBRANCH   1  15
TORSDOF 9
ENDMDL
MODEL 9
REMARK VINA RESULT:      -6.5      2.622      4.965
REMARK  Name = 
REMARK  11 active torsions:
REMARK  status: ('A' for Active; 'I' for Inactive)
REMARK    1  A    between atoms: C_2  and  C_3
REMARK    2  A    between atoms: C_3  and  O_4
REMARK    3  A    between atoms: O_4  and  C_5
REMARK    4  A    between atoms: C_5  and  C_7
REMARK    5  A    between atoms: C_7  and  C_8
REMARK    6  A    between atoms: C_7  and  C_11
REMARK    7  A    between atoms: C_8  and  C_9
REMARK    8  A    between atoms: C_11  and  N_12
REMARK    9  A    between atoms: C_11  and  C_17
REMARK   10  A    between atoms: C_13  and  O_15
REMARK   11  A    between atoms: O_15  and  C_16
REMARK                            x       y       z     vdW  Elec       q    Type
REMARK                         _______ _______ _______ _____ _____    ______ ____
ROOT
ATOM      1  C   UNL     1       5.579   4.277  17.143  0.00  0.00    +0.000 C 
ENDROOT
BRANCH   1   2
ATOM      2  C   UNL     1       4.311   3.712  17.802  0.00  0.00    +0.000 A 
ATOM      3  C   UNL     1       4.279   3.477  19.188  0.00  0.00    +0.000 A 
ATOM      4  C   UNL     1       3.097   3.064  19.821  0.00  0.00    +0.000 A 
ATOM      5  C   UNL     1       1.936   2.876  19.075  0.00  0.00    +0.000 A 
ATOM      6 CL   UNL     1       0.475   2.412  19.858  0.00  0.00    +0.000 Cl
ATOM      7  C   UNL     1       1.951   3.076  17.701  0.00  0.00    +0.000 A 
ATOM      8  C   UNL     1       3.130   3.486  17.069  0.00  0.00    +0.000 A 
ENDBRANCH   1   2
BRANCH   1   9
ATOM      9  N   UNL     1       6.441   4.869  18.156  0.00  0.00    +0.000 N 
ATOM     10  C   UNL     1       7.789   4.687  18.195  0.00  0.00    +0.000 C 
ATOM     11  O   UNL     1       8.450   4.022  17.414  0.00  0.00    +0.000 OA
ATOM     12  H   UNL     1       6.048   5.411  18.910  0.00  0.00    +0.000 HD
BRANCH  10  13
ATOM     13  O   UNL     1       8.291   5.370  19.259  0.00  0.00    +0.000 OA
ATOM     14  C   UNL     1       8.280   6.783  19.101  0.00  0.00    +0.000 C 
ENDBRANCH  10  13
ENDBRANCH   1   9
BRANCH   1  15
ATOM     15  C   UNL     1       5.333   5.201  15.917  0.00  0.00    +0.000 C 
BRANCH  15  16
ATOM     16  C   UNL     1       6.289   4.884  14.770  0.00  0.00    +0.000 C 
ATOM     17  C   UNL     1       5.878   3.874  13.723  0.00  0.00    +0.000 C 
ATOM     18  O   UNL     1       7.408   5.390  14.674  0.00  0.00    +0.000 OA
ENDBRANCH  15  16
BRANCH  15  19
ATOM     19  C   UNL     1       5.341   6.673  16.271  0.00  0.00    +0.000 C 
ATOM     20  O   UNL     1       6.341   7.362  16.437  0.00  0.00    +0.000 OA
BRANCH  19  21
ATOM     21  O   UNL     1       4.064   7.126  16.387  0.00  0.00    +0.000 OA
BRANCH  21  22
ATOM     22  C   UNL     1       3.661   7.689  17.644  0.00  0.00    +0.000 C 
BRANCH  22  24
ATOM     23  C   UNL     1       2.265   6.995  19.610  0.00  0.00    +0.000 C 
ATOM     24  C   UNL     1       2.776   6.742  18.397  0.00  0.00    +0.000 C 
ENDBRANCH  22  24
ENDBRANCH  21  22
ENDBRANCH  19  21
ENDBRANCH  15  19
ENDBRANCH   1  15
TORSDOF 9
ENDMDL
