MODEL 1
REMARK VINA RESULT:      -6.8      0.000      0.000
REMARK  Name = 
REMARK  8 active torsions:
REMARK  status: ('A' for Active; 'I' for Inactive)
REMARK    1  A    between atoms: C_1  and  O_2
REMARK    2  A    between atoms: O_2  and  C_3
REMARK    3  A    between atoms: C_3  and  C_5
REMARK    4  A    between atoms: C_7  and  C_8
REMARK    5  A    between atoms: C_8  and  O_10
REMARK    6  A    between atoms: O_10  and  C_11
REMARK    7  A    between atoms: C_15  and  N_16
REMARK    8  A    between atoms: C_17  and  N_18
REMARK                            x       y       z     vdW  Elec       q    Type
REMARK                         _______ _______ _______ _____ _____    ______ ____
ROOT
ATOM      1  C   UNL     1       2.141   6.976  19.846  0.00  0.00    +0.000 A 
ATOM      2  C   UNL     1       1.896   5.705  20.315  0.00  0.00    +0.000 A 
ATOM      3  C   UNL     1       2.534   4.633  19.675  0.00  0.00    +0.000 A 
ATOM      4  C   UNL     1       3.398   4.843  18.542  0.00  0.00    +0.000 A 
ATOM      5  C   UNL     1       4.081   3.893  17.702  0.00  0.00    +0.000 A 
ATOM      6 CL   UNL     1       3.675   2.197  17.724  0.00  0.00    +0.000 Cl
ATOM      7  C   UNL     1       4.975   4.297  16.678  0.00  0.00    +0.000 A 
ATOM      8  C   UNL     1       5.219   5.661  16.483  0.00  0.00    +0.000 A 
ATOM      9  C   UNL     1       4.448   6.577  17.187  0.00  0.00    +0.000 A 
ATOM     10  C   UNL     1       3.585   6.201  18.203  0.00  0.00    +0.000 A 
ATOM     11  N   UNL     1       2.976   7.218  18.815  0.00  0.00    +0.000 NA
ENDROOT
BRANCH   7  12
ATOM     12  N   UNL     1       5.777   3.360  15.969  0.00  0.00    +0.000 N 
ATOM     13  H   UNL     1       5.234   2.554  15.663  0.00  0.00    +0.000 HD
ATOM     14  H   UNL     1       6.263   3.810  15.198  0.00  0.00    +0.000 HD
ENDBRANCH   7  12
BRANCH   8  15
ATOM     15  N   UNL     1       6.044   6.098  15.425  0.00  0.00    +0.000 N 
ATOM     16  H   UNL     1       7.023   6.084  15.706  0.00  0.00    +0.000 HD
ATOM     17  H   UNL     1       5.782   7.010  15.061  0.00  0.00    +0.000 HD
ENDBRANCH   8  15
BRANCH   1  18
ATOM     18  C   UNL     1       1.511   8.157  20.516  0.00  0.00    +0.000 C 
ATOM     19  O   UNL     1       1.274   8.198  21.714  0.00  0.00    +0.000 OA
BRANCH  18  21
ATOM     20  C   UNL     1       0.095   9.908  19.862  0.00  0.00    +0.000 C 
ATOM     21  O   UNL     1       1.264   9.131  19.610  0.00  0.00    +0.000 OA
ENDBRANCH  18  21
ENDBRANCH   1  18
BRANCH   3  22
ATOM     22  C   UNL     1       2.411   3.322  20.369  0.00  0.00    +0.000 C 
ATOM     23  O   UNL     1       3.333   2.772  20.944  0.00  0.00    +0.000 OA
BRANCH  22  24
ATOM     24  O   UNL     1       1.118   2.911  20.347  0.00  0.00    +0.000 OA
ATOM     25  C   UNL     1       0.631   2.476  19.069  0.00  0.00    +0.000 C 
ENDBRANCH  22  24
ENDBRANCH   3  22
TORSDOF 6
ENDMDL
MODEL 2
REMARK VINA RESULT:      -6.8      2.983      5.343
REMARK  Name = 
REMARK  8 active torsions:
REMARK  status: ('A' for Active; 'I' for Inactive)
REMARK    1  A    between atoms: C_1  and  O_2
REMARK    2  A    between atoms: O_2  and  C_3
REMARK    3  A    between atoms: C_3  and  C_5
REMARK    4  A    between atoms: C_7  and  C_8
REMARK    5  A    between atoms: C_8  and  O_10
REMARK    6  A    between atoms: O_10  and  C_11
REMARK    7  A    between atoms: C_15  and  N_16
REMARK    8  A    between atoms: C_17  and  N_18
REMARK                            x       y       z     vdW  Elec       q    Type
REMARK                         _______ _______ _______ _____ _____    ______ ____
ROOT
ATOM      1  C   UNL     1       5.367   5.034  16.266  0.00  0.00    +0.000 A 
ATOM      2  C   UNL     1       5.227   3.929  17.074  0.00  0.00    +0.000 A 
ATOM      3  C   UNL     1       4.400   4.038  18.201  0.00  0.00    +0.000 A 
ATOM      4  C   UNL     1       3.737   5.274  18.528  0.00  0.00    +0.000 A 
ATOM      5  C   UNL     1       2.919   5.622  19.660  0.00  0.00    +0.000 A 
ATOM      6 CL   UNL     1       2.868   4.626  21.091  0.00  0.00    +0.000 Cl
ATOM      7  C   UNL     1       2.267   6.877  19.764  0.00  0.00    +0.000 A 
ATOM      8  C   UNL     1       2.404   7.805  18.726  0.00  0.00    +0.000 A 
ATOM      9  C   UNL     1       3.312   7.532  17.710  0.00  0.00    +0.000 A 
ATOM     10  C   UNL     1       3.943   6.305  17.585  0.00  0.00    +0.000 A 
ATOM     11  N   UNL     1       4.730   6.197  16.514  0.00  0.00    +0.000 NA
ENDROOT
BRANCH   7  12
ATOM     12  N   UNL     1       1.325   7.151  20.793  0.00  0.00    +0.000 N 
ATOM     13  H   UNL     1       1.765   7.586  21.602  0.00  0.00    +0.000 HD
ATOM     14  H   UNL     1       0.548   7.702  20.436  0.00  0.00    +0.000 HD
ENDBRANCH   7  12
BRANCH   8  15
ATOM     15  N   UNL     1       1.831   9.090  18.832  0.00  0.00    +0.000 N 
ATOM     16  H   UNL     1       0.902   9.033  19.247  0.00  0.00    +0.000 HD
ATOM     17  H   UNL     1       1.806   9.594  17.950  0.00  0.00    +0.000 HD
ENDBRANCH   8  15
BRANCH   1  18
ATOM     18  C   UNL     1       6.211   4.959  15.032  0.00  0.00    +0.000 C 
ATOM     19  O   UNL     1       7.379   5.317  14.998  0.00  0.00    +0.000 OA
BRANCH  18  21
ATOM     20  C   UNL     1       6.240   3.640  13.093  0.00  0.00    +0.000 C 
ATOM     21  O   UNL     1       5.495   4.443  14.007  0.00  0.00    +0.000 OA
ENDBRANCH  18  21
ENDBRANCH   1  18
BRANCH   3  22
ATOM     22  C   UNL     1       4.110   2.755  18.896  0.00  0.00    +0.000 C 
ATOM     23  O   UNL     1       4.678   2.393  19.912  0.00  0.00    +0.000 OA
BRANCH  22  24
ATOM     24  O   UNL     1       3.067   2.131  18.293  0.00  0.00    +0.000 OA
ATOM     25  C   UNL     1       1.893   1.970  19.103  0.00  0.00    +0.000 C 
ENDBRANCH  22  24
ENDBRANCH   3  22
TORSDOF 6
ENDMDL
MODEL 3
REMARK VINA RESULT:      -6.8      2.874      4.386
REMARK  Name = 
REMARK  8 active torsions:
REMARK  status: ('A' for Active; 'I' for Inactive)
REMARK    1  A    between atoms: C_1  and  O_2
REMARK    2  A    between atoms: O_2  and  C_3
REMARK    3  A    between atoms: C_3  and  C_5
REMARK    4  A    between atoms: C_7  and  C_8
REMARK    5  A    between atoms: C_8  and  O_10
REMARK    6  A    between atoms: O_10  and  C_11
REMARK    7  A    between atoms: C_15  and  N_16
REMARK    8  A    between atoms: C_17  and  N_18
REMARK                            x       y       z     vdW  Elec       q    Type
REMARK                         _______ _______ _______ _____ _____    ______ ____
ROOT
ATOM      1  C   UNL     1       2.566   7.913  18.405  0.00  0.00    +0.000 A 
ATOM      2  C   UNL     1       3.614   7.799  17.519  0.00  0.00    +0.000 A 
ATOM      3  C   UNL     1       4.373   6.620  17.545  0.00  0.00    +0.000 A 
ATOM      4  C   UNL     1       4.092   5.568  18.489  0.00  0.00    +0.000 A 
ATOM      5  C   UNL     1       4.782   4.329  18.736  0.00  0.00    +0.000 A 
ATOM      6 CL   UNL     1       6.382   4.035  18.110  0.00  0.00    +0.000 Cl
ATOM      7  C   UNL     1       4.295   3.364  19.653  0.00  0.00    +0.000 A 
ATOM      8  C   UNL     1       3.096   3.609  20.331  0.00  0.00    +0.000 A 
ATOM      9  C   UNL     1       2.512   4.864  20.208  0.00  0.00    +0.000 A 
ATOM     10  C   UNL     1       2.964   5.811  19.303  0.00  0.00    +0.000 A 
ATOM     11  N   UNL     1       2.244   6.933  19.274  0.00  0.00    +0.000 NA
ENDROOT
BRANCH   7  12
ATOM     12  N   UNL     1       4.881   2.073  19.766  0.00  0.00    +0.000 N 
ATOM     13  H   UNL     1       4.542   1.440  19.043  0.00  0.00    +0.000 HD
ATOM     14  H   UNL     1       5.896   2.135  19.776  0.00  0.00    +0.000 HD
ENDBRANCH   7  12
BRANCH   8  15
ATOM     15  N   UNL     1       2.623   2.704  21.304  0.00  0.00    +0.000 N 
ATOM     16  H   UNL     1       1.691   2.372  21.060  0.00  0.00    +0.000 HD
ATOM     17  H   UNL     1       2.640   3.082  22.247  0.00  0.00    +0.000 HD
ENDBRANCH   8  15
BRANCH   1  18
ATOM     18  C   UNL     1       1.705   9.137  18.393  0.00  0.00    +0.000 C 
ATOM     19  O   UNL     1       1.705   9.946  17.478  0.00  0.00    +0.000 OA
BRANCH  18  21
ATOM     20  C   UNL     1      -0.103  10.149  19.494  0.00  0.00    +0.000 C 
ATOM     21  O   UNL     1       0.953   9.190  19.518  0.00  0.00    +0.000 OA
ENDBRANCH  18  21
ENDBRANCH   1  18
BRANCH   3  22
ATOM     22  C   UNL     1       5.333   6.464  16.420  0.00  0.00    +0.000 C 
ATOM     23  O   UNL     1       5.191   5.659  15.517  0.00  0.00    +0.000 OA
BRANCH  22  24
ATOM     24  O   UNL     1       6.301   7.411  16.507  0.00  0.00    +0.000 OA
ATOM     25  C   UNL     1       7.335   7.149  17.467  0.00  0.00    +0.000 C 
ENDBRANCH  22  24
ENDBRANCH   3  22
TORSDOF 6
ENDMDL
MODEL 4
REMARK VINA RESULT:      -6.7      2.885      4.262
REMARK  Name = 
REMARK  8 active torsions:
REMARK  status: ('A' for Active; 'I' for Inactive)
REMARK    1  A    between atoms: C_1  and  O_2
REMARK    2  A    between atoms: O_2  and  C_3
REMARK    3  A    between atoms: C_3  and  C_5
REMARK    4  A    between atoms: C_7  and  C_8
REMARK    5  A    between atoms: C_8  and  O_10
REMARK    6  A    between atoms: O_10  and  C_11
REMARK    7  A    between atoms: C_15  and  N_16
REMARK    8  A    between atoms: C_17  and  N_18
REMARK                            x       y       z     vdW  Elec       q    Type
REMARK                         _______ _______ _______ _____ _____    ______ ____
ROOT
ATOM      1  C   UNL     1       2.579   7.937  18.368  0.00  0.00    +0.000 A 
ATOM      2  C   UNL     1       3.662   7.856  17.521  0.00  0.00    +0.000 A 
ATOM      3  C   UNL     1       4.447   6.696  17.565  0.00  0.00    +0.000 A 
ATOM      4  C   UNL     1       4.157   5.628  18.487  0.00  0.00    +0.000 A 
ATOM      5  C   UNL     1       4.867   4.403  18.749  0.00  0.00    +0.000 A 
ATOM      6 CL   UNL     1       6.496   4.153  18.180  0.00  0.00    +0.000 Cl
ATOM      7  C   UNL     1       4.370   3.417  19.638  0.00  0.00    +0.000 A 
ATOM      8  C   UNL     1       3.140   3.628  20.273  0.00  0.00    +0.000 A 
ATOM      9  C   UNL     1       2.532   4.869  20.140  0.00  0.00    +0.000 A 
ATOM     10  C   UNL     1       2.994   5.836  19.262  0.00  0.00    +0.000 A 
ATOM     11  N   UNL     1       2.249   6.941  19.216  0.00  0.00    +0.000 NA
ENDROOT
BRANCH   7  12
ATOM     12  N   UNL     1       4.982   2.140  19.761  0.00  0.00    +0.000 N 
ATOM     13  H   UNL     1       4.311   1.424  20.036  0.00  0.00    +0.000 HD
ATOM     14  H   UNL     1       5.479   1.892  18.909  0.00  0.00    +0.000 HD
ENDBRANCH   7  12
BRANCH   8  15
ATOM     15  N   UNL     1       2.654   2.702  21.220  0.00  0.00    +0.000 N 
ATOM     16  H   UNL     1       2.102   1.979  20.761  0.00  0.00    +0.000 HD
ATOM     17  H   UNL     1       2.131   3.136  21.975  0.00  0.00    +0.000 HD
ENDBRANCH   8  15
BRANCH   1  18
ATOM     18  C   UNL     1       1.690   9.140  18.335  0.00  0.00    +0.000 C 
ATOM     19  O   UNL     1       1.710   9.962  17.432  0.00  0.00    +0.000 OA
BRANCH  18  21
ATOM     20  C   UNL     1      -0.019  10.257  19.491  0.00  0.00    +0.000 C 
ATOM     21  O   UNL     1       0.889   9.158  19.426  0.00  0.00    +0.000 OA
ENDBRANCH  18  21
ENDBRANCH   1  18
BRANCH   3  22
ATOM     22  C   UNL     1       5.452   6.573  16.474  0.00  0.00    +0.000 C 
ATOM     23  O   UNL     1       6.554   7.092  16.509  0.00  0.00    +0.000 OA
BRANCH  22  24
ATOM     24  O   UNL     1       4.992   5.726  15.520  0.00  0.00    +0.000 OA
ATOM     25  C   UNL     1       6.003   5.026  14.778  0.00  0.00    +0.000 C 
ENDBRANCH  22  24
ENDBRANCH   3  22
TORSDOF 6
ENDMDL
MODEL 5
REMARK VINA RESULT:      -6.6      3.084      5.561
REMARK  Name = 
REMARK  8 active torsions:
REMARK  status: ('A' for Active; 'I' for Inactive)
REMARK    1  A    between atoms: C_1  and  O_2
REMARK    2  A    between atoms: O_2  and  C_3
REMARK    3  A    between atoms: C_3  and  C_5
REMARK    4  A    between atoms: C_7  and  C_8
REMARK    5  A    between atoms: C_8  and  O_10
REMARK    6  A    between atoms: O_10  and  C_11
REMARK    7  A    between atoms: C_15  and  N_16
REMARK    8  A    between atoms: C_17  and  N_18
REMARK                            x       y       z     vdW  Elec       q    Type
REMARK                         _______ _______ _______ _____ _____    ______ ____
ROOT
ATOM      1  C   UNL     1       5.620   4.982  16.078  0.00  0.00    +0.000 A 
ATOM      2  C   UNL     1       5.330   3.956  16.949  0.00  0.00    +0.000 A 
ATOM      3  C   UNL     1       4.427   4.211  17.990  0.00  0.00    +0.000 A 
ATOM      4  C   UNL     1       3.840   5.514  18.170  0.00  0.00    +0.000 A 
ATOM      5  C   UNL     1       2.964   6.007  19.201  0.00  0.00    +0.000 A 
ATOM      6 CL   UNL     1       2.721   5.131  20.689  0.00  0.00    +0.000 Cl
ATOM      7  C   UNL     1       2.406   7.310  19.159  0.00  0.00    +0.000 A 
ATOM      8  C   UNL     1       2.698   8.143  18.073  0.00  0.00    +0.000 A 
ATOM      9  C   UNL     1       3.659   7.727  17.160  0.00  0.00    +0.000 A 
ATOM     10  C   UNL     1       4.200   6.452  17.177  0.00  0.00    +0.000 A 
ATOM     11  N   UNL     1       5.058   6.204  16.187  0.00  0.00    +0.000 NA
ENDROOT
BRANCH   7  12
ATOM     12  N   UNL     1       1.409   7.730  20.082  0.00  0.00    +0.000 N 
ATOM     13  H   UNL     1       1.728   7.648  21.046  0.00  0.00    +0.000 HD
ATOM     14  H   UNL     1       1.086   8.670  19.864  0.00  0.00    +0.000 HD
ENDBRANCH   7  12
BRANCH   8  15
ATOM     15  N   UNL     1       2.220   9.470  18.037  0.00  0.00    +0.000 N 
ATOM     16  H   UNL     1       2.888  10.077  17.565  0.00  0.00    +0.000 HD
ATOM     17  H   UNL     1       1.977   9.836  18.953  0.00  0.00    +0.000 HD
ENDBRANCH   8  15
BRANCH   1  18
ATOM     18  C   UNL     1       6.552   4.750  14.930  0.00  0.00    +0.000 C 
ATOM     19  O   UNL     1       7.513   5.467  14.693  0.00  0.00    +0.000 OA
BRANCH  18  21
ATOM     20  C   UNL     1       6.415   3.718  12.828  0.00  0.00    +0.000 C 
ATOM     21  O   UNL     1       6.169   3.656  14.232  0.00  0.00    +0.000 OA
ENDBRANCH  18  21
ENDBRANCH   1  18
BRANCH   3  22
ATOM     22  C   UNL     1       3.983   3.011  18.748  0.00  0.00    +0.000 C 
ATOM     23  O   UNL     1       2.977   2.377  18.482  0.00  0.00    +0.000 OA
BRANCH  22  24
ATOM     24  O   UNL     1       4.913   2.687  19.681  0.00  0.00    +0.000 OA
ATOM     25  C   UNL     1       4.440   1.881  20.771  0.00  0.00    +0.000 C 
ENDBRANCH  22  24
ENDBRANCH   3  22
TORSDOF 6
ENDMDL
MODEL 6
REMARK VINA RESULT:      -6.6      2.822      4.280
REMARK  Name = 
REMARK  8 active torsions:
REMARK  status: ('A' for Active; 'I' for Inactive)
REMARK    1  A    between atoms: C_1  and  O_2
REMARK    2  A    between atoms: O_2  and  C_3
REMARK    3  A    between atoms: C_3  and  C_5
REMARK    4  A    between atoms: C_7  and  C_8
REMARK    5  A    between atoms: C_8  and  O_10
REMARK    6  A    between atoms: O_10  and  C_11
REMARK    7  A    between atoms: C_15  and  N_16
REMARK    8  A    between atoms: C_17  and  N_18
REMARK                            x       y       z     vdW  Elec       q    Type
REMARK                         _______ _______ _______ _____ _____    ______ ____
ROOT
ATOM      1  C   UNL     1       2.553   7.713  18.101  0.00  0.00    +0.000 A 
ATOM      2  C   UNL     1       3.754   7.740  17.427  0.00  0.00    +0.000 A 
ATOM      3  C   UNL     1       4.394   6.519  17.175  0.00  0.00    +0.000 A 
ATOM      4  C   UNL     1       3.836   5.271  17.630  0.00  0.00    +0.000 A 
ATOM      5  C   UNL     1       4.358   3.932  17.548  0.00  0.00    +0.000 A 
ATOM      6 CL   UNL     1       6.027   3.625  17.149  0.00  0.00    +0.000 Cl
ATOM      7  C   UNL     1       3.612   2.803  17.974  0.00  0.00    +0.000 A 
ATOM      8  C   UNL     1       2.318   2.989  18.474  0.00  0.00    +0.000 A 
ATOM      9  C   UNL     1       1.875   4.287  18.694  0.00  0.00    +0.000 A 
ATOM     10  C   UNL     1       2.583   5.399  18.268  0.00  0.00    +0.000 A 
ATOM     11  N   UNL     1       1.976   6.563  18.505  0.00  0.00    +0.000 NA
ENDROOT
BRANCH   7  12
ATOM     12  N   UNL     1       4.057   1.475  17.732  0.00  0.00    +0.000 N 
ATOM     13  H   UNL     1       4.154   0.946  18.597  0.00  0.00    +0.000 HD
ATOM     14  H   UNL     1       3.452   1.006  17.062  0.00  0.00    +0.000 HD
ENDBRANCH   7  12
BRANCH   8  15
ATOM     15  N   UNL     1       1.578   1.897  18.974  0.00  0.00    +0.000 N 
ATOM     16  H   UNL     1       2.192   1.240  19.454  0.00  0.00    +0.000 HD
ATOM     17  H   UNL     1       1.023   1.428  18.265  0.00  0.00    +0.000 HD
ENDBRANCH   8  15
BRANCH   1  18
ATOM     18  C   UNL     1       1.813   8.987  18.364  0.00  0.00    +0.000 C 
ATOM     19  O   UNL     1       1.742   9.899  17.554  0.00  0.00    +0.000 OA
BRANCH  18  21
ATOM     20  C   UNL     1       0.234   9.927  19.822  0.00  0.00    +0.000 C 
ATOM     21  O   UNL     1       1.254   8.957  19.597  0.00  0.00    +0.000 OA
ENDBRANCH  18  21
ENDBRANCH   1  18
BRANCH   3  22
ATOM     22  C   UNL     1       5.558   6.597  16.251  0.00  0.00    +0.000 C 
ATOM     23  O   UNL     1       5.567   6.114  15.132  0.00  0.00    +0.000 OA
BRANCH  22  24
ATOM     24  O   UNL     1       6.531   7.364  16.802  0.00  0.00    +0.000 OA
ATOM     25  C   UNL     1       7.376   6.699  17.754  0.00  0.00    +0.000 C 
ENDBRANCH  22  24
ENDBRANCH   3  22
TORSDOF 6
ENDMDL
MODEL 7
REMARK VINA RESULT:      -6.5      1.109      1.474
REMARK  Name = 
REMARK  8 active torsions:
REMARK  status: ('A' for Active; 'I' for Inactive)
REMARK    1  A    between atoms: C_1  and  O_2
REMARK    2  A    between atoms: O_2  and  C_3
REMARK    3  A    between atoms: C_3  and  C_5
REMARK    4  A    between atoms: C_7  and  C_8
REMARK    5  A    between atoms: C_8  and  O_10
REMARK    6  A    between atoms: O_10  and  C_11
REMARK    7  A    between atoms: C_15  and  N_16
REMARK    8  A    between atoms: C_17  and  N_18
REMARK                            x       y       z     vdW  Elec       q    Type
REMARK                         _______ _______ _______ _____ _____    ______ ____
ROOT
ATOM      1  C   UNL     1       2.498   7.716  18.297  0.00  0.00    +0.000 A 
ATOM      2  C   UNL     1       2.061   6.596  18.968  0.00  0.00    +0.000 A 
ATOM      3  C   UNL     1       2.661   5.367  18.658  0.00  0.00    +0.000 A 
ATOM      4  C   UNL     1       3.683   5.265  17.648  0.00  0.00    +0.000 A 
ATOM      5  C   UNL     1       4.365   4.110  17.126  0.00  0.00    +0.000 A 
ATOM      6 CL   UNL     1       3.784   2.493  17.425  0.00  0.00    +0.000 Cl
ATOM      7  C   UNL     1       5.423   4.217  16.187  0.00  0.00    +0.000 A 
ATOM      8  C   UNL     1       5.833   5.486  15.763  0.00  0.00    +0.000 A 
ATOM      9  C   UNL     1       5.078   6.587  16.147  0.00  0.00    +0.000 A 
ATOM     10  C   UNL     1       4.055   6.502  17.077  0.00  0.00    +0.000 A 
ATOM     11  N   UNL     1       3.482   7.669  17.375  0.00  0.00    +0.000 NA
ENDROOT
BRANCH   7  12
ATOM     12  N   UNL     1       6.207   3.093  15.808  0.00  0.00    +0.000 N 
ATOM     13  H   UNL     1       6.358   2.457  16.589  0.00  0.00    +0.000 HD
ATOM     14  H   UNL     1       5.801   2.622  15.003  0.00  0.00    +0.000 HD
ENDBRANCH   7  12
BRANCH   8  15
ATOM     15  N   UNL     1       6.830   5.625  14.775  0.00  0.00    +0.000 N 
ATOM     16  H   UNL     1       6.716   4.918  14.050  0.00  0.00    +0.000 HD
ATOM     17  H   UNL     1       7.774   5.613  15.151  0.00  0.00    +0.000 HD
ENDBRANCH   8  15
BRANCH   1  18
ATOM     18  C   UNL     1       1.914   9.057  18.616  0.00  0.00    +0.000 C 
ATOM     19  O   UNL     1       2.010  10.021  17.873  0.00  0.00    +0.000 OA
BRANCH  18  21
ATOM     20  C   UNL     1       0.169   9.900  19.937  0.00  0.00    +0.000 C 
ATOM     21  O   UNL     1       1.283   9.018  19.813  0.00  0.00    +0.000 OA
ENDBRANCH  18  21
ENDBRANCH   1  18
BRANCH   3  22
ATOM     22  C   UNL     1       2.311   4.247  19.572  0.00  0.00    +0.000 C 
ATOM     23  O   UNL     1       3.070   3.796  20.412  0.00  0.00    +0.000 OA
BRANCH  22  24
ATOM     24  O   UNL     1       1.011   3.899  19.396  0.00  0.00    +0.000 OA
ATOM     25  C   UNL     1       0.778   2.513  19.105  0.00  0.00    +0.000 C 
ENDBRANCH  22  24
ENDBRANCH   3  22
TORSDOF 6
ENDMDL
MODEL 8
REMARK VINA RESULT:      -6.3      3.058      5.441
REMARK  Name = 
REMARK  8 active torsions:
REMARK  status: ('A' for Active; 'I' for Inactive)
REMARK    1  A    between atoms: C_1  and  O_2
REMARK    2  A    between atoms: O_2  and  C_3
REMARK    3  A    between atoms: C_3  and  C_5
REMARK    4  A    between atoms: C_7  and  C_8
REMARK    5  A    between atoms: C_8  and  O_10
REMARK    6  A    between atoms: O_10  and  C_11
REMARK    7  A    between atoms: C_15  and  N_16
REMARK    8  A    between atoms: C_17  and  N_18
REMARK                            x       y       z     vdW  Elec       q    Type
REMARK                         _______ _______ _______ _____ _____    ______ ____
ROOT
ATOM      1  C   UNL     1       5.451   4.684  15.815  0.00  0.00    +0.000 A 
ATOM      2  C   UNL     1       5.133   3.635  16.649  0.00  0.00    +0.000 A 
ATOM      3  C   UNL     1       4.299   3.896  17.745  0.00  0.00    +0.000 A 
ATOM      4  C   UNL     1       3.812   5.224  18.018  0.00  0.00    +0.000 A 
ATOM      5  C   UNL     1       3.022   5.720  19.114  0.00  0.00    +0.000 A 
ATOM      6 CL   UNL     1       2.790   4.786  20.569  0.00  0.00    +0.000 Cl
ATOM      7  C   UNL     1       2.553   7.057  19.163  0.00  0.00    +0.000 A 
ATOM      8  C   UNL     1       2.850   7.924  18.105  0.00  0.00    +0.000 A 
ATOM      9  C   UNL     1       3.736   7.493  17.126  0.00  0.00    +0.000 A 
ATOM     10  C   UNL     1       4.188   6.185  17.054  0.00  0.00    +0.000 A 
ATOM     11  N   UNL     1       4.980   5.932  16.011  0.00  0.00    +0.000 NA
ENDROOT
BRANCH   7  12
ATOM     12  N   UNL     1       1.632   7.495  20.155  0.00  0.00    +0.000 N 
ATOM     13  H   UNL     1       0.709   7.672  19.761  0.00  0.00    +0.000 HD
ATOM     14  H   UNL     1       1.598   6.839  20.932  0.00  0.00    +0.000 HD
ENDBRANCH   7  12
BRANCH   8  15
ATOM     15  N   UNL     1       2.463   9.280  18.158  0.00  0.00    +0.000 N 
ATOM     16  H   UNL     1       1.449   9.360  18.218  0.00  0.00    +0.000 HD
ATOM     17  H   UNL     1       2.828   9.833  17.388  0.00  0.00    +0.000 HD
ENDBRANCH   8  15
BRANCH   1  18
ATOM     18  C   UNL     1       6.309   4.450  14.611  0.00  0.00    +0.000 C 
ATOM     19  O   UNL     1       6.042   3.625  13.750  0.00  0.00    +0.000 OA
BRANCH  18  21
ATOM     20  C   UNL     1       7.994   5.506  13.366  0.00  0.00    +0.000 C 
ATOM     21  O   UNL     1       7.381   5.276  14.634  0.00  0.00    +0.000 OA
ENDBRANCH  18  21
ENDBRANCH   1  18
BRANCH   3  22
ATOM     22  C   UNL     1       3.810   2.690  18.466  0.00  0.00    +0.000 C 
ATOM     23  O   UNL     1       4.293   2.282  19.507  0.00  0.00    +0.000 OA
BRANCH  22  24
ATOM     24  O   UNL     1       2.704   2.203  17.849  0.00  0.00    +0.000 OA
ATOM     25  C   UNL     1       1.491   2.270  18.614  0.00  0.00    +0.000 C 
ENDBRANCH  22  24
ENDBRANCH   3  22
TORSDOF 6
ENDMDL
MODEL 9
REMARK VINA RESULT:      -6.3      0.780      1.421
REMARK  Name = 
REMARK  8 active torsions:
REMARK  status: ('A' for Active; 'I' for Inactive)
REMARK    1  A    between atoms: C_1  and  O_2
REMARK    2  A    between atoms: O_2  and  C_3
REMARK    3  A    between atoms: C_3  and  C_5
REMARK    4  A    between atoms: C_7  and  C_8
REMARK    5  A    between atoms: C_8  and  O_10
REMARK    6  A    between atoms: O_10  and  C_11
REMARK    7  A    between atoms: C_15  and  N_16
REMARK    8  A    between atoms: C_17  and  N_18
REMARK                            x       y       z     vdW  Elec       q    Type
REMARK                         _______ _______ _______ _____ _____    ______ ____
ROOT
ATOM      1  C   UNL     1       2.074   7.286  19.507  0.00  0.00    +0.000 A 
ATOM      2  C   UNL     1       1.594   6.041  19.849  0.00  0.00    +0.000 A 
ATOM      3  C   UNL     1       2.176   4.922  19.238  0.00  0.00    +0.000 A 
ATOM      4  C   UNL     1       3.223   5.061  18.258  0.00  0.00    +0.000 A 
ATOM      5  C   UNL     1       3.895   4.066  17.464  0.00  0.00    +0.000 A 
ATOM      6 CL   UNL     1       3.271   2.445  17.312  0.00  0.00    +0.000 Cl
ATOM      7  C   UNL     1       4.980   4.388  16.610  0.00  0.00    +0.000 A 
ATOM      8  C   UNL     1       5.429   5.712  16.545  0.00  0.00    +0.000 A 
ATOM      9  C   UNL     1       4.687   6.693  17.191  0.00  0.00    +0.000 A 
ATOM     10  C   UNL     1       3.637   6.394  18.043  0.00  0.00    +0.000 A 
ATOM     11  N   UNL     1       3.081   7.457  18.627  0.00  0.00    +0.000 NA
ENDROOT
BRANCH   7  12
ATOM     12  N   UNL     1       5.751   3.382  15.964  0.00  0.00    +0.000 N 
ATOM     13  H   UNL     1       5.681   3.447  14.949  0.00  0.00    +0.000 HD
ATOM     14  H   UNL     1       6.716   3.404  16.283  0.00  0.00    +0.000 HD
ENDBRANCH   7  12
BRANCH   8  15
ATOM     15  N   UNL     1       6.456   6.079  15.650  0.00  0.00    +0.000 N 
ATOM     16  H   UNL     1       6.809   7.008  15.874  0.00  0.00    +0.000 HD
ATOM     17  H   UNL     1       6.181   6.017  14.675  0.00  0.00    +0.000 HD
ENDBRANCH   8  15
BRANCH   1  18
ATOM     18  C   UNL     1       1.509   8.511  20.157  0.00  0.00    +0.000 C 
ATOM     19  O   UNL     1       1.201   9.516  19.535  0.00  0.00    +0.000 OA
BRANCH  18  21
ATOM     20  C   UNL     1       0.761   9.382  22.202  0.00  0.00    +0.000 C 
ATOM     21  O   UNL     1       1.397   8.321  21.493  0.00  0.00    +0.000 OA
ENDBRANCH  18  21
ENDBRANCH   1  18
BRANCH   3  22
ATOM     22  C   UNL     1       1.777   3.610  19.816  0.00  0.00    +0.000 C 
ATOM     23  O   UNL     1       0.776   3.000  19.482  0.00  0.00    +0.000 OA
BRANCH  22  24
ATOM     24  O   UNL     1       2.739   3.171  20.665  0.00  0.00    +0.000 OA
ATOM     25  C   UNL     1       2.264   2.616  21.901  0.00  0.00    +0.000 C 
ENDBRANCH  22  24
ENDBRANCH   3  22
TORSDOF 6
ENDMDL
