MODEL 1
REMARK VINA RESULT:      -7.8      0.000      0.000
REMARK  Name = 
REMARK  6 active torsions:
REMARK  status: ('A' for Active; 'I' for Inactive)
REMARK    1  A    between atoms: C_1  and  C_2
REMARK    2  A    between atoms: C_7  and  N_8
REMARK    3  A    between atoms: C_9  and  C_11
REMARK    4  A    between atoms: N_19  and  C_20
REMARK    5  A    between atoms: C_20  and  C_21
REMARK    6  A    between atoms: C_21  and  C_22
REMARK                            x       y       z     vdW  Elec       q    Type
REMARK                         _______ _______ _______ _____ _____    ______ ____
ROOT
ATOM      1  C   UNL     1      -3.847  12.261  24.338  0.00  0.00    +0.000 C 
ATOM      2  C   UNL     1      -2.889  12.116  23.156  0.00  0.00    +0.000 C 
ATOM      3  O   UNL     1      -1.585  11.860  23.671  0.00  0.00    +0.000 OA
ATOM      4  C   UNL     1      -0.839  11.138  22.776  0.00  0.00    +0.000 A 
ATOM      5  C   UNL     1      -0.475   9.849  23.136  0.00  0.00    +0.000 A 
ATOM      6  C   UNL     1       0.295   9.078  22.265  0.00  0.00    +0.000 A 
ATOM      7  C   UNL     1       0.732   9.595  21.048  0.00  0.00    +0.000 A 
ATOM      8  C   UNL     1       0.405  10.920  20.714  0.00  0.00    +0.000 A 
ATOM      9  C   UNL     1      -0.410  11.694  21.566  0.00  0.00    +0.000 A 
ATOM     10  C   UNL     1      -0.787  13.106  21.219  0.00  0.00    +0.000 C 
ATOM     11  N   UNL     1      -2.224  13.303  21.092  0.00  0.00    +0.000 N 
ATOM     12  C   UNL     1      -3.015  13.348  22.233  0.00  0.00    +0.000 C 
ATOM     13  O   UNL     1      -3.873  14.212  22.402  0.00  0.00    +0.000 OA
ENDROOT
BRANCH   7  14
ATOM     14  N   UNL     1       1.503   8.837  20.138  0.00  0.00    +0.000 N 
ATOM     15  C   UNL     1       1.764   7.468  20.213  0.00  0.00    +0.000 C 
ATOM     16  O   UNL     1       1.323   6.729  21.089  0.00  0.00    +0.000 OA
ATOM     17  H   UNL     1       1.830   9.300  19.303  0.00  0.00    +0.000 HD
BRANCH  15  18
ATOM     18  C   UNL     1       2.574   6.936  19.128  0.00  0.00    +0.000 A 
ATOM     19  C   UNL     1       3.043   7.637  18.019  0.00  0.00    +0.000 A 
ATOM     20  C   UNL     1       3.864   6.831  17.176  0.00  0.00    +0.000 A 
ATOM     21  C   UNL     1       3.979   5.544  17.649  0.00  0.00    +0.000 A 
ATOM     22  S   UNL     1       3.097   5.302  19.091  0.00  0.00    +0.000 S 
ENDBRANCH  15  18
ENDBRANCH   7  14
BRANCH  11  23
ATOM     23  C   UNL     1      -2.843  13.412  19.766  0.00  0.00    +0.000 C 
BRANCH  23  24
ATOM     24  C   UNL     1      -3.852  12.299  19.446  0.00  0.00    +0.000 C 
BRANCH  24  25
ATOM     25  C   UNL     1      -3.480  11.508  18.215  0.00  0.00    +0.000 A 
ATOM     26  C   UNL     1      -4.288  11.541  17.065  0.00  0.00    +0.000 A 
ATOM     27  C   UNL     1      -3.950  10.778  15.945  0.00  0.00    +0.000 A 
ATOM     28  C   UNL     1      -2.806   9.991  15.972  0.00  0.00    +0.000 A 
ATOM     29  F   UNL     1      -2.495   9.237  14.910  0.00  0.00    +0.000 F 
ATOM     30  C   UNL     1      -1.982   9.966  17.092  0.00  0.00    +0.000 A 
ATOM     31  C   UNL     1      -2.318  10.726  18.212  0.00  0.00    +0.000 A 
ENDBRANCH  24  25
ENDBRANCH  23  24
ENDBRANCH  11  23
TORSDOF 5
ENDMDL
MODEL 2
REMARK VINA RESULT:      -7.7      4.781      9.499
REMARK  Name = 
REMARK  6 active torsions:
REMARK  status: ('A' for Active; 'I' for Inactive)
REMARK    1  A    between atoms: C_1  and  C_2
REMARK    2  A    between atoms: C_7  and  N_8
REMARK    3  A    between atoms: C_9  and  C_11
REMARK    4  A    between atoms: N_19  and  C_20
REMARK    5  A    between atoms: C_20  and  C_21
REMARK    6  A    between atoms: C_21  and  C_22
REMARK                            x       y       z     vdW  Elec       q    Type
REMARK                         _______ _______ _______ _____ _____    ______ ____
ROOT
ATOM      1  C   UNL     1       3.046   2.132  21.299  0.00  0.00    +0.000 C 
ATOM      2  C   UNL     1       3.082   3.322  20.340  0.00  0.00    +0.000 C 
ATOM      3  O   UNL     1       1.778   3.894  20.295  0.00  0.00    +0.000 OA
ATOM      4  C   UNL     1       1.840   5.230  19.999  0.00  0.00    +0.000 A 
ATOM      5  C   UNL     1       1.439   6.126  20.980  0.00  0.00    +0.000 A 
ATOM      6  C   UNL     1       1.473   7.497  20.722  0.00  0.00    +0.000 A 
ATOM      7  C   UNL     1       1.874   7.981  19.480  0.00  0.00    +0.000 A 
ATOM      8  C   UNL     1       2.227   7.067  18.474  0.00  0.00    +0.000 A 
ATOM      9  C   UNL     1       2.240   5.682  18.735  0.00  0.00    +0.000 A 
ATOM     10  C   UNL     1       2.632   4.688  17.679  0.00  0.00    +0.000 C 
ATOM     11  N   UNL     1       3.796   3.890  18.043  0.00  0.00    +0.000 N 
ATOM     12  C   UNL     1       3.666   2.876  18.982  0.00  0.00    +0.000 C 
ATOM     13  O   UNL     1       4.142   1.755  18.806  0.00  0.00    +0.000 OA
ENDROOT
BRANCH   7  14
ATOM     14  N   UNL     1       1.930   9.363  19.190  0.00  0.00    +0.000 N 
ATOM     15  C   UNL     1       0.893  10.284  19.343  0.00  0.00    +0.000 C 
ATOM     16  O   UNL     1      -0.220  10.004  19.782  0.00  0.00    +0.000 OA
ATOM     17  H   UNL     1       2.825   9.751  18.931  0.00  0.00    +0.000 HD
BRANCH  15  18
ATOM     18  C   UNL     1       1.229  11.655  18.987  0.00  0.00    +0.000 A 
ATOM     19  C   UNL     1       2.355  12.079  18.284  0.00  0.00    +0.000 A 
ATOM     20  C   UNL     1       2.348  13.485  18.048  0.00  0.00    +0.000 A 
ATOM     21  C   UNL     1       1.240  14.092  18.593  0.00  0.00    +0.000 A 
ATOM     22  S   UNL     1       0.219  12.981  19.393  0.00  0.00    +0.000 S 
ENDBRANCH  15  18
ENDBRANCH   7  14
BRANCH  11  23
ATOM     23  C   UNL     1       5.107   4.181  17.454  0.00  0.00    +0.000 C 
BRANCH  23  24
ATOM     24  C   UNL     1       5.089   5.286  16.386  0.00  0.00    +0.000 C 
BRANCH  24  25
ATOM     25  C   UNL     1       5.751   4.863  15.096  0.00  0.00    +0.000 A 
ATOM     26  C   UNL     1       7.015   5.362  14.737  0.00  0.00    +0.000 A 
ATOM     27  C   UNL     1       7.601   4.990  13.525  0.00  0.00    +0.000 A 
ATOM     28  C   UNL     1       6.929   4.116  12.680  0.00  0.00    +0.000 A 
ATOM     29  F   UNL     1       7.477   3.779  11.505  0.00  0.00    +0.000 F 
ATOM     30  C   UNL     1       5.690   3.593  13.031  0.00  0.00    +0.000 A 
ATOM     31  C   UNL     1       5.102   3.965  14.240  0.00  0.00    +0.000 A 
ENDBRANCH  24  25
ENDBRANCH  23  24
ENDBRANCH  11  23
TORSDOF 5
ENDMDL
MODEL 3
REMARK VINA RESULT:      -7.6      4.610      9.652
REMARK  Name = 
REMARK  6 active torsions:
REMARK  status: ('A' for Active; 'I' for Inactive)
REMARK    1  A    between atoms: C_1  and  C_2
REMARK    2  A    between atoms: C_7  and  N_8
REMARK    3  A    between atoms: C_9  and  C_11
REMARK    4  A    between atoms: N_19  and  C_20
REMARK    5  A    between atoms: C_20  and  C_21
REMARK    6  A    between atoms: C_21  and  C_22
REMARK                            x       y       z     vdW  Elec       q    Type
REMARK                         _______ _______ _______ _____ _____    ______ ____
ROOT
ATOM      1  C   UNL     1       4.135   2.121  20.539  0.00  0.00    +0.000 C 
ATOM      2  C   UNL     1       3.700   3.282  19.645  0.00  0.00    +0.000 C 
ATOM      3  O   UNL     1       2.425   3.732  20.094  0.00  0.00    +0.000 OA
ATOM      4  C   UNL     1       2.246   5.060  19.807  0.00  0.00    +0.000 A 
ATOM      5  C   UNL     1       2.156   5.942  20.874  0.00  0.00    +0.000 A 
ATOM      6  C   UNL     1       1.962   7.303  20.634  0.00  0.00    +0.000 A 
ATOM      7  C   UNL     1       1.825   7.787  19.336  0.00  0.00    +0.000 A 
ATOM      8  C   UNL     1       1.862   6.881  18.263  0.00  0.00    +0.000 A 
ATOM      9  C   UNL     1       2.103   5.510  18.489  0.00  0.00    +0.000 A 
ATOM     10  C   UNL     1       2.165   4.527  17.355  0.00  0.00    +0.000 C 
ATOM     11  N   UNL     1       3.450   3.849  17.252  0.00  0.00    +0.000 N 
ATOM     12  C   UNL     1       3.775   2.853  18.164  0.00  0.00    +0.000 C 
ATOM     13  O   UNL     1       4.254   1.775  17.814  0.00  0.00    +0.000 OA
ENDROOT
BRANCH   7  14
ATOM     14  N   UNL     1       1.639   9.160  19.057  0.00  0.00    +0.000 N 
ATOM     15  C   UNL     1       0.586   9.960  19.504  0.00  0.00    +0.000 C 
ATOM     16  O   UNL     1      -0.319   9.566  20.234  0.00  0.00    +0.000 OA
ATOM     17  H   UNL     1       2.374   9.641  18.562  0.00  0.00    +0.000 HD
BRANCH  15  18
ATOM     18  C   UNL     1       0.651  11.352  19.084  0.00  0.00    +0.000 A 
ATOM     19  C   UNL     1       1.804  12.098  18.850  0.00  0.00    +0.000 A 
ATOM     20  C   UNL     1       1.514  13.415  18.387  0.00  0.00    +0.000 A 
ATOM     21  C   UNL     1       0.159  13.643  18.304  0.00  0.00    +0.000 A 
ATOM     22  S   UNL     1      -0.758  12.286  18.789  0.00  0.00    +0.000 S 
ENDBRANCH  15  18
ENDBRANCH   7  14
BRANCH  11  23
ATOM     23  C   UNL     1       4.414   4.241  16.219  0.00  0.00    +0.000 C 
BRANCH  23  24
ATOM     24  C   UNL     1       5.869   3.861  16.535  0.00  0.00    +0.000 C 
BRANCH  24  25
ATOM     25  C   UNL     1       6.642   4.987  17.178  0.00  0.00    +0.000 A 
ATOM     26  C   UNL     1       7.284   4.809  18.415  0.00  0.00    +0.000 A 
ATOM     27  C   UNL     1       7.967   5.869  19.014  0.00  0.00    +0.000 A 
ATOM     28  C   UNL     1       8.013   7.102  18.376  0.00  0.00    +0.000 A 
ATOM     29  F   UNL     1       8.644   8.128  18.962  0.00  0.00    +0.000 F 
ATOM     30  C   UNL     1       7.405   7.289  17.140  0.00  0.00    +0.000 A 
ATOM     31  C   UNL     1       6.721   6.232  16.540  0.00  0.00    +0.000 A 
ENDBRANCH  24  25
ENDBRANCH  23  24
ENDBRANCH  11  23
TORSDOF 5
ENDMDL
MODEL 4
REMARK VINA RESULT:      -7.5      4.491      9.362
REMARK  Name = 
REMARK  6 active torsions:
REMARK  status: ('A' for Active; 'I' for Inactive)
REMARK    1  A    between atoms: C_1  and  C_2
REMARK    2  A    between atoms: C_7  and  N_8
REMARK    3  A    between atoms: C_9  and  C_11
REMARK    4  A    between atoms: N_19  and  C_20
REMARK    5  A    between atoms: C_20  and  C_21
REMARK    6  A    between atoms: C_21  and  C_22
REMARK                            x       y       z     vdW  Elec       q    Type
REMARK                         _______ _______ _______ _____ _____    ______ ____
ROOT
ATOM      1  C   UNL     1       3.235   2.018  21.023  0.00  0.00    +0.000 C 
ATOM      2  C   UNL     1       3.142   3.198  20.057  0.00  0.00    +0.000 C 
ATOM      3  O   UNL     1       1.858   3.796  20.209  0.00  0.00    +0.000 OA
ATOM      4  C   UNL     1       1.898   5.128  19.891  0.00  0.00    +0.000 A 
ATOM      5  C   UNL     1       1.671   6.040  20.912  0.00  0.00    +0.000 A 
ATOM      6  C   UNL     1       1.690   7.408  20.637  0.00  0.00    +0.000 A 
ATOM      7  C   UNL     1       1.900   7.873  19.342  0.00  0.00    +0.000 A 
ATOM      8  C   UNL     1       2.074   6.944  18.303  0.00  0.00    +0.000 A 
ATOM      9  C   UNL     1       2.103   5.561  18.576  0.00  0.00    +0.000 A 
ATOM     10  C   UNL     1       2.307   4.550  17.483  0.00  0.00    +0.000 C 
ATOM     11  N   UNL     1       3.498   3.733  17.670  0.00  0.00    +0.000 N 
ATOM     12  C   UNL     1       3.498   2.729  18.629  0.00  0.00    +0.000 C 
ATOM     13  O   UNL     1       3.920   1.597  18.394  0.00  0.00    +0.000 OA
ENDROOT
BRANCH   7  14
ATOM     14  N   UNL     1       1.936   9.252  19.031  0.00  0.00    +0.000 N 
ATOM     15  C   UNL     1       0.907  10.173  19.233  0.00  0.00    +0.000 C 
ATOM     16  O   UNL     1      -0.176   9.897  19.742  0.00  0.00    +0.000 OA
ATOM     17  H   UNL     1       2.812   9.637  18.713  0.00  0.00    +0.000 HD
BRANCH  15  18
ATOM     18  C   UNL     1       1.219  11.539  18.840  0.00  0.00    +0.000 A 
ATOM     19  C   UNL     1       0.434  12.668  19.064  0.00  0.00    +0.000 A 
ATOM     20  C   UNL     1       1.062  13.864  18.607  0.00  0.00    +0.000 A 
ATOM     21  C   UNL     1       2.287  13.613  18.031  0.00  0.00    +0.000 A 
ATOM     22  S   UNL     1       2.674  11.950  18.031  0.00  0.00    +0.000 S 
ENDBRANCH  15  18
ENDBRANCH   7  14
BRANCH  11  23
ATOM     23  C   UNL     1       4.706   3.993  16.880  0.00  0.00    +0.000 C 
BRANCH  23  24
ATOM     24  C   UNL     1       5.997   4.078  17.708  0.00  0.00    +0.000 C 
BRANCH  24  25
ATOM     25  C   UNL     1       6.562   5.477  17.770  0.00  0.00    +0.000 A 
ATOM     26  C   UNL     1       6.010   6.514  16.997  0.00  0.00    +0.000 A 
ATOM     27  C   UNL     1       6.563   7.795  17.038  0.00  0.00    +0.000 A 
ATOM     28  C   UNL     1       7.660   8.041  17.854  0.00  0.00    +0.000 A 
ATOM     29  F   UNL     1       8.210   9.263  17.874  0.00  0.00    +0.000 F 
ATOM     30  C   UNL     1       8.203   7.035  18.644  0.00  0.00    +0.000 A 
ATOM     31  C   UNL     1       7.653   5.754  18.604  0.00  0.00    +0.000 A 
ENDBRANCH  24  25
ENDBRANCH  23  24
ENDBRANCH  11  23
TORSDOF 5
ENDMDL
MODEL 5
REMARK VINA RESULT:      -7.3      2.386      3.261
REMARK  Name = 
REMARK  6 active torsions:
REMARK  status: ('A' for Active; 'I' for Inactive)
REMARK    1  A    between atoms: C_1  and  C_2
REMARK    2  A    between atoms: C_7  and  N_8
REMARK    3  A    between atoms: C_9  and  C_11
REMARK    4  A    between atoms: N_19  and  C_20
REMARK    5  A    between atoms: C_20  and  C_21
REMARK    6  A    between atoms: C_21  and  C_22
REMARK                            x       y       z     vdW  Elec       q    Type
REMARK                         _______ _______ _______ _____ _____    ______ ____
ROOT
ATOM      1  C   UNL     1      -1.141  13.308  22.488  0.00  0.00    +0.000 C 
ATOM      2  C   UNL     1      -0.675  12.348  21.394  0.00  0.00    +0.000 C 
ATOM      3  O   UNL     1       0.664  11.961  21.686  0.00  0.00    +0.000 OA
ATOM      4  C   UNL     1       0.936  10.718  21.178  0.00  0.00    +0.000 A 
ATOM      5  C   UNL     1       1.183   9.694  22.081  0.00  0.00    +0.000 A 
ATOM      6  C   UNL     1       1.476   8.413  21.613  0.00  0.00    +0.000 A 
ATOM      7  C   UNL     1       1.556   8.151  20.248  0.00  0.00    +0.000 A 
ATOM      8  C   UNL     1       1.358   9.204  19.340  0.00  0.00    +0.000 A 
ATOM      9  C   UNL     1       1.017  10.493  19.799  0.00  0.00    +0.000 A 
ATOM     10  C   UNL     1       0.783  11.629  18.844  0.00  0.00    +0.000 C 
ATOM     11  N   UNL     1      -0.560  12.186  18.930  0.00  0.00    +0.000 N 
ATOM     12  C   UNL     1      -0.901  12.992  20.009  0.00  0.00    +0.000 C 
ATOM     13  O   UNL     1      -1.497  14.058  19.867  0.00  0.00    +0.000 OA
ENDROOT
BRANCH   7  14
ATOM     14  N   UNL     1       1.839   6.862  19.741  0.00  0.00    +0.000 N 
ATOM     15  C   UNL     1       2.696   6.559  18.682  0.00  0.00    +0.000 C 
ATOM     16  O   UNL     1       3.347   7.395  18.060  0.00  0.00    +0.000 OA
ATOM     17  H   UNL     1       1.461   6.071  20.238  0.00  0.00    +0.000 HD
BRANCH  15  18
ATOM     18  C   UNL     1       2.821   5.141  18.379  0.00  0.00    +0.000 A 
ATOM     19  C   UNL     1       1.860   4.332  17.777  0.00  0.00    +0.000 A 
ATOM     20  C   UNL     1       2.328   3.002  17.564  0.00  0.00    +0.000 A 
ATOM     21  C   UNL     1       3.612   2.829  18.028  0.00  0.00    +0.000 A 
ATOM     22  S   UNL     1       4.248   4.253  18.722  0.00  0.00    +0.000 S 
ENDBRANCH  15  18
ENDBRANCH   7  14
BRANCH  11  23
ATOM     23  C   UNL     1      -1.562  11.866  17.909  0.00  0.00    +0.000 C 
BRANCH  23  24
ATOM     24  C   UNL     1      -2.732  11.009  18.417  0.00  0.00    +0.000 C 
BRANCH  24  25
ATOM     25  C   UNL     1      -4.054  11.737  18.372  0.00  0.00    +0.000 A 
ATOM     26  C   UNL     1      -4.556  12.393  19.509  0.00  0.00    +0.000 A 
ATOM     27  C   UNL     1      -5.796  13.034  19.463  0.00  0.00    +0.000 A 
ATOM     28  C   UNL     1      -6.527  13.026  18.281  0.00  0.00    +0.000 A 
ATOM     29  F   UNL     1      -7.729  13.616  18.243  0.00  0.00    +0.000 F 
ATOM     30  C   UNL     1      -6.034  12.404  17.140  0.00  0.00    +0.000 A 
ATOM     31  C   UNL     1      -4.797  11.762  17.184  0.00  0.00    +0.000 A 
ENDBRANCH  24  25
ENDBRANCH  23  24
ENDBRANCH  11  23
TORSDOF 5
ENDMDL
MODEL 6
REMARK VINA RESULT:      -7.3      4.405      8.986
REMARK  Name = 
REMARK  6 active torsions:
REMARK  status: ('A' for Active; 'I' for Inactive)
REMARK    1  A    between atoms: C_1  and  C_2
REMARK    2  A    between atoms: C_7  and  N_8
REMARK    3  A    between atoms: C_9  and  C_11
REMARK    4  A    between atoms: N_19  and  C_20
REMARK    5  A    between atoms: C_20  and  C_21
REMARK    6  A    between atoms: C_21  and  C_22
REMARK                            x       y       z     vdW  Elec       q    Type
REMARK                         _______ _______ _______ _____ _____    ______ ____
ROOT
ATOM      1  C   UNL     1       2.280   3.049  21.858  0.00  0.00    +0.000 C 
ATOM      2  C   UNL     1       2.542   4.242  20.939  0.00  0.00    +0.000 C 
ATOM      3  O   UNL     1       1.284   4.796  20.564  0.00  0.00    +0.000 OA
ATOM      4  C   UNL     1       1.401   6.134  20.292  0.00  0.00    +0.000 A 
ATOM      5  C   UNL     1       0.751   7.021  21.139  0.00  0.00    +0.000 A 
ATOM      6  C   UNL     1       0.829   8.393  20.898  0.00  0.00    +0.000 A 
ATOM      7  C   UNL     1       1.526   8.887  19.797  0.00  0.00    +0.000 A 
ATOM      8  C   UNL     1       2.136   7.981  18.914  0.00  0.00    +0.000 A 
ATOM      9  C   UNL     1       2.102   6.595  19.172  0.00  0.00    +0.000 A 
ATOM     10  C   UNL     1       2.763   5.610  18.250  0.00  0.00    +0.000 C 
ATOM     11  N   UNL     1       3.807   4.827  18.898  0.00  0.00    +0.000 N 
ATOM     12  C   UNL     1       3.458   3.808  19.774  0.00  0.00    +0.000 C 
ATOM     13  O   UNL     1       3.978   2.694  19.725  0.00  0.00    +0.000 OA
ENDROOT
BRANCH   7  14
ATOM     14  N   UNL     1       1.634  10.270  19.531  0.00  0.00    +0.000 N 
ATOM     15  C   UNL     1       0.659  11.080  18.948  0.00  0.00    +0.000 C 
ATOM     16  O   UNL     1      -0.453  10.685  18.608  0.00  0.00    +0.000 OA
ATOM     17  H   UNL     1       2.455  10.749  19.869  0.00  0.00    +0.000 HD
BRANCH  15  18
ATOM     18  C   UNL     1       1.026  12.481  18.807  0.00  0.00    +0.000 A 
ATOM     19  C   UNL     1       0.180  13.580  18.937  0.00  0.00    +0.000 A 
ATOM     20  C   UNL     1       0.874  14.818  18.801  0.00  0.00    +0.000 A 
ATOM     21  C   UNL     1       2.214  14.631  18.549  0.00  0.00    +0.000 A 
ATOM     22  S   UNL     1       2.633  12.977  18.466  0.00  0.00    +0.000 S 
ENDBRANCH  15  18
ENDBRANCH   7  14
BRANCH  11  23
ATOM     23  C   UNL     1       5.220   5.138  18.661  0.00  0.00    +0.000 C 
BRANCH  23  24
ATOM     24  C   UNL     1       5.467   6.117  17.503  0.00  0.00    +0.000 C 
BRANCH  24  25
ATOM     25  C   UNL     1       5.796   5.418  16.206  0.00  0.00    +0.000 A 
ATOM     26  C   UNL     1       4.849   4.602  15.564  0.00  0.00    +0.000 A 
ATOM     27  C   UNL     1       5.178   3.935  14.383  0.00  0.00    +0.000 A 
ATOM     28  C   UNL     1       6.448   4.089  13.840  0.00  0.00    +0.000 A 
ATOM     29  F   UNL     1       6.776   3.428  12.722  0.00  0.00    +0.000 F 
ATOM     30  C   UNL     1       7.389   4.913  14.448  0.00  0.00    +0.000 A 
ATOM     31  C   UNL     1       7.063   5.579  15.629  0.00  0.00    +0.000 A 
ENDBRANCH  24  25
ENDBRANCH  23  24
ENDBRANCH  11  23
TORSDOF 5
ENDMDL
MODEL 7
REMARK VINA RESULT:      -7.2      1.560      2.002
REMARK  Name = 
REMARK  6 active torsions:
REMARK  status: ('A' for Active; 'I' for Inactive)
REMARK    1  A    between atoms: C_1  and  C_2
REMARK    2  A    between atoms: C_7  and  N_8
REMARK    3  A    between atoms: C_9  and  C_11
REMARK    4  A    between atoms: N_19  and  C_20
REMARK    5  A    between atoms: C_20  and  C_21
REMARK    6  A    between atoms: C_21  and  C_22
REMARK                            x       y       z     vdW  Elec       q    Type
REMARK                         _______ _______ _______ _____ _____    ______ ____
ROOT
ATOM      1  C   UNL     1      -3.149  12.621  23.288  0.00  0.00    +0.000 C 
ATOM      2  C   UNL     1      -1.978  12.243  22.381  0.00  0.00    +0.000 C 
ATOM      3  O   UNL     1      -1.054  11.476  23.148  0.00  0.00    +0.000 OA
ATOM      4  C   UNL     1      -0.350  10.616  22.347  0.00  0.00    +0.000 A 
ATOM      5  C   UNL     1      -0.556   9.256  22.527  0.00  0.00    +0.000 A 
ATOM      6  C   UNL     1       0.147   8.339  21.744  0.00  0.00    +0.000 A 
ATOM      7  C   UNL     1       1.079   8.769  20.803  0.00  0.00    +0.000 A 
ATOM      8  C   UNL     1       1.322  10.145  20.664  0.00  0.00    +0.000 A 
ATOM      9  C   UNL     1       0.586  11.083  21.417  0.00  0.00    +0.000 A 
ATOM     10  C   UNL     1       0.818  12.560  21.271  0.00  0.00    +0.000 C 
ATOM     11  N   UNL     1      -0.364  13.286  20.826  0.00  0.00    +0.000 N 
ATOM     12  C   UNL     1      -1.406  13.514  21.717  0.00  0.00    +0.000 C 
ATOM     13  O   UNL     1      -1.942  14.615  21.830  0.00  0.00    +0.000 OA
ENDROOT
BRANCH   7  14
ATOM     14  N   UNL     1       1.799   7.867  19.987  0.00  0.00    +0.000 N 
ATOM     15  C   UNL     1       2.124   8.047  18.642  0.00  0.00    +0.000 C 
ATOM     16  O   UNL     1       1.840   9.049  17.991  0.00  0.00    +0.000 OA
ATOM     17  H   UNL     1       2.196   7.052  20.427  0.00  0.00    +0.000 HD
BRANCH  15  18
ATOM     18  C   UNL     1       2.893   6.965  18.044  0.00  0.00    +0.000 A 
ATOM     19  C   UNL     1       4.053   7.091  17.284  0.00  0.00    +0.000 A 
ATOM     20  C   UNL     1       4.592   5.826  16.903  0.00  0.00    +0.000 A 
ATOM     21  C   UNL     1       3.821   4.781  17.361  0.00  0.00    +0.000 A 
ATOM     22  S   UNL     1       2.454   5.317  18.232  0.00  0.00    +0.000 S 
ENDBRANCH  15  18
ENDBRANCH   7  14
BRANCH  11  23
ATOM     23  C   UNL     1      -0.476  13.739  19.436  0.00  0.00    +0.000 C 
BRANCH  23  24
ATOM     24  C   UNL     1      -0.377  12.614  18.395  0.00  0.00    +0.000 C 
BRANCH  24  25
ATOM     25  C   UNL     1      -1.646  11.802  18.287  0.00  0.00    +0.000 A 
ATOM     26  C   UNL     1      -1.620  10.482  17.804  0.00  0.00    +0.000 A 
ATOM     27  C   UNL     1      -2.805   9.755  17.678  0.00  0.00    +0.000 A 
ATOM     28  C   UNL     1      -4.011  10.343  18.039  0.00  0.00    +0.000 A 
ATOM     29  F   UNL     1      -5.152   9.657  17.892  0.00  0.00    +0.000 F 
ATOM     30  C   UNL     1      -4.052  11.638  18.541  0.00  0.00    +0.000 A 
ATOM     31  C   UNL     1      -2.870  12.367  18.667  0.00  0.00    +0.000 A 
ENDBRANCH  24  25
ENDBRANCH  23  24
ENDBRANCH  11  23
TORSDOF 5
ENDMDL
MODEL 8
REMARK VINA RESULT:      -7.1      1.657      2.045
REMARK  Name = 
REMARK  6 active torsions:
REMARK  status: ('A' for Active; 'I' for Inactive)
REMARK    1  A    between atoms: C_1  and  C_2
REMARK    2  A    between atoms: C_7  and  N_8
REMARK    3  A    between atoms: C_9  and  C_11
REMARK    4  A    between atoms: N_19  and  C_20
REMARK    5  A    between atoms: C_20  and  C_21
REMARK    6  A    between atoms: C_21  and  C_22
REMARK                            x       y       z     vdW  Elec       q    Type
REMARK                         _______ _______ _______ _____ _____    ______ ____
ROOT
ATOM      1  C   UNL     1      -2.952  12.461  23.439  0.00  0.00    +0.000 C 
ATOM      2  C   UNL     1      -1.866  12.083  22.434  0.00  0.00    +0.000 C 
ATOM      3  O   UNL     1      -0.799  11.464  23.146  0.00  0.00    +0.000 OA
ATOM      4  C   UNL     1      -0.121  10.583  22.345  0.00  0.00    +0.000 A 
ATOM      5  C   UNL     1      -0.190   9.235  22.668  0.00  0.00    +0.000 A 
ATOM      6  C   UNL     1       0.492   8.300  21.890  0.00  0.00    +0.000 A 
ATOM      7  C   UNL     1       1.271   8.702  20.808  0.00  0.00    +0.000 A 
ATOM      8  C   UNL     1       1.380  10.072  20.519  0.00  0.00    +0.000 A 
ATOM      9  C   UNL     1       0.660  11.024  21.270  0.00  0.00    +0.000 A 
ATOM     10  C   UNL     1       0.748  12.492  20.966  0.00  0.00    +0.000 C 
ATOM     11  N   UNL     1      -0.534  13.083  20.607  0.00  0.00    +0.000 N 
ATOM     12  C   UNL     1      -1.482  13.320  21.594  0.00  0.00    +0.000 C 
ATOM     13  O   UNL     1      -2.092  14.385  21.674  0.00  0.00    +0.000 OA
ENDROOT
BRANCH   7  14
ATOM     14  N   UNL     1       1.965   7.780  19.992  0.00  0.00    +0.000 N 
ATOM     15  C   UNL     1       2.116   7.849  18.607  0.00  0.00    +0.000 C 
ATOM     16  O   UNL     1       1.672   8.757  17.909  0.00  0.00    +0.000 OA
ATOM     17  H   UNL     1       2.480   7.044  20.452  0.00  0.00    +0.000 HD
BRANCH  15  18
ATOM     18  C   UNL     1       2.900   6.773  18.018  0.00  0.00    +0.000 A 
ATOM     19  C   UNL     1       4.090   6.905  17.306  0.00  0.00    +0.000 A 
ATOM     20  C   UNL     1       4.634   5.644  16.921  0.00  0.00    +0.000 A 
ATOM     21  C   UNL     1       3.839   4.596  17.328  0.00  0.00    +0.000 A 
ATOM     22  S   UNL     1       2.442   5.126  18.156  0.00  0.00    +0.000 S 
ENDBRANCH  15  18
ENDBRANCH   7  14
BRANCH  11  23
ATOM     23  C   UNL     1      -0.843  13.388  19.206  0.00  0.00    +0.000 C 
BRANCH  23  24
ATOM     24  C   UNL     1      -1.058  12.150  18.322  0.00  0.00    +0.000 C 
BRANCH  24  25
ATOM     25  C   UNL     1      -2.500  11.706  18.277  0.00  0.00    +0.000 A 
ATOM     26  C   UNL     1      -3.503  12.441  18.934  0.00  0.00    +0.000 A 
ATOM     27  C   UNL     1      -4.828  12.000  18.913  0.00  0.00    +0.000 A 
ATOM     28  C   UNL     1      -5.150  10.833  18.231  0.00  0.00    +0.000 A 
ATOM     29  F   UNL     1      -6.416  10.394  18.233  0.00  0.00    +0.000 F 
ATOM     30  C   UNL     1      -4.176  10.109  17.555  0.00  0.00    +0.000 A 
ATOM     31  C   UNL     1      -2.852  10.546  17.576  0.00  0.00    +0.000 A 
ENDBRANCH  24  25
ENDBRANCH  23  24
ENDBRANCH  11  23
TORSDOF 5
ENDMDL
MODEL 9
REMARK VINA RESULT:      -7.1      1.767      2.396
REMARK  Name = 
REMARK  6 active torsions:
REMARK  status: ('A' for Active; 'I' for Inactive)
REMARK    1  A    between atoms: C_1  and  C_2
REMARK    2  A    between atoms: C_7  and  N_8
REMARK    3  A    between atoms: C_9  and  C_11
REMARK    4  A    between atoms: N_19  and  C_20
REMARK    5  A    between atoms: C_20  and  C_21
REMARK    6  A    between atoms: C_21  and  C_22
REMARK                            x       y       z     vdW  Elec       q    Type
REMARK                         _______ _______ _______ _____ _____    ______ ____
ROOT
ATOM      1  C   UNL     1      -2.485  12.348  23.178  0.00  0.00    +0.000 C 
ATOM      2  C   UNL     1      -1.532  11.879  22.079  0.00  0.00    +0.000 C 
ATOM      3  O   UNL     1      -0.338  11.411  22.699  0.00  0.00    +0.000 OA
ATOM      4  C   UNL     1       0.272  10.457  21.928  0.00  0.00    +0.000 A 
ATOM      5  C   UNL     1       0.334   9.166  22.432  0.00  0.00    +0.000 A 
ATOM      6  C   UNL     1       0.955   8.161  21.690  0.00  0.00    +0.000 A 
ATOM      7  C   UNL     1       1.545   8.441  20.460  0.00  0.00    +0.000 A 
ATOM      8  C   UNL     1       1.526   9.761  19.980  0.00  0.00    +0.000 A 
ATOM      9  C   UNL     1       0.862  10.776  20.699  0.00  0.00    +0.000 A 
ATOM     10  C   UNL     1       0.814  12.191  20.195  0.00  0.00    +0.000 C 
ATOM     11  N   UNL     1      -0.540  12.671  19.958  0.00  0.00    +0.000 N 
ATOM     12  C   UNL     1      -1.350  13.003  21.036  0.00  0.00    +0.000 C 
ATOM     13  O   UNL     1      -2.008  14.042  21.066  0.00  0.00    +0.000 OA
ENDROOT
BRANCH   7  14
ATOM     14  N   UNL     1       2.172   7.445  19.678  0.00  0.00    +0.000 N 
ATOM     15  C   UNL     1       2.118   6.067  19.894  0.00  0.00    +0.000 C 
ATOM     16  O   UNL     1       1.481   5.535  20.799  0.00  0.00    +0.000 OA
ATOM     17  H   UNL     1       2.634   7.737  18.830  0.00  0.00    +0.000 HD
BRANCH  15  18
ATOM     18  C   UNL     1       2.842   5.263  18.920  0.00  0.00    +0.000 A 
ATOM     19  C   UNL     1       3.437   5.716  17.745  0.00  0.00    +0.000 A 
ATOM     20  C   UNL     1       4.123   4.678  17.049  0.00  0.00    +0.000 A 
ATOM     21  C   UNL     1       4.012   3.467  17.695  0.00  0.00    +0.000 A 
ATOM     22  S   UNL     1       3.083   3.577  19.123  0.00  0.00    +0.000 S 
ENDBRANCH  15  18
ENDBRANCH   7  14
BRANCH  11  23
ATOM     23  C   UNL     1      -1.064  12.765  18.591  0.00  0.00    +0.000 C 
BRANCH  23  24
ATOM     24  C   UNL     1      -1.755  11.488  18.090  0.00  0.00    +0.000 C 
BRANCH  24  25
ATOM     25  C   UNL     1      -3.257  11.626  18.015  0.00  0.00    +0.000 A 
ATOM     26  C   UNL     1      -4.011  11.944  19.158  0.00  0.00    +0.000 A 
ATOM     27  C   UNL     1      -5.402  12.036  19.082  0.00  0.00    +0.000 A 
ATOM     28  C   UNL     1      -6.037  11.816  17.865  0.00  0.00    +0.000 A 
ATOM     29  F   UNL     1      -7.373  11.876  17.796  0.00  0.00    +0.000 F 
ATOM     30  C   UNL     1      -5.305  11.526  16.720  0.00  0.00    +0.000 A 
ATOM     31  C   UNL     1      -3.916  11.433  16.794  0.00  0.00    +0.000 A 
ENDBRANCH  24  25
ENDBRANCH  23  24
ENDBRANCH  11  23
TORSDOF 5
ENDMDL
