MODEL 1
REMARK VINA RESULT:      -8.1      0.000      0.000
REMARK  Name = 
REMARK  8 active torsions:
REMARK  status: ('A' for Active; 'I' for Inactive)
REMARK    1  A    between atoms: C_1  and  C_2
REMARK    2  A    between atoms: C_6  and  N_7
REMARK    3  A    between atoms: N_10  and  C_11
REMARK    4  A    between atoms: C_11  and  N_13
REMARK    5  A    between atoms: N_13  and  C_14
REMARK    6  A    between atoms: N_23  and  C_24
REMARK    7  A    between atoms: C_28  and  C_29
REMARK    8  A    between atoms: C_34  and  C_35
REMARK                            x       y       z     vdW  Elec       q    Type
REMARK                         _______ _______ _______ _____ _____    ______ ____
ROOT
ATOM      1  N   UNL     1      -1.393  11.892  21.256  0.00  0.00    +0.000 N 
ATOM      2  H   UNL     1      -1.435  12.392  22.135  0.00  0.00    +0.000 HD
ENDROOT
BRANCH   1   3
ATOM      3  C   UNL     1      -0.552  10.750  21.229  0.00  0.00    +0.000 A 
ATOM      4  C   UNL     1      -0.525   9.873  22.307  0.00  0.00    +0.000 A 
ATOM      5  C   UNL     1       0.252   8.702  22.240  0.00  0.00    +0.000 A 
ATOM      6  C   UNL     1       0.979   8.353  21.105  0.00  0.00    +0.000 A 
ATOM      7  N   UNL     1       1.623   7.168  21.057  0.00  0.00    +0.000 NA
ATOM      8  C   UNL     1       2.309   6.829  19.939  0.00  0.00    +0.000 A 
ATOM      9  N   UNL     1       2.824   5.558  19.815  0.00  0.00    +0.000 N 
ATOM     10  C   UNL     1       2.161   4.445  20.487  0.00  0.00    +0.000 C 
ATOM     11  C   UNL     1       2.191   3.219  19.537  0.00  0.00    +0.000 C 
ATOM     12  N   UNL     1       3.530   2.841  19.014  0.00  0.00    +0.000 NA
ATOM     13  C   UNL     1       4.346   2.222  20.055  0.00  0.00    +0.000 C 
ATOM     14  C   UNL     1       4.192   4.041  18.446  0.00  0.00    +0.000 C 
ATOM     15  C   UNL     1       4.184   5.302  19.344  0.00  0.00    +0.000 C 
ATOM     16  C   UNL     1       2.389   7.693  18.857  0.00  0.00    +0.000 A 
ATOM     17  C   UNL     1       1.700   8.905  18.870  0.00  0.00    +0.000 A 
ATOM     18  C   UNL     1       1.715   9.757  17.632  0.00  0.00    +0.000 C 
ATOM     19  C   UNL     1       0.966   9.250  20.019  0.00  0.00    +0.000 A 
ATOM     20  C   UNL     1       0.196  10.429  20.098  0.00  0.00    +0.000 A 
ENDBRANCH   1   3
BRANCH   1  21
ATOM     21  C   UNL     1      -1.849  12.621  20.159  0.00  0.00    +0.000 C 
ATOM     22  S   UNL     1      -3.293  12.238  19.364  0.00  0.00    +0.000 S 
BRANCH  21  26
ATOM     23  N   UNL     1       1.701  14.762  19.927  0.00  0.00    +0.000 N 
ATOM     24  C   UNL     1       0.780  14.721  21.090  0.00  0.00    +0.000 C 
ATOM     25  C   UNL     1      -0.669  14.810  20.589  0.00  0.00    +0.000 C 
ATOM     26  N   UNL     1      -0.982  13.639  19.738  0.00  0.00    +0.000 N 
ATOM     27  C   UNL     1      -0.063  13.569  18.577  0.00  0.00    +0.000 C 
ATOM     28  C   UNL     1       1.441  13.639  18.981  0.00  0.00    +0.000 C 
BRANCH  23  34
ATOM     29  C   UNL     1       6.122  16.929  18.877  0.00  0.00    +0.000 C 
ATOM     30  C   UNL     1       5.240  16.046  19.721  0.00  0.00    +0.000 A 
ATOM     31  C   UNL     1       5.822  15.363  20.797  0.00  0.00    +0.000 A 
ATOM     32  C   UNL     1       5.055  14.522  21.588  0.00  0.00    +0.000 A 
ATOM     33  C   UNL     1       3.706  14.325  21.288  0.00  0.00    +0.000 A 
ATOM     34  C   UNL     1       3.070  14.979  20.214  0.00  0.00    +0.000 A 
ATOM     35  C   UNL     1       3.848  15.897  19.458  0.00  0.00    +0.000 A 
ATOM     36  C   UNL     1       3.223  16.755  18.383  0.00  0.00    +0.000 C 
ENDBRANCH  23  34
ENDBRANCH  21  26
ENDBRANCH   1  21
TORSDOF 4
ENDMDL
MODEL 2
REMARK VINA RESULT:      -7.9      2.000      3.038
REMARK  Name = 
REMARK  8 active torsions:
REMARK  status: ('A' for Active; 'I' for Inactive)
REMARK    1  A    between atoms: C_1  and  C_2
REMARK    2  A    between atoms: C_6  and  N_7
REMARK    3  A    between atoms: N_10  and  C_11
REMARK    4  A    between atoms: C_11  and  N_13
REMARK    5  A    between atoms: N_13  and  C_14
REMARK    6  A    between atoms: N_23  and  C_24
REMARK    7  A    between atoms: C_28  and  C_29
REMARK    8  A    between atoms: C_34  and  C_35
REMARK                            x       y       z     vdW  Elec       q    Type
REMARK                         _______ _______ _______ _____ _____    ______ ____
ROOT
ATOM      1  N   UNL     1      -0.171  11.169  20.689  0.00  0.00    +0.000 N 
ATOM      2  H   UNL     1       0.042  11.119  21.677  0.00  0.00    +0.000 HD
ENDROOT
BRANCH   1   3
ATOM      3  C   UNL     1       0.600  10.330  19.844  0.00  0.00    +0.000 A 
ATOM      4  C   UNL     1       1.151  10.831  18.671  0.00  0.00    +0.000 A 
ATOM      5  C   UNL     1       1.979  10.015  17.878  0.00  0.00    +0.000 A 
ATOM      6  C   UNL     1       2.311   8.712  18.243  0.00  0.00    +0.000 A 
ATOM      7  N   UNL     1       3.191   8.009  17.500  0.00  0.00    +0.000 NA
ATOM      8  C   UNL     1       3.524   6.751  17.876  0.00  0.00    +0.000 A 
ATOM      9  N   UNL     1       4.544   6.093  17.225  0.00  0.00    +0.000 N 
ATOM     10  C   UNL     1       5.632   6.861  16.632  0.00  0.00    +0.000 C 
ATOM     11  C   UNL     1       6.958   6.097  16.884  0.00  0.00    +0.000 C 
ATOM     12  N   UNL     1       6.975   4.675  16.451  0.00  0.00    +0.000 NA
ATOM     13  C   UNL     1       7.035   4.569  14.995  0.00  0.00    +0.000 C 
ATOM     14  C   UNL     1       5.783   3.981  16.997  0.00  0.00    +0.000 C 
ATOM     15  C   UNL     1       4.429   4.703  16.787  0.00  0.00    +0.000 C 
ATOM     16  C   UNL     1       2.950   6.161  18.992  0.00  0.00    +0.000 A 
ATOM     17  C   UNL     1       2.068   6.882  19.796  0.00  0.00    +0.000 A 
ATOM     18  C   UNL     1       1.561   6.247  21.060  0.00  0.00    +0.000 C 
ATOM     19  C   UNL     1       1.738   8.197  19.422  0.00  0.00    +0.000 A 
ATOM     20  C   UNL     1       0.898   9.017  20.205  0.00  0.00    +0.000 A 
ENDBRANCH   1   3
BRANCH   1  21
ATOM     21  C   UNL     1      -0.887  12.303  20.312  0.00  0.00    +0.000 C 
ATOM     22  S   UNL     1      -2.473  12.210  19.727  0.00  0.00    +0.000 S 
BRANCH  21  26
ATOM     23  N   UNL     1       2.363  14.842  19.835  0.00  0.00    +0.000 N 
ATOM     24  C   UNL     1       2.262  13.727  20.808  0.00  0.00    +0.000 C 
ATOM     25  C   UNL     1       0.861  13.734  21.438  0.00  0.00    +0.000 C 
ATOM     26  N   UNL     1      -0.163  13.501  20.394  0.00  0.00    +0.000 N 
ATOM     27  C   UNL     1      -0.092  14.543  19.342  0.00  0.00    +0.000 C 
ATOM     28  C   UNL     1       1.341  14.724  18.755  0.00  0.00    +0.000 C 
BRANCH  23  34
ATOM     29  C   UNL     1       6.512  17.688  20.018  0.00  0.00    +0.000 C 
ATOM     30  C   UNL     1       5.709  16.539  19.464  0.00  0.00    +0.000 A 
ATOM     31  C   UNL     1       6.254  15.800  18.407  0.00  0.00    +0.000 A 
ATOM     32  C   UNL     1       5.543  14.749  17.850  0.00  0.00    +0.000 A 
ATOM     33  C   UNL     1       4.264  14.448  18.320  0.00  0.00    +0.000 A 
ATOM     34  C   UNL     1       3.663  15.163  19.376  0.00  0.00    +0.000 A 
ATOM     35  C   UNL     1       4.432  16.189  19.988  0.00  0.00    +0.000 A 
ATOM     36  C   UNL     1       3.936  16.911  21.219  0.00  0.00    +0.000 C 
ENDBRANCH  23  34
ENDBRANCH  21  26
ENDBRANCH   1  21
TORSDOF 4
ENDMDL
MODEL 3
REMARK VINA RESULT:      -7.9      3.650      6.178
REMARK  Name = 
REMARK  8 active torsions:
REMARK  status: ('A' for Active; 'I' for Inactive)
REMARK    1  A    between atoms: C_1  and  C_2
REMARK    2  A    between atoms: C_6  and  N_7
REMARK    3  A    between atoms: N_10  and  C_11
REMARK    4  A    between atoms: C_11  and  N_13
REMARK    5  A    between atoms: N_13  and  C_14
REMARK    6  A    between atoms: N_23  and  C_24
REMARK    7  A    between atoms: C_28  and  C_29
REMARK    8  A    between atoms: C_34  and  C_35
REMARK                            x       y       z     vdW  Elec       q    Type
REMARK                         _______ _______ _______ _____ _____    ______ ____
ROOT
ATOM      1  N   UNL     1       0.008  10.364  21.180  0.00  0.00    +0.000 N 
ATOM      2  H   UNL     1       0.392  10.387  22.116  0.00  0.00    +0.000 HD
ENDROOT
BRANCH   1   3
ATOM      3  C   UNL     1       0.765   9.650  20.215  0.00  0.00    +0.000 A 
ATOM      4  C   UNL     1       1.242  10.296  19.081  0.00  0.00    +0.000 A 
ATOM      5  C   UNL     1       2.057   9.601  18.168  0.00  0.00    +0.000 A 
ATOM      6  C   UNL     1       2.450   8.281  18.373  0.00  0.00    +0.000 A 
ATOM      7  N   UNL     1       3.315   7.696  17.519  0.00  0.00    +0.000 NA
ATOM      8  C   UNL     1       3.707   6.418  17.741  0.00  0.00    +0.000 A 
ATOM      9  N   UNL     1       4.716   5.874  16.978  0.00  0.00    +0.000 N 
ATOM     10  C   UNL     1       5.749   6.742  16.424  0.00  0.00    +0.000 C 
ATOM     11  C   UNL     1       7.110   6.006  16.532  0.00  0.00    +0.000 C 
ATOM     12  N   UNL     1       7.153   4.641  15.946  0.00  0.00    +0.000 NA
ATOM     13  C   UNL     1       7.146   4.694  14.487  0.00  0.00    +0.000 C 
ATOM     14  C   UNL     1       6.012   3.847  16.466  0.00  0.00    +0.000 C 
ATOM     15  C   UNL     1       4.626   4.535  16.396  0.00  0.00    +0.000 C 
ATOM     16  C   UNL     1       3.208   5.690  18.810  0.00  0.00    +0.000 A 
ATOM     17  C   UNL     1       2.342   6.286  19.726  0.00  0.00    +0.000 A 
ATOM     18  C   UNL     1       1.917   5.500  20.935  0.00  0.00    +0.000 C 
ATOM     19  C   UNL     1       1.952   7.620  19.513  0.00  0.00    +0.000 A 
ATOM     20  C   UNL     1       1.123   8.319  20.417  0.00  0.00    +0.000 A 
ENDBRANCH   1   3
BRANCH   1  21
ATOM     21  C   UNL     1      -0.959  11.336  20.932  0.00  0.00    +0.000 C 
ATOM     22  S   UNL     1      -1.657  11.538  19.403  0.00  0.00    +0.000 S 
BRANCH  21  26
ATOM     23  N   UNL     1      -3.031  14.186  23.127  0.00  0.00    +0.000 N 
ATOM     24  C   UNL     1      -2.180  14.448  21.941  0.00  0.00    +0.000 C 
ATOM     25  C   UNL     1      -0.902  13.602  22.042  0.00  0.00    +0.000 C 
ATOM     26  N   UNL     1      -1.246  12.162  22.028  0.00  0.00    +0.000 N 
ATOM     27  C   UNL     1      -2.150  11.824  23.153  0.00  0.00    +0.000 C 
ATOM     28  C   UNL     1      -3.405  12.746  23.230  0.00  0.00    +0.000 C 
BRANCH  23  34
ATOM     29  C   UNL     1      -5.094  18.052  25.606  0.00  0.00    +0.000 C 
ATOM     30  C   UNL     1      -5.122  16.988  24.539  0.00  0.00    +0.000 A 
ATOM     31  C   UNL     1      -6.287  16.846  23.777  0.00  0.00    +0.000 A 
ATOM     32  C   UNL     1      -6.368  15.866  22.800  0.00  0.00    +0.000 A 
ATOM     33  C   UNL     1      -5.298  14.993  22.601  0.00  0.00    +0.000 A 
ATOM     34  C   UNL     1      -4.103  15.084  23.344  0.00  0.00    +0.000 A 
ATOM     35  C   UNL     1      -4.005  16.141  24.290  0.00  0.00    +0.000 A 
ATOM     36  C   UNL     1      -2.715  16.413  25.028  0.00  0.00    +0.000 C 
ENDBRANCH  23  34
ENDBRANCH  21  26
ENDBRANCH   1  21
TORSDOF 4
ENDMDL
MODEL 4
REMARK VINA RESULT:      -7.8      1.249      1.489
REMARK  Name = 
REMARK  8 active torsions:
REMARK  status: ('A' for Active; 'I' for Inactive)
REMARK    1  A    between atoms: C_1  and  C_2
REMARK    2  A    between atoms: C_6  and  N_7
REMARK    3  A    between atoms: N_10  and  C_11
REMARK    4  A    between atoms: C_11  and  N_13
REMARK    5  A    between atoms: N_13  and  C_14
REMARK    6  A    between atoms: N_23  and  C_24
REMARK    7  A    between atoms: C_28  and  C_29
REMARK    8  A    between atoms: C_34  and  C_35
REMARK                            x       y       z     vdW  Elec       q    Type
REMARK                         _______ _______ _______ _____ _____    ______ ____
ROOT
ATOM      1  N   UNL     1      -1.444  12.188  21.124  0.00  0.00    +0.000 N 
ATOM      2  H   UNL     1      -2.325  12.106  20.632  0.00  0.00    +0.000 HD
ENDROOT
BRANCH   1   3
ATOM      3  C   UNL     1      -0.630  11.027  21.142  0.00  0.00    +0.000 A 
ATOM      4  C   UNL     1      -0.642  10.179  22.244  0.00  0.00    +0.000 A 
ATOM      5  C   UNL     1       0.108   8.989  22.221  0.00  0.00    +0.000 A 
ATOM      6  C   UNL     1       0.845   8.592  21.109  0.00  0.00    +0.000 A 
ATOM      7  N   UNL     1       1.462   7.392  21.103  0.00  0.00    +0.000 NA
ATOM      8  C   UNL     1       2.158   7.007  20.007  0.00  0.00    +0.000 A 
ATOM      9  N   UNL     1       2.644   5.721  19.926  0.00  0.00    +0.000 N 
ATOM     10  C   UNL     1       1.945   4.643  20.615  0.00  0.00    +0.000 C 
ATOM     11  C   UNL     1       1.961   3.391  19.699  0.00  0.00    +0.000 C 
ATOM     12  N   UNL     1       3.299   2.968  19.210  0.00  0.00    +0.000 NA
ATOM     13  C   UNL     1       4.082   2.359  20.281  0.00  0.00    +0.000 C 
ATOM     14  C   UNL     1       3.999   4.136  18.621  0.00  0.00    +0.000 C 
ATOM     15  C   UNL     1       4.006   5.421  19.485  0.00  0.00    +0.000 C 
ATOM     16  C   UNL     1       2.276   7.839  18.904  0.00  0.00    +0.000 A 
ATOM     17  C   UNL     1       1.616   9.066  18.872  0.00  0.00    +0.000 A 
ATOM     18  C   UNL     1       1.672   9.884  17.612  0.00  0.00    +0.000 C 
ATOM     19  C   UNL     1       0.872   9.459  19.999  0.00  0.00    +0.000 A 
ATOM     20  C   UNL     1       0.129  10.658  20.033  0.00  0.00    +0.000 A 
ENDBRANCH   1   3
BRANCH   1  21
ATOM     21  C   UNL     1      -1.375  13.271  21.999  0.00  0.00    +0.000 C 
ATOM     22  S   UNL     1      -2.188  13.280  23.483  0.00  0.00    +0.000 S 
BRANCH  21  26
ATOM     23  N   UNL     1       1.829  15.238  20.235  0.00  0.00    +0.000 N 
ATOM     24  C   UNL     1       1.815  14.631  21.589  0.00  0.00    +0.000 C 
ATOM     25  C   UNL     1       0.481  14.959  22.275  0.00  0.00    +0.000 C 
ATOM     26  N   UNL     1      -0.639  14.363  21.514  0.00  0.00    +0.000 N 
ATOM     27  C   UNL     1      -0.663  14.873  20.122  0.00  0.00    +0.000 C 
ATOM     28  C   UNL     1       0.708  14.730  19.393  0.00  0.00    +0.000 C 
BRANCH  23  34
ATOM     29  C   UNL     1       6.283  17.430  19.402  0.00  0.00    +0.000 C 
ATOM     30  C   UNL     1       5.274  16.336  19.168  0.00  0.00    +0.000 A 
ATOM     31  C   UNL     1       5.568  15.358  18.210  0.00  0.00    +0.000 A 
ATOM     32  C   UNL     1       4.660  14.345  17.945  0.00  0.00    +0.000 A 
ATOM     33  C   UNL     1       3.433  14.320  18.608  0.00  0.00    +0.000 A 
ATOM     34  C   UNL     1       3.080  15.282  19.576  0.00  0.00    +0.000 A 
ATOM     35  C   UNL     1       4.050  16.271  19.894  0.00  0.00    +0.000 A 
ATOM     36  C   UNL     1       3.827  17.254  21.019  0.00  0.00    +0.000 C 
ENDBRANCH  23  34
ENDBRANCH  21  26
ENDBRANCH   1  21
TORSDOF 4
ENDMDL
MODEL 5
REMARK VINA RESULT:      -7.7      3.735      6.292
REMARK  Name = 
REMARK  8 active torsions:
REMARK  status: ('A' for Active; 'I' for Inactive)
REMARK    1  A    between atoms: C_1  and  C_2
REMARK    2  A    between atoms: C_6  and  N_7
REMARK    3  A    between atoms: N_10  and  C_11
REMARK    4  A    between atoms: C_11  and  N_13
REMARK    5  A    between atoms: N_13  and  C_14
REMARK    6  A    between atoms: N_23  and  C_24
REMARK    7  A    between atoms: C_28  and  C_29
REMARK    8  A    between atoms: C_34  and  C_35
REMARK                            x       y       z     vdW  Elec       q    Type
REMARK                         _______ _______ _______ _____ _____    ______ ____
ROOT
ATOM      1  N   UNL     1       0.401  10.345  21.319  0.00  0.00    +0.000 N 
ATOM      2  H   UNL     1       0.561  10.039  22.271  0.00  0.00    +0.000 HD
ENDROOT
BRANCH   1   3
ATOM      3  C   UNL     1       1.019   9.569  20.305  0.00  0.00    +0.000 A 
ATOM      4  C   UNL     1       1.337  10.141  19.079  0.00  0.00    +0.000 A 
ATOM      5  C   UNL     1       2.019   9.387  18.108  0.00  0.00    +0.000 A 
ATOM      6  C   UNL     1       2.436   8.078  18.336  0.00  0.00    +0.000 A 
ATOM      7  N   UNL     1       3.177   7.435  17.409  0.00  0.00    +0.000 NA
ATOM      8  C   UNL     1       3.594   6.170  17.652  0.00  0.00    +0.000 A 
ATOM      9  N   UNL     1       4.489   5.572  16.793  0.00  0.00    +0.000 N 
ATOM     10  C   UNL     1       5.437   6.397  16.053  0.00  0.00    +0.000 C 
ATOM     11  C   UNL     1       6.800   5.656  16.018  0.00  0.00    +0.000 C 
ATOM     12  N   UNL     1       6.762   4.259  15.515  0.00  0.00    +0.000 NA
ATOM     13  C   UNL     1       6.556   4.226  14.069  0.00  0.00    +0.000 C 
ATOM     14  C   UNL     1       5.703   3.507  16.232  0.00  0.00    +0.000 C 
ATOM     15  C   UNL     1       4.321   4.202  16.310  0.00  0.00    +0.000 C 
ATOM     16  C   UNL     1       3.245   5.511  18.821  0.00  0.00    +0.000 A 
ATOM     17  C   UNL     1       2.513   6.168  19.809  0.00  0.00    +0.000 A 
ATOM     18  C   UNL     1       2.257   5.459  21.109  0.00  0.00    +0.000 C 
ATOM     19  C   UNL     1       2.098   7.490  19.571  0.00  0.00    +0.000 A 
ATOM     20  C   UNL     1       1.401   8.248  20.536  0.00  0.00    +0.000 A 
ENDBRANCH   1   3
BRANCH   1  21
ATOM     21  C   UNL     1      -0.056  11.657  21.206  0.00  0.00    +0.000 C 
ATOM     22  S   UNL     1       0.985  12.943  20.851  0.00  0.00    +0.000 S 
BRANCH  21  26
ATOM     23  N   UNL     1      -3.466  13.546  22.635  0.00  0.00    +0.000 N 
ATOM     24  C   UNL     1      -2.403  12.922  23.461  0.00  0.00    +0.000 C 
ATOM     25  C   UNL     1      -1.991  11.586  22.825  0.00  0.00    +0.000 C 
ATOM     26  N   UNL     1      -1.421  11.821  21.479  0.00  0.00    +0.000 N 
ATOM     27  C   UNL     1      -2.404  12.501  20.602  0.00  0.00    +0.000 C 
ATOM     28  C   UNL     1      -3.004  13.791  21.239  0.00  0.00    +0.000 C 
BRANCH  23  34
ATOM     29  C   UNL     1      -7.665  16.253  23.254  0.00  0.00    +0.000 C 
ATOM     30  C   UNL     1      -6.216  15.960  23.545  0.00  0.00    +0.000 A 
ATOM     31  C   UNL     1      -5.517  16.840  24.380  0.00  0.00    +0.000 A 
ATOM     32  C   UNL     1      -4.176  16.623  24.658  0.00  0.00    +0.000 A 
ATOM     33  C   UNL     1      -3.511  15.545  24.073  0.00  0.00    +0.000 A 
ATOM     34  C   UNL     1      -4.161  14.631  23.219  0.00  0.00    +0.000 A 
ATOM     35  C   UNL     1      -5.553  14.821  23.003  0.00  0.00    +0.000 A 
ATOM     36  C   UNL     1      -6.369  13.815  22.226  0.00  0.00    +0.000 C 
ENDBRANCH  23  34
ENDBRANCH  21  26
ENDBRANCH   1  21
TORSDOF 4
ENDMDL
MODEL 6
REMARK VINA RESULT:      -7.6      1.209      1.283
REMARK  Name = 
REMARK  8 active torsions:
REMARK  status: ('A' for Active; 'I' for Inactive)
REMARK    1  A    between atoms: C_1  and  C_2
REMARK    2  A    between atoms: C_6  and  N_7
REMARK    3  A    between atoms: N_10  and  C_11
REMARK    4  A    between atoms: C_11  and  N_13
REMARK    5  A    between atoms: N_13  and  C_14
REMARK    6  A    between atoms: N_23  and  C_24
REMARK    7  A    between atoms: C_28  and  C_29
REMARK    8  A    between atoms: C_34  and  C_35
REMARK                            x       y       z     vdW  Elec       q    Type
REMARK                         _______ _______ _______ _____ _____    ______ ____
ROOT
ATOM      1  N   UNL     1      -1.184  12.114  21.288  0.00  0.00    +0.000 N 
ATOM      2  H   UNL     1      -2.168  11.990  21.087  0.00  0.00    +0.000 HD
ENDROOT
BRANCH   1   3
ATOM      3  C   UNL     1      -0.392  10.937  21.272  0.00  0.00    +0.000 A 
ATOM      4  C   UNL     1      -0.352  10.103  22.382  0.00  0.00    +0.000 A 
ATOM      5  C   UNL     1       0.373   8.899  22.331  0.00  0.00    +0.000 A 
ATOM      6  C   UNL     1       1.034   8.475  21.181  0.00  0.00    +0.000 A 
ATOM      7  N   UNL     1       1.628   7.263  21.153  0.00  0.00    +0.000 NA
ATOM      8  C   UNL     1       2.250   6.852  20.023  0.00  0.00    +0.000 A 
ATOM      9  N   UNL     1       2.706   5.556  19.929  0.00  0.00    +0.000 N 
ATOM     10  C   UNL     1       2.029   4.500  20.672  0.00  0.00    +0.000 C 
ATOM     11  C   UNL     1       1.968   3.238  19.773  0.00  0.00    +0.000 C 
ATOM     12  N   UNL     1       3.266   2.783  19.210  0.00  0.00    +0.000 NA
ATOM     13  C   UNL     1       4.101   2.172  20.240  0.00  0.00    +0.000 C 
ATOM     14  C   UNL     1       3.951   3.931  18.566  0.00  0.00    +0.000 C 
ATOM     15  C   UNL     1       4.033   5.226  19.411  0.00  0.00    +0.000 C 
ATOM     16  C   UNL     1       2.316   7.669  18.904  0.00  0.00    +0.000 A 
ATOM     17  C   UNL     1       1.678   8.908  18.896  0.00  0.00    +0.000 A 
ATOM     18  C   UNL     1       1.674   9.710  17.625  0.00  0.00    +0.000 C 
ATOM     19  C   UNL     1       1.010   9.329  20.060  0.00  0.00    +0.000 A 
ATOM     20  C   UNL     1       0.293  10.542  20.124  0.00  0.00    +0.000 A 
ENDBRANCH   1   3
BRANCH   1  21
ATOM     21  C   UNL     1      -0.873  13.322  21.909  0.00  0.00    +0.000 C 
ATOM     22  S   UNL     1      -1.564  13.776  23.386  0.00  0.00    +0.000 S 
BRANCH  21  26
ATOM     23  N   UNL     1       2.770  14.823  20.601  0.00  0.00    +0.000 N 
ATOM     24  C   UNL     1       2.170  15.034  21.942  0.00  0.00    +0.000 C 
ATOM     25  C   UNL     1       0.669  15.316  21.782  0.00  0.00    +0.000 C 
ATOM     26  N   UNL     1      -0.004  14.145  21.177  0.00  0.00    +0.000 N 
ATOM     27  C   UNL     1       0.579  13.826  19.853  0.00  0.00    +0.000 C 
ATOM     28  C   UNL     1       2.132  13.681  19.886  0.00  0.00    +0.000 C 
BRANCH  23  34
ATOM     29  C   UNL     1       7.043  15.440  18.012  0.00  0.00    +0.000 C 
ATOM     30  C   UNL     1       6.288  15.150  19.283  0.00  0.00    +0.000 A 
ATOM     31  C   UNL     1       7.021  14.818  20.428  0.00  0.00    +0.000 A 
ATOM     32  C   UNL     1       6.368  14.522  21.614  0.00  0.00    +0.000 A 
ATOM     33  C   UNL     1       4.974  14.518  21.658  0.00  0.00    +0.000 A 
ATOM     34  C   UNL     1       4.184  14.836  20.534  0.00  0.00    +0.000 A 
ATOM     35  C   UNL     1       4.866  15.212  19.345  0.00  0.00    +0.000 A 
ATOM     36  C   UNL     1       4.113  15.712  18.135  0.00  0.00    +0.000 C 
ENDBRANCH  23  34
ENDBRANCH  21  26
ENDBRANCH   1  21
TORSDOF 4
ENDMDL
MODEL 7
REMARK VINA RESULT:      -7.6      3.458      6.493
REMARK  Name = 
REMARK  8 active torsions:
REMARK  status: ('A' for Active; 'I' for Inactive)
REMARK    1  A    between atoms: C_1  and  C_2
REMARK    2  A    between atoms: C_6  and  N_7
REMARK    3  A    between atoms: N_10  and  C_11
REMARK    4  A    between atoms: C_11  and  N_13
REMARK    5  A    between atoms: N_13  and  C_14
REMARK    6  A    between atoms: N_23  and  C_24
REMARK    7  A    between atoms: C_28  and  C_29
REMARK    8  A    between atoms: C_34  and  C_35
REMARK                            x       y       z     vdW  Elec       q    Type
REMARK                         _______ _______ _______ _____ _____    ______ ____
ROOT
ATOM      1  N   UNL     1       0.270  10.818  20.924  0.00  0.00    +0.000 N 
ATOM      2  H   UNL     1      -0.156  10.360  21.719  0.00  0.00    +0.000 HD
ENDROOT
BRANCH   1   3
ATOM      3  C   UNL     1       0.913   9.968  19.987  0.00  0.00    +0.000 A 
ATOM      4  C   UNL     1       1.304  10.459  18.748  0.00  0.00    +0.000 A 
ATOM      5  C   UNL     1       2.010   9.631  17.856  0.00  0.00    +0.000 A 
ATOM      6  C   UNL     1       2.377   8.327  18.179  0.00  0.00    +0.000 A 
ATOM      7  N   UNL     1       3.142   7.612  17.328  0.00  0.00    +0.000 NA
ATOM      8  C   UNL     1       3.510   6.353  17.662  0.00  0.00    +0.000 A 
ATOM      9  N   UNL     1       4.427   5.682  16.883  0.00  0.00    +0.000 N 
ATOM     10  C   UNL     1       5.433   6.437  16.145  0.00  0.00    +0.000 C 
ATOM     11  C   UNL     1       6.773   5.660  16.219  0.00  0.00    +0.000 C 
ATOM     12  N   UNL     1       6.718   4.237  15.795  0.00  0.00    +0.000 NA
ATOM     13  C   UNL     1       6.580   4.125  14.346  0.00  0.00    +0.000 C 
ATOM     14  C   UNL     1       5.605   3.557  16.502  0.00  0.00    +0.000 C 
ATOM     15  C   UNL     1       4.242   4.291  16.472  0.00  0.00    +0.000 C 
ATOM     16  C   UNL     1       3.087   5.773  18.849  0.00  0.00    +0.000 A 
ATOM     17  C   UNL     1       2.328   6.505  19.760  0.00  0.00    +0.000 A 
ATOM     18  C   UNL     1       1.991   5.881  21.085  0.00  0.00    +0.000 C 
ATOM     19  C   UNL     1       1.964   7.822  19.427  0.00  0.00    +0.000 A 
ATOM     20  C   UNL     1       1.244   8.653  20.312  0.00  0.00    +0.000 A 
ENDBRANCH   1   3
BRANCH   1  21
ATOM     21  C   UNL     1       0.482  12.185  21.094  0.00  0.00    +0.000 C 
ATOM     22  S   UNL     1       1.847  12.967  20.471  0.00  0.00    +0.000 S 
BRANCH  21  26
ATOM     23  N   UNL     1      -3.321  13.437  22.196  0.00  0.00    +0.000 N 
ATOM     24  C   UNL     1      -2.529  13.953  21.052  0.00  0.00    +0.000 C 
ATOM     25  C   UNL     1      -1.069  14.136  21.492  0.00  0.00    +0.000 C 
ATOM     26  N   UNL     1      -0.489  12.829  21.875  0.00  0.00    +0.000 N 
ATOM     27  C   UNL     1      -1.261  12.212  22.979  0.00  0.00    +0.000 C 
ATOM     28  C   UNL     1      -2.791  12.133  22.687  0.00  0.00    +0.000 C 
BRANCH  23  34
ATOM     29  C   UNL     1      -7.779  15.516  23.267  0.00  0.00    +0.000 C 
ATOM     30  C   UNL     1      -6.920  14.498  22.562  0.00  0.00    +0.000 A 
ATOM     31  C   UNL     1      -7.555  13.517  21.791  0.00  0.00    +0.000 A 
ATOM     32  C   UNL     1      -6.808  12.547  21.142  0.00  0.00    +0.000 A 
ATOM     33  C   UNL     1      -5.420  12.524  21.289  0.00  0.00    +0.000 A 
ATOM     34  C   UNL     1      -4.729  13.481  22.059  0.00  0.00    +0.000 A 
ATOM     35  C   UNL     1      -5.499  14.515  22.656  0.00  0.00    +0.000 A 
ATOM     36  C   UNL     1      -4.839  15.668  23.376  0.00  0.00    +0.000 C 
ENDBRANCH  23  34
ENDBRANCH  21  26
ENDBRANCH   1  21
TORSDOF 4
ENDMDL
MODEL 8
REMARK VINA RESULT:      -7.6      2.824      5.710
REMARK  Name = 
REMARK  8 active torsions:
REMARK  status: ('A' for Active; 'I' for Inactive)
REMARK    1  A    between atoms: C_1  and  C_2
REMARK    2  A    between atoms: C_6  and  N_7
REMARK    3  A    between atoms: N_10  and  C_11
REMARK    4  A    between atoms: C_11  and  N_13
REMARK    5  A    between atoms: N_13  and  C_14
REMARK    6  A    between atoms: N_23  and  C_24
REMARK    7  A    between atoms: C_28  and  C_29
REMARK    8  A    between atoms: C_34  and  C_35
REMARK                            x       y       z     vdW  Elec       q    Type
REMARK                         _______ _______ _______ _____ _____    ______ ____
ROOT
ATOM      1  N   UNL     1       1.158  12.931  19.047  0.00  0.00    +0.000 N 
ATOM      2  H   UNL     1       0.550  13.366  18.365  0.00  0.00    +0.000 HD
ENDROOT
BRANCH   1   3
ATOM      3  C   UNL     1       1.329  11.528  18.923  0.00  0.00    +0.000 A 
ATOM      4  C   UNL     1       1.843  10.985  17.752  0.00  0.00    +0.000 A 
ATOM      5  C   UNL     1       2.083   9.601  17.666  0.00  0.00    +0.000 A 
ATOM      6  C   UNL     1       1.862   8.737  18.735  0.00  0.00    +0.000 A 
ATOM      7  N   UNL     1       2.205   7.437  18.632  0.00  0.00    +0.000 NA
ATOM      8  C   UNL     1       2.006   6.610  19.687  0.00  0.00    +0.000 A 
ATOM      9  N   UNL     1       2.508   5.329  19.652  0.00  0.00    +0.000 N 
ATOM     10  C   UNL     1       3.710   5.048  18.875  0.00  0.00    +0.000 C 
ATOM     11  C   UNL     1       4.584   4.049  19.677  0.00  0.00    +0.000 C 
ATOM     12  N   UNL     1       3.900   2.806  20.120  0.00  0.00    +0.000 NA
ATOM     13  C   UNL     1       3.667   1.904  18.996  0.00  0.00    +0.000 C 
ATOM     14  C   UNL     1       2.633   3.160  20.805  0.00  0.00    +0.000 C 
ATOM     15  C   UNL     1       1.722   4.164  20.057  0.00  0.00    +0.000 C 
ATOM     16  C   UNL     1       1.423   7.070  20.858  0.00  0.00    +0.000 A 
ATOM     17  C   UNL     1       1.095   8.418  21.001  0.00  0.00    +0.000 A 
ATOM     18  C   UNL     1       0.576   8.898  22.327  0.00  0.00    +0.000 C 
ATOM     19  C   UNL     1       1.323   9.284  19.917  0.00  0.00    +0.000 A 
ATOM     20  C   UNL     1       1.072  10.670  19.992  0.00  0.00    +0.000 A 
ENDBRANCH   1   3
BRANCH   1  21
ATOM     21  C   UNL     1       1.394  13.705  20.182  0.00  0.00    +0.000 C 
ATOM     22  S   UNL     1       2.902  13.736  20.949  0.00  0.00    +0.000 S 
BRANCH  21  26
ATOM     23  N   UNL     1      -2.256  14.177  22.104  0.00  0.00    +0.000 N 
ATOM     24  C   UNL     1      -2.038  13.512  20.795  0.00  0.00    +0.000 C 
ATOM     25  C   UNL     1      -1.040  14.338  19.971  0.00  0.00    +0.000 C 
ATOM     26  N   UNL     1       0.268  14.389  20.663  0.00  0.00    +0.000 N 
ATOM     27  C   UNL     1       0.130  14.988  22.012  0.00  0.00    +0.000 C 
ATOM     28  C   UNL     1      -0.984  14.314  22.870  0.00  0.00    +0.000 C 
BRANCH  23  34
ATOM     29  C   UNL     1      -7.024  14.611  23.660  0.00  0.00    +0.000 C 
ATOM     30  C   UNL     1      -5.693  13.906  23.631  0.00  0.00    +0.000 A 
ATOM     31  C   UNL     1      -5.521  12.783  24.448  0.00  0.00    +0.000 A 
ATOM     32  C   UNL     1      -4.306  12.115  24.471  0.00  0.00    +0.000 A 
ATOM     33  C   UNL     1      -3.239  12.586  23.706  0.00  0.00    +0.000 A 
ATOM     34  C   UNL     1      -3.353  13.716  22.870  0.00  0.00    +0.000 A 
ATOM     35  C   UNL     1      -4.624  14.346  22.797  0.00  0.00    +0.000 A 
ATOM     36  C   UNL     1      -4.887  15.469  21.822  0.00  0.00    +0.000 C 
ENDBRANCH  23  34
ENDBRANCH  21  26
ENDBRANCH   1  21
TORSDOF 4
ENDMDL
MODEL 9
REMARK VINA RESULT:      -7.5      1.049      1.318
REMARK  Name = 
REMARK  8 active torsions:
REMARK  status: ('A' for Active; 'I' for Inactive)
REMARK    1  A    between atoms: C_1  and  C_2
REMARK    2  A    between atoms: C_6  and  N_7
REMARK    3  A    between atoms: N_10  and  C_11
REMARK    4  A    between atoms: C_11  and  N_13
REMARK    5  A    between atoms: N_13  and  C_14
REMARK    6  A    between atoms: N_23  and  C_24
REMARK    7  A    between atoms: C_28  and  C_29
REMARK    8  A    between atoms: C_34  and  C_35
REMARK                            x       y       z     vdW  Elec       q    Type
REMARK                         _______ _______ _______ _____ _____    ______ ____
ROOT
ATOM      1  N   UNL     1      -1.424  11.936  21.812  0.00  0.00    +0.000 N 
ATOM      2  H   UNL     1      -1.563  12.254  22.763  0.00  0.00    +0.000 HD
ENDROOT
BRANCH   1   3
ATOM      3  C   UNL     1      -0.595  10.796  21.652  0.00  0.00    +0.000 A 
ATOM      4  C   UNL     1      -0.521   9.836  22.654  0.00  0.00    +0.000 A 
ATOM      5  C   UNL     1       0.242   8.671  22.456  0.00  0.00    +0.000 A 
ATOM      6  C   UNL     1       0.910   8.411  21.262  0.00  0.00    +0.000 A 
ATOM      7  N   UNL     1       1.542   7.232  21.088  0.00  0.00    +0.000 NA
ATOM      8  C   UNL     1       2.170   6.980  19.914  0.00  0.00    +0.000 A 
ATOM      9  N   UNL     1       2.667   5.721  19.664  0.00  0.00    +0.000 N 
ATOM     10  C   UNL     1       2.030   4.561  20.277  0.00  0.00    +0.000 C 
ATOM     11  C   UNL     1       2.004   3.415  19.232  0.00  0.00    +0.000 C 
ATOM     12  N   UNL     1       3.312   3.074  18.615  0.00  0.00    +0.000 NA
ATOM     13  C   UNL     1       4.173   2.371  19.562  0.00  0.00    +0.000 C 
ATOM     14  C   UNL     1       3.955   4.313  18.112  0.00  0.00    +0.000 C 
ATOM     15  C   UNL     1       4.001   5.499  19.107  0.00  0.00    +0.000 C 
ATOM     16  C   UNL     1       2.203   7.927  18.902  0.00  0.00    +0.000 A 
ATOM     17  C   UNL     1       1.525   9.137  19.045  0.00  0.00    +0.000 A 
ATOM     18  C   UNL     1       1.486  10.086  17.880  0.00  0.00    +0.000 C 
ATOM     19  C   UNL     1       0.851   9.392  20.253  0.00  0.00    +0.000 A 
ATOM     20  C   UNL     1       0.095  10.564  20.464  0.00  0.00    +0.000 A 
ENDBRANCH   1   3
BRANCH   1  21
ATOM     21  C   UNL     1      -1.745  12.880  20.838  0.00  0.00    +0.000 C 
ATOM     22  S   UNL     1      -2.822  12.540  19.578  0.00  0.00    +0.000 S 
BRANCH  21  26
ATOM     23  N   UNL     1       1.451  15.504  20.468  0.00  0.00    +0.000 N 
ATOM     24  C   UNL     1       1.360  14.369  21.419  0.00  0.00    +0.000 C 
ATOM     25  C   UNL     1      -0.053  14.331  22.022  0.00  0.00    +0.000 C 
ATOM     26  N   UNL     1      -1.051  14.093  20.955  0.00  0.00    +0.000 N 
ATOM     27  C   UNL     1      -0.986  15.156  19.924  0.00  0.00    +0.000 C 
ATOM     28  C   UNL     1       0.453  15.381  19.367  0.00  0.00    +0.000 C 
BRANCH  23  34
ATOM     29  C   UNL     1       5.631  14.549  17.829  0.00  0.00    +0.000 C 
ATOM     30  C   UNL     1       4.801  15.417  18.739  0.00  0.00    +0.000 A 
ATOM     31  C   UNL     1       5.372  16.598  19.229  0.00  0.00    +0.000 A 
ATOM     32  C   UNL     1       4.654  17.417  20.087  0.00  0.00    +0.000 A 
ATOM     33  C   UNL     1       3.373  17.044  20.494  0.00  0.00    +0.000 A 
ATOM     34  C   UNL     1       2.752  15.864  20.039  0.00  0.00    +0.000 A 
ATOM     35  C   UNL     1       3.467  15.072  19.101  0.00  0.00    +0.000 A 
ATOM     36  C   UNL     1       2.831  13.870  18.443  0.00  0.00    +0.000 C 
ENDBRANCH  23  34
ENDBRANCH  21  26
ENDBRANCH   1  21
TORSDOF 4
ENDMDL
