MODEL 1
REMARK VINA RESULT:      -7.5      0.000      0.000
REMARK  Name = 
REMARK  7 active torsions:
REMARK  status: ('A' for Active; 'I' for Inactive)
REMARK    1  A    between atoms: C_1  and  C_2
REMARK    2  A    between atoms: C_5  and  O_6
REMARK    3  A    between atoms: O_6  and  C_7
REMARK    4  A    between atoms: C_9  and  C_10
REMARK    5  A    between atoms: C_10  and  N_11
REMARK    6  A    between atoms: N_11  and  C_12
REMARK    7  A    between atoms: C_17  and  C_18
REMARK                            x       y       z     vdW  Elec       q    Type
REMARK                         _______ _______ _______ _____ _____    ______ ____
ROOT
ATOM      1  C   UNL     1       2.288   5.559  20.009  0.00  0.00    +0.000 A 
ATOM      2  C   UNL     1       3.199   4.947  19.151  0.00  0.00    +0.000 A 
ATOM      3  C   UNL     1       2.937   3.644  18.692  0.00  0.00    +0.000 A 
ATOM      4  C   UNL     1       1.828   2.983  19.225  0.00  0.00    +0.000 A 
ATOM      5  C   UNL     1       1.002   3.662  20.114  0.00  0.00    +0.000 A 
ATOM      6  N   UNL     1       1.187   4.945  20.485  0.00  0.00    +0.000 NA
ENDROOT
BRANCH   1   7
ATOM      7  O   UNL     1       2.488   6.890  20.317  0.00  0.00    +0.000 OA
BRANCH   7  12
ATOM      8  C   UNL     1      -0.209  11.707  18.687  0.00  0.00    +0.000 C 
ATOM      9  C   UNL     1       0.768  10.637  19.177  0.00  0.00    +0.000 C 
ATOM     10  C   UNL     1       0.232   9.913  20.418  0.00  0.00    +0.000 C 
ATOM     11  C   UNL     1       1.177   8.802  20.877  0.00  0.00    +0.000 C 
ATOM     12  C   UNL     1       1.496   7.787  19.771  0.00  0.00    +0.000 C 
ATOM     13  C   UNL     1       2.004   8.521  18.517  0.00  0.00    +0.000 C 
ATOM     14  C   UNL     1       1.052   9.628  18.060  0.00  0.00    +0.000 C 
ENDBRANCH   7  12
ENDBRANCH   1   7
BRANCH   3  15
ATOM     15  C   UNL     1       3.785   2.991  17.615  0.00  0.00    +0.000 C 
BRANCH  15  16
ATOM     16  N   UNL     1       5.181   3.390  17.748  0.00  0.00    +0.000 N 
ATOM     17  H   UNL     1       5.293   4.040  18.522  0.00  0.00    +0.000 HD
BRANCH  16  18
ATOM     18  C   UNL     1       5.789   3.934  16.593  0.00  0.00    +0.000 A 
ATOM     19  N   UNL     1       5.266   3.681  15.369  0.00  0.00    +0.000 NA
ATOM     20  C   UNL     1       5.882   4.261  14.302  0.00  0.00    +0.000 A 
ATOM     21  C   UNL     1       7.007   5.054  14.430  0.00  0.00    +0.000 A 
ATOM     22  N   UNL     1       7.575   5.303  15.621  0.00  0.00    +0.000 NA
ATOM     23  C   UNL     1       6.950   4.730  16.694  0.00  0.00    +0.000 A 
BRANCH  23  24
ATOM     24  C   UNL     1       7.533   5.030  17.963  0.00  0.00    +0.000 C 
ATOM     25  N   UNL     1       8.017   5.220  19.009  0.00  0.00    +0.000 NA
ENDBRANCH  23  24
ENDBRANCH  16  18
ENDBRANCH  15  16
ENDBRANCH   3  15
TORSDOF 6
ENDMDL
MODEL 2
REMARK VINA RESULT:      -7.4      2.696      6.333
REMARK  Name = 
REMARK  7 active torsions:
REMARK  status: ('A' for Active; 'I' for Inactive)
REMARK    1  A    between atoms: C_1  and  C_2
REMARK    2  A    between atoms: C_5  and  O_6
REMARK    3  A    between atoms: O_6  and  C_7
REMARK    4  A    between atoms: C_9  and  C_10
REMARK    5  A    between atoms: C_10  and  N_11
REMARK    6  A    between atoms: N_11  and  C_12
REMARK    7  A    between atoms: C_17  and  C_18
REMARK                            x       y       z     vdW  Elec       q    Type
REMARK                         _______ _______ _______ _____ _____    ______ ____
ROOT
ATOM      1  C   UNL     1       4.688   3.638  19.410  0.00  0.00    +0.000 A 
ATOM      2  C   UNL     1       3.625   4.537  19.471  0.00  0.00    +0.000 A 
ATOM      3  C   UNL     1       2.556   4.275  20.346  0.00  0.00    +0.000 A 
ATOM      4  C   UNL     1       2.561   3.052  21.021  0.00  0.00    +0.000 A 
ATOM      5  C   UNL     1       3.645   2.197  20.860  0.00  0.00    +0.000 A 
ATOM      6  N   UNL     1       4.723   2.482  20.101  0.00  0.00    +0.000 NA
ENDROOT
BRANCH   1   7
ATOM      7  O   UNL     1       5.793   3.997  18.665  0.00  0.00    +0.000 OA
BRANCH   7  12
ATOM      8  C   UNL     1       8.264   9.072  17.535  0.00  0.00    +0.000 C 
ATOM      9  C   UNL     1       7.780   7.621  17.563  0.00  0.00    +0.000 C 
ATOM     10  C   UNL     1       8.161   6.927  18.876  0.00  0.00    +0.000 C 
ATOM     11  C   UNL     1       7.630   5.494  18.934  0.00  0.00    +0.000 C 
ATOM     12  C   UNL     1       6.113   5.405  18.710  0.00  0.00    +0.000 C 
ATOM     13  C   UNL     1       5.734   6.130  17.406  0.00  0.00    +0.000 C 
ATOM     14  C   UNL     1       6.264   7.564  17.357  0.00  0.00    +0.000 C 
ENDBRANCH   7  12
ENDBRANCH   1   7
BRANCH   3  15
ATOM     15  C   UNL     1       1.462   5.296  20.599  0.00  0.00    +0.000 C 
BRANCH  15  16
ATOM     16  N   UNL     1       2.038   6.591  20.943  0.00  0.00    +0.000 N 
ATOM     17  H   UNL     1       1.693   6.905  21.846  0.00  0.00    +0.000 HD
BRANCH  16  18
ATOM     18  C   UNL     1       1.864   7.626  19.995  0.00  0.00    +0.000 A 
ATOM     19  N   UNL     1       2.318   7.466  18.727  0.00  0.00    +0.000 NA
ATOM     20  C   UNL     1       2.091   8.488  17.857  0.00  0.00    +0.000 A 
ATOM     21  C   UNL     1       1.454   9.657  18.228  0.00  0.00    +0.000 A 
ATOM     22  N   UNL     1       1.017   9.867  19.480  0.00  0.00    +0.000 NA
ATOM     23  C   UNL     1       1.235   8.837  20.352  0.00  0.00    +0.000 A 
BRANCH  23  24
ATOM     24  C   UNL     1       0.734   9.048  21.674  0.00  0.00    +0.000 C 
ATOM     25  N   UNL     1       0.371   9.198  22.773  0.00  0.00    +0.000 NA
ENDBRANCH  23  24
ENDBRANCH  16  18
ENDBRANCH  15  16
ENDBRANCH   3  15
TORSDOF 6
ENDMDL
MODEL 3
REMARK VINA RESULT:      -7.4      2.399      7.010
REMARK  Name = 
REMARK  7 active torsions:
REMARK  status: ('A' for Active; 'I' for Inactive)
REMARK    1  A    between atoms: C_1  and  C_2
REMARK    2  A    between atoms: C_5  and  O_6
REMARK    3  A    between atoms: O_6  and  C_7
REMARK    4  A    between atoms: C_9  and  C_10
REMARK    5  A    between atoms: C_10  and  N_11
REMARK    6  A    between atoms: N_11  and  C_12
REMARK    7  A    between atoms: C_17  and  C_18
REMARK                            x       y       z     vdW  Elec       q    Type
REMARK                         _______ _______ _______ _____ _____    ______ ____
ROOT
ATOM      1  C   UNL     1       4.669   3.934  19.624  0.00  0.00    +0.000 A 
ATOM      2  C   UNL     1       3.730   4.962  19.691  0.00  0.00    +0.000 A 
ATOM      3  C   UNL     1       2.524   4.742  20.380  0.00  0.00    +0.000 A 
ATOM      4  C   UNL     1       2.280   3.452  20.857  0.00  0.00    +0.000 A 
ATOM      5  C   UNL     1       3.260   2.479  20.701  0.00  0.00    +0.000 A 
ATOM      6  N   UNL     1       4.461   2.704  20.131  0.00  0.00    +0.000 NA
ENDROOT
BRANCH   1   7
ATOM      7  O   UNL     1       5.904   4.227  19.082  0.00  0.00    +0.000 OA
BRANCH   7  12
ATOM      8  C   UNL     1       6.631   4.437  13.375  0.00  0.00    +0.000 C 
ATOM      9  C   UNL     1       6.551   4.064  14.857  0.00  0.00    +0.000 C 
ATOM     10  C   UNL     1       7.434   4.976  15.716  0.00  0.00    +0.000 C 
ATOM     11  C   UNL     1       7.313   4.645  17.203  0.00  0.00    +0.000 C 
ATOM     12  C   UNL     1       5.864   4.682  17.712  0.00  0.00    +0.000 C 
ATOM     13  C   UNL     1       4.977   3.789  16.827  0.00  0.00    +0.000 C 
ATOM     14  C   UNL     1       5.099   4.128  15.341  0.00  0.00    +0.000 C 
ENDBRANCH   7  12
ENDBRANCH   1   7
BRANCH   3  15
ATOM     15  C   UNL     1       1.542   5.868  20.651  0.00  0.00    +0.000 C 
BRANCH  15  16
ATOM     16  N   UNL     1       2.242   7.141  20.771  0.00  0.00    +0.000 N 
ATOM     17  H   UNL     1       2.268   7.443  21.742  0.00  0.00    +0.000 HD
BRANCH  16  18
ATOM     18  C   UNL     1       1.757   8.201  19.970  0.00  0.00    +0.000 A 
ATOM     19  N   UNL     1       1.901   8.152  18.623  0.00  0.00    +0.000 NA
ATOM     20  C   UNL     1       1.384   9.190  17.908  0.00  0.00    +0.000 A 
ATOM     21  C   UNL     1       0.760  10.268  18.505  0.00  0.00    +0.000 A 
ATOM     22  N   UNL     1       0.625  10.370  19.836  0.00  0.00    +0.000 NA
ATOM     23  C   UNL     1       1.133   9.324  20.554  0.00  0.00    +0.000 A 
BRANCH  23  24
ATOM     24  C   UNL     1       0.953   9.416  21.969  0.00  0.00    +0.000 C 
ATOM     25  N   UNL     1       0.824   9.441  23.129  0.00  0.00    +0.000 NA
ENDBRANCH  23  24
ENDBRANCH  16  18
ENDBRANCH  15  16
ENDBRANCH   3  15
TORSDOF 6
ENDMDL
MODEL 4
REMARK VINA RESULT:      -7.3      2.648      6.680
REMARK  Name = 
REMARK  7 active torsions:
REMARK  status: ('A' for Active; 'I' for Inactive)
REMARK    1  A    between atoms: C_1  and  C_2
REMARK    2  A    between atoms: C_5  and  O_6
REMARK    3  A    between atoms: O_6  and  C_7
REMARK    4  A    between atoms: C_9  and  C_10
REMARK    5  A    between atoms: C_10  and  N_11
REMARK    6  A    between atoms: N_11  and  C_12
REMARK    7  A    between atoms: C_17  and  C_18
REMARK                            x       y       z     vdW  Elec       q    Type
REMARK                         _______ _______ _______ _____ _____    ______ ____
ROOT
ATOM      1  C   UNL     1       3.556   3.729  18.698  0.00  0.00    +0.000 A 
ATOM      2  C   UNL     1       2.905   4.848  19.213  0.00  0.00    +0.000 A 
ATOM      3  C   UNL     1       1.757   4.667  20.004  0.00  0.00    +0.000 A 
ATOM      4  C   UNL     1       1.256   3.369  20.127  0.00  0.00    +0.000 A 
ATOM      5  C   UNL     1       1.950   2.320  19.534  0.00  0.00    +0.000 A 
ATOM      6  N   UNL     1       3.107   2.469  18.858  0.00  0.00    +0.000 NA
ENDROOT
BRANCH   1   7
ATOM      7  O   UNL     1       4.765   3.924  18.061  0.00  0.00    +0.000 OA
BRANCH   7  12
ATOM      8  C   UNL     1       8.257   8.480  17.628  0.00  0.00    +0.000 C 
ATOM      9  C   UNL     1       7.493   7.164  17.466  0.00  0.00    +0.000 C 
ATOM     10  C   UNL     1       7.656   6.264  18.696  0.00  0.00    +0.000 C 
ATOM     11  C   UNL     1       6.847   4.973  18.564  0.00  0.00    +0.000 C 
ATOM     12  C   UNL     1       5.357   5.222  18.286  0.00  0.00    +0.000 C 
ATOM     13  C   UNL     1       5.201   6.151  17.069  0.00  0.00    +0.000 C 
ATOM     14  C   UNL     1       6.009   7.443  17.208  0.00  0.00    +0.000 C 
ENDBRANCH   7  12
ENDBRANCH   1   7
BRANCH   3  15
ATOM     15  C   UNL     1       1.110   5.822  20.748  0.00  0.00    +0.000 C 
BRANCH  15  16
ATOM     16  N   UNL     1       1.981   6.991  20.740  0.00  0.00    +0.000 N 
ATOM     17  H   UNL     1       2.676   6.922  21.479  0.00  0.00    +0.000 HD
BRANCH  16  18
ATOM     18  C   UNL     1       1.341   8.250  20.821  0.00  0.00    +0.000 A 
ATOM     19  N   UNL     1       0.740   8.631  21.974  0.00  0.00    +0.000 NA
ATOM     20  C   UNL     1       0.169   9.868  21.994  0.00  0.00    +0.000 A 
ATOM     21  C   UNL     1       0.165  10.705  20.894  0.00  0.00    +0.000 A 
ATOM     22  N   UNL     1       0.721  10.352  19.725  0.00  0.00    +0.000 NA
ATOM     23  C   UNL     1       1.304   9.115  19.707  0.00  0.00    +0.000 A 
BRANCH  23  24
ATOM     24  C   UNL     1       1.930   8.759  18.473  0.00  0.00    +0.000 C 
ATOM     25  N   UNL     1       2.422   8.515  17.443  0.00  0.00    +0.000 NA
ENDBRANCH  23  24
ENDBRANCH  16  18
ENDBRANCH  15  16
ENDBRANCH   3  15
TORSDOF 6
ENDMDL
MODEL 5
REMARK VINA RESULT:      -7.3      4.056      9.059
REMARK  Name = 
REMARK  7 active torsions:
REMARK  status: ('A' for Active; 'I' for Inactive)
REMARK    1  A    between atoms: C_1  and  C_2
REMARK    2  A    between atoms: C_5  and  O_6
REMARK    3  A    between atoms: O_6  and  C_7
REMARK    4  A    between atoms: C_9  and  C_10
REMARK    5  A    between atoms: C_10  and  N_11
REMARK    6  A    between atoms: N_11  and  C_12
REMARK    7  A    between atoms: C_17  and  C_18
REMARK                            x       y       z     vdW  Elec       q    Type
REMARK                         _______ _______ _______ _____ _____    ______ ____
ROOT
ATOM      1  C   UNL     1       1.881   8.174  19.207  0.00  0.00    +0.000 A 
ATOM      2  C   UNL     1       1.225   9.196  18.524  0.00  0.00    +0.000 A 
ATOM      3  C   UNL     1       0.379  10.063  19.238  0.00  0.00    +0.000 A 
ATOM      4  C   UNL     1       0.144   9.771  20.583  0.00  0.00    +0.000 A 
ATOM      5  C   UNL     1       0.809   8.698  21.167  0.00  0.00    +0.000 A 
ATOM      6  N   UNL     1       1.699   7.921  20.518  0.00  0.00    +0.000 NA
ENDROOT
BRANCH   1   7
ATOM      7  O   UNL     1       2.824   7.440  18.516  0.00  0.00    +0.000 OA
BRANCH   7  12
ATOM      8  C   UNL     1       3.490   1.732  18.181  0.00  0.00    +0.000 C 
ATOM      9  C   UNL     1       3.441   3.245  17.957  0.00  0.00    +0.000 C 
ATOM     10  C   UNL     1       2.010   3.783  18.067  0.00  0.00    +0.000 C 
ATOM     11  C   UNL     1       1.963   5.303  17.901  0.00  0.00    +0.000 C 
ATOM     12  C   UNL     1       2.883   6.044  18.882  0.00  0.00    +0.000 C 
ATOM     13  C   UNL     1       4.311   5.478  18.789  0.00  0.00    +0.000 C 
ATOM     14  C   UNL     1       4.352   3.958  18.960  0.00  0.00    +0.000 C 
ENDBRANCH   7  12
ENDBRANCH   1   7
BRANCH   3  15
ATOM     15  C   UNL     1      -0.217  11.304  18.598  0.00  0.00    +0.000 C 
BRANCH  15  16
ATOM     16  N   UNL     1      -1.129  10.939  17.522  0.00  0.00    +0.000 N 
ATOM     17  H   UNL     1      -0.813  11.332  16.639  0.00  0.00    +0.000 HD
BRANCH  16  18
ATOM     18  C   UNL     1      -2.491  11.270  17.715  0.00  0.00    +0.000 A 
ATOM     19  N   UNL     1      -2.906  11.755  18.911  0.00  0.00    +0.000 NA
ATOM     20  C   UNL     1      -4.224  12.083  19.020  0.00  0.00    +0.000 A 
ATOM     21  C   UNL     1      -5.123  11.914  17.984  0.00  0.00    +0.000 A 
ATOM     22  N   UNL     1      -4.758  11.407  16.796  0.00  0.00    +0.000 NA
ATOM     23  C   UNL     1      -3.434  11.089  16.681  0.00  0.00    +0.000 A 
BRANCH  23  24
ATOM     24  C   UNL     1      -3.041  10.587  15.402  0.00  0.00    +0.000 C 
ATOM     25  N   UNL     1      -2.719  10.127  14.378  0.00  0.00    +0.000 NA
ENDBRANCH  23  24
ENDBRANCH  16  18
ENDBRANCH  15  16
ENDBRANCH   3  15
TORSDOF 6
ENDMDL
MODEL 6
REMARK VINA RESULT:      -7.3      2.639      6.410
REMARK  Name = 
REMARK  7 active torsions:
REMARK  status: ('A' for Active; 'I' for Inactive)
REMARK    1  A    between atoms: C_1  and  C_2
REMARK    2  A    between atoms: C_5  and  O_6
REMARK    3  A    between atoms: O_6  and  C_7
REMARK    4  A    between atoms: C_9  and  C_10
REMARK    5  A    between atoms: C_10  and  N_11
REMARK    6  A    between atoms: N_11  and  C_12
REMARK    7  A    between atoms: C_17  and  C_18
REMARK                            x       y       z     vdW  Elec       q    Type
REMARK                         _______ _______ _______ _____ _____    ______ ____
ROOT
ATOM      1  C   UNL     1       3.511   3.596  18.729  0.00  0.00    +0.000 A 
ATOM      2  C   UNL     1       2.864   4.726  19.225  0.00  0.00    +0.000 A 
ATOM      3  C   UNL     1       1.685   4.567  19.974  0.00  0.00    +0.000 A 
ATOM      4  C   UNL     1       1.155   3.279  20.076  0.00  0.00    +0.000 A 
ATOM      5  C   UNL     1       1.848   2.218  19.506  0.00  0.00    +0.000 A 
ATOM      6  N   UNL     1       3.031   2.345  18.871  0.00  0.00    +0.000 NA
ENDROOT
BRANCH   1   7
ATOM      7  O   UNL     1       4.744   3.768  18.136  0.00  0.00    +0.000 OA
BRANCH   7  12
ATOM      8  C   UNL     1       8.188   8.348  17.586  0.00  0.00    +0.000 C 
ATOM      9  C   UNL     1       7.438   7.021  17.458  0.00  0.00    +0.000 C 
ATOM     10  C   UNL     1       7.610   6.155  18.711  0.00  0.00    +0.000 C 
ATOM     11  C   UNL     1       6.815   4.853  18.612  0.00  0.00    +0.000 C 
ATOM     12  C   UNL     1       5.323   5.078  18.327  0.00  0.00    +0.000 C 
ATOM     13  C   UNL     1       5.157   5.974  17.086  0.00  0.00    +0.000 C 
ATOM     14  C   UNL     1       5.951   7.277  17.193  0.00  0.00    +0.000 C 
ENDBRANCH   7  12
ENDBRANCH   1   7
BRANCH   3  15
ATOM     15  C   UNL     1       1.035   5.733  20.699  0.00  0.00    +0.000 C 
BRANCH  15  16
ATOM     16  N   UNL     1       1.970   6.844  20.825  0.00  0.00    +0.000 N 
ATOM     17  H   UNL     1       2.033   7.148  21.794  0.00  0.00    +0.000 HD
BRANCH  16  18
ATOM     18  C   UNL     1       1.723   7.967  20.002  0.00  0.00    +0.000 A 
ATOM     19  N   UNL     1       2.142   7.967  18.712  0.00  0.00    +0.000 NA
ATOM     20  C   UNL     1       1.844   9.067  17.966  0.00  0.00    +0.000 A 
ATOM     21  C   UNL     1       1.172  10.159  18.482  0.00  0.00    +0.000 A 
ATOM     22  N   UNL     1       0.770  10.212  19.762  0.00  0.00    +0.000 NA
ATOM     23  C   UNL     1       1.057   9.104  20.509  0.00  0.00    +0.000 A 
BRANCH  23  24
ATOM     24  C   UNL     1       0.593   9.147  21.859  0.00  0.00    +0.000 C 
ATOM     25  N   UNL     1       0.198   9.130  22.958  0.00  0.00    +0.000 NA
ENDBRANCH  23  24
ENDBRANCH  16  18
ENDBRANCH  15  16
ENDBRANCH   3  15
TORSDOF 6
ENDMDL
MODEL 7
REMARK VINA RESULT:      -7.2      2.606      3.654
REMARK  Name = 
REMARK  7 active torsions:
REMARK  status: ('A' for Active; 'I' for Inactive)
REMARK    1  A    between atoms: C_1  and  C_2
REMARK    2  A    between atoms: C_5  and  O_6
REMARK    3  A    between atoms: O_6  and  C_7
REMARK    4  A    between atoms: C_9  and  C_10
REMARK    5  A    between atoms: C_10  and  N_11
REMARK    6  A    between atoms: N_11  and  C_12
REMARK    7  A    between atoms: C_17  and  C_18
REMARK                            x       y       z     vdW  Elec       q    Type
REMARK                         _______ _______ _______ _____ _____    ______ ____
ROOT
ATOM      1  C   UNL     1       1.039   9.434  19.206  0.00  0.00    +0.000 A 
ATOM      2  C   UNL     1       1.824   8.652  18.361  0.00  0.00    +0.000 A 
ATOM      3  C   UNL     1       2.373   7.453  18.851  0.00  0.00    +0.000 A 
ATOM      4  C   UNL     1       2.200   7.173  20.208  0.00  0.00    +0.000 A 
ATOM      5  C   UNL     1       1.439   8.040  20.984  0.00  0.00    +0.000 A 
ATOM      6  N   UNL     1       0.825   9.139  20.503  0.00  0.00    +0.000 NA
ENDROOT
BRANCH   1   7
ATOM      7  O   UNL     1       0.386  10.518  18.657  0.00  0.00    +0.000 OA
BRANCH   7  12
ATOM      8  C   UNL     1      -5.148  11.450  17.375  0.00  0.00    +0.000 C 
ATOM      9  C   UNL     1      -3.621  11.418  17.461  0.00  0.00    +0.000 C 
ATOM     10  C   UNL     1      -3.125  11.888  18.833  0.00  0.00    +0.000 C 
ATOM     11  C   UNL     1      -1.603  11.803  18.944  0.00  0.00    +0.000 C 
ATOM     12  C   UNL     1      -1.054  10.403  18.637  0.00  0.00    +0.000 C 
ATOM     13  C   UNL     1      -1.580   9.923  17.272  0.00  0.00    +0.000 C 
ATOM     14  C   UNL     1      -3.104  10.007  17.168  0.00  0.00    +0.000 C 
ENDBRANCH   7  12
ENDBRANCH   1   7
BRANCH   3  15
ATOM     15  C   UNL     1       3.077   6.465  17.938  0.00  0.00    +0.000 C 
BRANCH  15  16
ATOM     16  N   UNL     1       4.411   6.944  17.595  0.00  0.00    +0.000 N 
ATOM     17  H   UNL     1       4.352   7.794  17.041  0.00  0.00    +0.000 HD
BRANCH  16  18
ATOM     18  C   UNL     1       5.259   6.021  16.940  0.00  0.00    +0.000 A 
ATOM     19  N   UNL     1       4.745   4.876  16.427  0.00  0.00    +0.000 NA
ATOM     20  C   UNL     1       5.611   4.046  15.782  0.00  0.00    +0.000 A 
ATOM     21  C   UNL     1       6.961   4.320  15.665  0.00  0.00    +0.000 A 
ATOM     22  N   UNL     1       7.514   5.426  16.186  0.00  0.00    +0.000 NA
ATOM     23  C   UNL     1       6.644   6.266  16.824  0.00  0.00    +0.000 A 
BRANCH  23  24
ATOM     24  C   UNL     1       7.229   7.462  17.344  0.00  0.00    +0.000 C 
ATOM     25  N   UNL     1       7.755   8.412  17.772  0.00  0.00    +0.000 NA
ENDBRANCH  23  24
ENDBRANCH  16  18
ENDBRANCH  15  16
ENDBRANCH   3  15
TORSDOF 6
ENDMDL
MODEL 8
REMARK VINA RESULT:      -7.1      2.424      7.367
REMARK  Name = 
REMARK  7 active torsions:
REMARK  status: ('A' for Active; 'I' for Inactive)
REMARK    1  A    between atoms: C_1  and  C_2
REMARK    2  A    between atoms: C_5  and  O_6
REMARK    3  A    between atoms: O_6  and  C_7
REMARK    4  A    between atoms: C_9  and  C_10
REMARK    5  A    between atoms: C_10  and  N_11
REMARK    6  A    between atoms: N_11  and  C_12
REMARK    7  A    between atoms: C_17  and  C_18
REMARK                            x       y       z     vdW  Elec       q    Type
REMARK                         _______ _______ _______ _____ _____    ______ ____
ROOT
ATOM      1  C   UNL     1       4.302   4.912  19.355  0.00  0.00    +0.000 A 
ATOM      2  C   UNL     1       3.311   5.849  19.646  0.00  0.00    +0.000 A 
ATOM      3  C   UNL     1       2.188   5.449  20.391  0.00  0.00    +0.000 A 
ATOM      4  C   UNL     1       2.067   4.091  20.694  0.00  0.00    +0.000 A 
ATOM      5  C   UNL     1       3.086   3.222  20.319  0.00  0.00    +0.000 A 
ATOM      6  N   UNL     1       4.214   3.611  19.693  0.00  0.00    +0.000 NA
ENDROOT
BRANCH   1   7
ATOM      7  O   UNL     1       5.462   5.366  18.763  0.00  0.00    +0.000 OA
BRANCH   7  12
ATOM      8  C   UNL     1       6.403   3.954  13.262  0.00  0.00    +0.000 C 
ATOM      9  C   UNL     1       6.079   4.634  14.594  0.00  0.00    +0.000 C 
ATOM     10  C   UNL     1       4.920   3.935  15.314  0.00  0.00    +0.000 C 
ATOM     11  C   UNL     1       4.631   4.574  16.673  0.00  0.00    +0.000 C 
ATOM     12  C   UNL     1       5.863   4.629  17.587  0.00  0.00    +0.000 C 
ATOM     13  C   UNL     1       7.032   5.303  16.848  0.00  0.00    +0.000 C 
ATOM     14  C   UNL     1       7.320   4.657  15.491  0.00  0.00    +0.000 C 
ENDBRANCH   7  12
ENDBRANCH   1   7
BRANCH   3  15
ATOM     15  C   UNL     1       1.169   6.452  20.902  0.00  0.00    +0.000 C 
BRANCH  15  16
ATOM     16  N   UNL     1       1.793   7.751  21.121  0.00  0.00    +0.000 N 
ATOM     17  H   UNL     1       1.797   7.980  22.112  0.00  0.00    +0.000 HD
BRANCH  16  18
ATOM     18  C   UNL     1       1.250   8.837  20.396  0.00  0.00    +0.000 A 
ATOM     19  N   UNL     1       1.438   8.917  19.055  0.00  0.00    +0.000 NA
ATOM     20  C   UNL     1       0.863   9.972  18.414  0.00  0.00    +0.000 A 
ATOM     21  C   UNL     1       0.138  10.944  19.077  0.00  0.00    +0.000 A 
ATOM     22  N   UNL     1      -0.044  10.918  20.407  0.00  0.00    +0.000 NA
ATOM     23  C   UNL     1       0.524   9.854  21.051  0.00  0.00    +0.000 A 
BRANCH  23  24
ATOM     24  C   UNL     1       0.294   9.808  22.460  0.00  0.00    +0.000 C 
ATOM     25  N   UNL     1       0.066   9.806  23.605  0.00  0.00    +0.000 NA
ENDBRANCH  23  24
ENDBRANCH  16  18
ENDBRANCH  15  16
ENDBRANCH   3  15
TORSDOF 6
ENDMDL
MODEL 9
REMARK VINA RESULT:      -7.1      2.410      7.084
REMARK  Name = 
REMARK  7 active torsions:
REMARK  status: ('A' for Active; 'I' for Inactive)
REMARK    1  A    between atoms: C_1  and  C_2
REMARK    2  A    between atoms: C_5  and  O_6
REMARK    3  A    between atoms: O_6  and  C_7
REMARK    4  A    between atoms: C_9  and  C_10
REMARK    5  A    between atoms: C_10  and  N_11
REMARK    6  A    between atoms: N_11  and  C_12
REMARK    7  A    between atoms: C_17  and  C_18
REMARK                            x       y       z     vdW  Elec       q    Type
REMARK                         _______ _______ _______ _____ _____    ______ ____
ROOT
ATOM      1  C   UNL     1       3.827   4.266  19.726  0.00  0.00    +0.000 A 
ATOM      2  C   UNL     1       3.141   5.444  20.017  0.00  0.00    +0.000 A 
ATOM      3  C   UNL     1       1.851   5.365  20.569  0.00  0.00    +0.000 A 
ATOM      4  C   UNL     1       1.273   4.099  20.681  0.00  0.00    +0.000 A 
ATOM      5  C   UNL     1       2.019   2.983  20.319  0.00  0.00    +0.000 A 
ATOM      6  N   UNL     1       3.293   3.038  19.882  0.00  0.00    +0.000 NA
ENDROOT
BRANCH   1   7
ATOM      7  O   UNL     1       5.146   4.369  19.335  0.00  0.00    +0.000 OA
BRANCH   7  12
ATOM      8  C   UNL     1       7.138   4.953  13.965  0.00  0.00    +0.000 C 
ATOM      9  C   UNL     1       6.790   4.512  15.388  0.00  0.00    +0.000 C 
ATOM     10  C   UNL     1       7.234   5.553  16.423  0.00  0.00    +0.000 C 
ATOM     11  C   UNL     1       6.837   5.145  17.842  0.00  0.00    +0.000 C 
ATOM     12  C   UNL     1       5.335   4.861  17.990  0.00  0.00    +0.000 C 
ATOM     13  C   UNL     1       4.890   3.838  16.928  0.00  0.00    +0.000 C 
ATOM     14  C   UNL     1       5.286   4.254  15.510  0.00  0.00    +0.000 C 
ENDBRANCH   7  12
ENDBRANCH   1   7
BRANCH   3  15
ATOM     15  C   UNL     1       1.125   6.597  21.082  0.00  0.00    +0.000 C 
BRANCH  15  16
ATOM     16  N   UNL     1       1.867   7.806  20.747  0.00  0.00    +0.000 N 
ATOM     17  H   UNL     1       2.488   8.065  21.510  0.00  0.00    +0.000 HD
BRANCH  16  18
ATOM     18  C   UNL     1       1.095   8.932  20.375  0.00  0.00    +0.000 A 
ATOM     19  N   UNL     1       0.265   9.511  21.276  0.00  0.00    +0.000 NA
ATOM     20  C   UNL     1      -0.426  10.610  20.861  0.00  0.00    +0.000 A 
ATOM     21  C   UNL     1      -0.324  11.115  19.579  0.00  0.00    +0.000 A 
ATOM     22  N   UNL     1       0.463  10.552  18.649  0.00  0.00    +0.000 NA
ATOM     23  C   UNL     1       1.165   9.456  19.067  0.00  0.00    +0.000 A 
BRANCH  23  24
ATOM     24  C   UNL     1       2.031   8.883  18.085  0.00  0.00    +0.000 C 
ATOM     25  N   UNL     1       2.705   8.432  17.245  0.00  0.00    +0.000 NA
ENDBRANCH  23  24
ENDBRANCH  16  18
ENDBRANCH  15  16
ENDBRANCH   3  15
TORSDOF 6
ENDMDL
