MODEL 1
REMARK VINA RESULT:      -7.7      0.000      0.000
REMARK  Name = 
REMARK  9 active torsions:
REMARK  status: ('A' for Active; 'I' for Inactive)
REMARK    1  A    between atoms: C_1  and  C_2
REMARK    2  A    between atoms: C_2  and  C_3
REMARK    3  A    between atoms: C_3  and  N_4
REMARK    4  A    between atoms: N_6  and  C_7
REMARK    5  A    between atoms: C_7  and  C_8
REMARK    6  A    between atoms: C_8  and  C_9
REMARK    7  A    between atoms: N_14  and  C_15
REMARK    8  A    between atoms: C_15  and  C_16
REMARK    9  A    between atoms: C_18  and  C_19
REMARK                            x       y       z     vdW  Elec       q    Type
REMARK                         _______ _______ _______ _____ _____    ______ ____
ROOT
ATOM      1  N   UNL     1       3.744   5.880  17.998  0.00  0.00    +0.000 N 
ATOM      2  C   UNL     1       4.566   4.886  17.544  0.00  0.00    +0.000 C 
ATOM      3  N   UNL     1       4.227   3.727  17.097  0.00  0.00    +0.000 NA
ATOM      4  N   UNL     1       5.864   5.265  17.602  0.00  0.00    +0.000 N 
ATOM      5  H   UNL     1       2.763   5.632  17.989  0.00  0.00    +0.000 HD
ATOM      6  H   UNL     1       6.122   5.880  18.364  0.00  0.00    +0.000 HD
ENDROOT
BRANCH   1   7
ATOM      7  C   UNL     1       3.941   7.286  17.646  0.00  0.00    +0.000 C 
BRANCH   7   9
ATOM      8  C   UNL     1       2.049   8.293  19.000  0.00  0.00    +0.000 C 
ATOM      9  C   UNL     1       2.603   8.018  17.611  0.00  0.00    +0.000 C 
ENDBRANCH   7   9
ENDBRANCH   1   7
BRANCH   3  10
ATOM     10  C   UNL     1       2.805   3.388  17.014  0.00  0.00    +0.000 C 
BRANCH  10  11
ATOM     11  C   UNL     1       2.530   2.115  17.825  0.00  0.00    +0.000 C 
BRANCH  11  12
ATOM     12  C   UNL     1       2.242   2.445  19.264  0.00  0.00    +0.000 A 
ATOM     13  C   UNL     1       1.025   2.749  19.841  0.00  0.00    +0.000 A 
ATOM     14  C   UNL     1       1.142   3.060  21.226  0.00  0.00    +0.000 A 
ATOM     15  C   UNL     1       2.443   2.966  21.666  0.00  0.00    +0.000 A 
ATOM     16  S   UNL     1       3.512   2.498  20.415  0.00  0.00    +0.000 S 
ENDBRANCH  11  12
ENDBRANCH  10  11
ENDBRANCH   3  10
BRANCH   4  17
ATOM     17  C   UNL     1       6.956   4.542  16.985  0.00  0.00    +0.000 C 
BRANCH  17  18
ATOM     18  C   UNL     1       6.934   4.563  15.493  0.00  0.00    +0.000 A 
ATOM     19  N   UNL     1       6.405   3.720  14.625  0.00  0.00    +0.000 NA
ATOM     20  C   UNL     1       6.775   4.283  13.424  0.00  0.00    +0.000 A 
ATOM     21  N   UNL     1       7.478   5.416  13.530  0.00  0.00    +0.000 NA
ATOM     22  O   UNL     1       7.585   5.607  14.904  0.00  0.00    +0.000 OA
BRANCH  20  23
ATOM     23  C   UNL     1       6.422   3.707  12.063  0.00  0.00    +0.000 C 
ATOM     24  C   UNL     1       5.886   2.295  11.955  0.00  0.00    +0.000 C 
ATOM     25  C   UNL     1       4.963   3.446  11.745  0.00  0.00    +0.000 C 
ENDBRANCH  20  23
ENDBRANCH  17  18
ENDBRANCH   4  17
TORSDOF 8
ENDMDL
MODEL 2
REMARK VINA RESULT:      -7.7      1.881      3.992
REMARK  Name = 
REMARK  9 active torsions:
REMARK  status: ('A' for Active; 'I' for Inactive)
REMARK    1  A    between atoms: C_1  and  C_2
REMARK    2  A    between atoms: C_2  and  C_3
REMARK    3  A    between atoms: C_3  and  N_4
REMARK    4  A    between atoms: N_6  and  C_7
REMARK    5  A    between atoms: C_7  and  C_8
REMARK    6  A    between atoms: C_8  and  C_9
REMARK    7  A    between atoms: N_14  and  C_15
REMARK    8  A    between atoms: C_15  and  C_16
REMARK    9  A    between atoms: C_18  and  C_19
REMARK                            x       y       z     vdW  Elec       q    Type
REMARK                         _______ _______ _______ _____ _____    ______ ____
ROOT
ATOM      1  N   UNL     1       3.334   3.193  18.620  0.00  0.00    +0.000 N 
ATOM      2  C   UNL     1       4.112   4.137  18.009  0.00  0.00    +0.000 C 
ATOM      3  N   UNL     1       3.805   5.359  17.745  0.00  0.00    +0.000 NA
ATOM      4  N   UNL     1       5.328   3.634  17.692  0.00  0.00    +0.000 N 
ATOM      5  H   UNL     1       2.407   3.522  18.859  0.00  0.00    +0.000 HD
ATOM      6  H   UNL     1       5.360   2.654  17.440  0.00  0.00    +0.000 HD
ENDROOT
BRANCH   1   7
ATOM      7  C   UNL     1       3.856   2.285  19.642  0.00  0.00    +0.000 C 
BRANCH   7   9
ATOM      8  C   UNL     1       1.737   2.960  20.858  0.00  0.00    +0.000 C 
ATOM      9  C   UNL     1       3.200   2.569  20.990  0.00  0.00    +0.000 C 
ENDBRANCH   7   9
ENDBRANCH   1   7
BRANCH   3  10
ATOM     10  C   UNL     1       2.492   5.863  18.151  0.00  0.00    +0.000 C 
BRANCH  10  11
ATOM     11  C   UNL     1       2.599   6.535  19.526  0.00  0.00    +0.000 C 
BRANCH  11  12
ATOM     12  C   UNL     1       1.924   7.880  19.521  0.00  0.00    +0.000 A 
ATOM     13  C   UNL     1       1.266   8.506  20.562  0.00  0.00    +0.000 A 
ATOM     14  C   UNL     1       0.703   9.756  20.176  0.00  0.00    +0.000 A 
ATOM     15  C   UNL     1       0.964  10.052  18.857  0.00  0.00    +0.000 A 
ATOM     16  S   UNL     1       1.888   8.831  18.095  0.00  0.00    +0.000 S 
ENDBRANCH  11  12
ENDBRANCH  10  11
ENDBRANCH   3  10
BRANCH   4  17
ATOM     17  C   UNL     1       6.454   4.430  17.253  0.00  0.00    +0.000 C 
BRANCH  17  18
ATOM     18  C   UNL     1       6.622   4.481  15.771  0.00  0.00    +0.000 A 
ATOM     19  N   UNL     1       6.080   3.749  14.815  0.00  0.00    +0.000 NA
ATOM     20  C   UNL     1       6.681   4.265  13.689  0.00  0.00    +0.000 A 
ATOM     21  N   UNL     1       7.534   5.270  13.921  0.00  0.00    +0.000 NA
ATOM     22  O   UNL     1       7.497   5.417  15.304  0.00  0.00    +0.000 OA
BRANCH  20  23
ATOM     23  C   UNL     1       6.415   3.777  12.275  0.00  0.00    +0.000 C 
ATOM     24  C   UNL     1       6.048   2.329  12.031  0.00  0.00    +0.000 C 
ATOM     25  C   UNL     1       5.001   3.381  11.901  0.00  0.00    +0.000 C 
ENDBRANCH  20  23
ENDBRANCH  17  18
ENDBRANCH   4  17
TORSDOF 8
ENDMDL
MODEL 3
REMARK VINA RESULT:      -7.2      1.155      1.569
REMARK  Name = 
REMARK  9 active torsions:
REMARK  status: ('A' for Active; 'I' for Inactive)
REMARK    1  A    between atoms: C_1  and  C_2
REMARK    2  A    between atoms: C_2  and  C_3
REMARK    3  A    between atoms: C_3  and  N_4
REMARK    4  A    between atoms: N_6  and  C_7
REMARK    5  A    between atoms: C_7  and  C_8
REMARK    6  A    between atoms: C_8  and  C_9
REMARK    7  A    between atoms: N_14  and  C_15
REMARK    8  A    between atoms: C_15  and  C_16
REMARK    9  A    between atoms: C_18  and  C_19
REMARK                            x       y       z     vdW  Elec       q    Type
REMARK                         _______ _______ _______ _____ _____    ______ ____
ROOT
ATOM      1  N   UNL     1       4.221   5.539  18.747  0.00  0.00    +0.000 N 
ATOM      2  C   UNL     1       5.350   4.808  18.504  0.00  0.00    +0.000 C 
ATOM      3  N   UNL     1       5.773   3.776  19.148  0.00  0.00    +0.000 NA
ATOM      4  N   UNL     1       6.028   5.300  17.441  0.00  0.00    +0.000 N 
ATOM      5  H   UNL     1       3.691   5.217  19.547  0.00  0.00    +0.000 HD
ATOM      6  H   UNL     1       5.987   6.301  17.302  0.00  0.00    +0.000 HD
ENDROOT
BRANCH   1   7
ATOM      7  C   UNL     1       3.338   6.002  17.676  0.00  0.00    +0.000 C 
BRANCH   7   9
ATOM      8  C   UNL     1       2.495   8.385  17.862  0.00  0.00    +0.000 C 
ATOM      9  C   UNL     1       2.264   6.929  18.236  0.00  0.00    +0.000 C 
ENDBRANCH   7   9
ENDBRANCH   1   7
BRANCH   3  10
ATOM     10  C   UNL     1       4.976   3.261  20.262  0.00  0.00    +0.000 C 
BRANCH  10  11
ATOM     11  C   UNL     1       4.152   2.055  19.793  0.00  0.00    +0.000 C 
BRANCH  11  12
ATOM     12  C   UNL     1       2.700   2.422  19.641  0.00  0.00    +0.000 A 
ATOM     13  C   UNL     1       1.898   2.277  18.526  0.00  0.00    +0.000 A 
ATOM     14  C   UNL     1       0.583   2.785  18.733  0.00  0.00    +0.000 A 
ATOM     15  C   UNL     1       0.419   3.285  20.005  0.00  0.00    +0.000 A 
ATOM     16  S   UNL     1       1.842   3.135  20.942  0.00  0.00    +0.000 S 
ENDBRANCH  11  12
ENDBRANCH  10  11
ENDBRANCH   3  10
BRANCH   4  17
ATOM     17  C   UNL     1       7.128   4.622  16.787  0.00  0.00    +0.000 C 
BRANCH  17  18
ATOM     18  C   UNL     1       7.030   4.599  15.298  0.00  0.00    +0.000 A 
ATOM     19  N   UNL     1       6.380   3.785  14.488  0.00  0.00    +0.000 NA
ATOM     20  C   UNL     1       6.738   4.272  13.251  0.00  0.00    +0.000 A 
ATOM     21  N   UNL     1       7.550   5.335  13.281  0.00  0.00    +0.000 NA
ATOM     22  O   UNL     1       7.746   5.556  14.641  0.00  0.00    +0.000 OA
BRANCH  20  23
ATOM     23  C   UNL     1       6.262   3.691  11.930  0.00  0.00    +0.000 C 
ATOM     24  C   UNL     1       5.806   2.249  11.858  0.00  0.00    +0.000 C 
ATOM     25  C   UNL     1       4.795   3.341  11.781  0.00  0.00    +0.000 C 
ENDBRANCH  20  23
ENDBRANCH  17  18
ENDBRANCH   4  17
TORSDOF 8
ENDMDL
MODEL 4
REMARK VINA RESULT:      -7.2      2.175      4.239
REMARK  Name = 
REMARK  9 active torsions:
REMARK  status: ('A' for Active; 'I' for Inactive)
REMARK    1  A    between atoms: C_1  and  C_2
REMARK    2  A    between atoms: C_2  and  C_3
REMARK    3  A    between atoms: C_3  and  N_4
REMARK    4  A    between atoms: N_6  and  C_7
REMARK    5  A    between atoms: C_7  and  C_8
REMARK    6  A    between atoms: C_8  and  C_9
REMARK    7  A    between atoms: N_14  and  C_15
REMARK    8  A    between atoms: C_15  and  C_16
REMARK    9  A    between atoms: C_18  and  C_19
REMARK                            x       y       z     vdW  Elec       q    Type
REMARK                         _______ _______ _______ _____ _____    ______ ____
ROOT
ATOM      1  N   UNL     1       2.560   4.023  18.429  0.00  0.00    +0.000 N 
ATOM      2  C   UNL     1       3.666   4.770  18.136  0.00  0.00    +0.000 C 
ATOM      3  N   UNL     1       3.890   6.000  18.446  0.00  0.00    +0.000 NA
ATOM      4  N   UNL     1       4.576   4.042  17.447  0.00  0.00    +0.000 N 
ATOM      5  H   UNL     1       1.844   4.534  18.930  0.00  0.00    +0.000 HD
ATOM      6  H   UNL     1       4.210   3.340  16.816  0.00  0.00    +0.000 HD
ENDROOT
BRANCH   1   7
ATOM      7  C   UNL     1       2.647   2.638  18.893  0.00  0.00    +0.000 C 
BRANCH   7   9
ATOM      8  C   UNL     1       1.055   3.664  20.578  0.00  0.00    +0.000 C 
ATOM      9  C   UNL     1       1.957   2.486  20.245  0.00  0.00    +0.000 C 
ENDBRANCH   7   9
ENDBRANCH   1   7
BRANCH   3  10
ATOM     10  C   UNL     1       2.891   6.726  19.231  0.00  0.00    +0.000 C 
BRANCH  10  11
ATOM     11  C   UNL     1       2.361   7.915  18.419  0.00  0.00    +0.000 C 
BRANCH  11  12
ATOM     12  C   UNL     1       1.469   8.787  19.261  0.00  0.00    +0.000 A 
ATOM     13  C   UNL     1       1.191   8.671  20.609  0.00  0.00    +0.000 A 
ATOM     14  C   UNL     1       0.257   9.647  21.058  0.00  0.00    +0.000 A 
ATOM     15  C   UNL     1      -0.135  10.489  20.041  0.00  0.00    +0.000 A 
ATOM     16  S   UNL     1       0.627  10.104  18.559  0.00  0.00    +0.000 S 
ENDBRANCH  11  12
ENDBRANCH  10  11
ENDBRANCH   3  10
BRANCH   4  17
ATOM     17  C   UNL     1       5.937   4.464  17.191  0.00  0.00    +0.000 C 
BRANCH  17  18
ATOM     18  C   UNL     1       6.303   4.494  15.744  0.00  0.00    +0.000 A 
ATOM     19  N   UNL     1       5.894   3.748  14.735  0.00  0.00    +0.000 NA
ATOM     20  C   UNL     1       6.641   4.249  13.692  0.00  0.00    +0.000 A 
ATOM     21  N   UNL     1       7.457   5.257  14.023  0.00  0.00    +0.000 NA
ATOM     22  O   UNL     1       7.234   5.423  15.386  0.00  0.00    +0.000 OA
BRANCH  20  23
ATOM     23  C   UNL     1       6.567   3.741  12.263  0.00  0.00    +0.000 C 
ATOM     24  C   UNL     1       6.152   2.311  11.988  0.00  0.00    +0.000 C 
ATOM     25  C   UNL     1       5.206   3.420  11.678  0.00  0.00    +0.000 C 
ENDBRANCH  20  23
ENDBRANCH  17  18
ENDBRANCH   4  17
TORSDOF 8
ENDMDL
MODEL 5
REMARK VINA RESULT:      -7.0      2.949      4.896
REMARK  Name = 
REMARK  9 active torsions:
REMARK  status: ('A' for Active; 'I' for Inactive)
REMARK    1  A    between atoms: C_1  and  C_2
REMARK    2  A    between atoms: C_2  and  C_3
REMARK    3  A    between atoms: C_3  and  N_4
REMARK    4  A    between atoms: N_6  and  C_7
REMARK    5  A    between atoms: C_7  and  C_8
REMARK    6  A    between atoms: C_8  and  C_9
REMARK    7  A    between atoms: N_14  and  C_15
REMARK    8  A    between atoms: C_15  and  C_16
REMARK    9  A    between atoms: C_18  and  C_19
REMARK                            x       y       z     vdW  Elec       q    Type
REMARK                         _______ _______ _______ _____ _____    ______ ____
ROOT
ATOM      1  N   UNL     1       2.145   5.087  19.117  0.00  0.00    +0.000 N 
ATOM      2  C   UNL     1       2.807   6.146  18.561  0.00  0.00    +0.000 C 
ATOM      3  N   UNL     1       2.726   7.388  18.893  0.00  0.00    +0.000 NA
ATOM      4  N   UNL     1       3.625   5.738  17.562  0.00  0.00    +0.000 N 
ATOM      5  H   UNL     1       1.507   5.350  19.858  0.00  0.00    +0.000 HD
ATOM      6  H   UNL     1       3.312   4.944  17.018  0.00  0.00    +0.000 HD
ENDROOT
BRANCH   1   7
ATOM      7  C   UNL     1       2.802   3.813  19.408  0.00  0.00    +0.000 C 
BRANCH   7   9
ATOM      8  C   UNL     1       0.807   2.367  18.816  0.00  0.00    +0.000 C 
ATOM      9  C   UNL     1       2.254   2.714  18.503  0.00  0.00    +0.000 C 
ENDBRANCH   7   9
ENDBRANCH   1   7
BRANCH   3  10
ATOM     10  C   UNL     1       1.859   7.767  20.010  0.00  0.00    +0.000 C 
BRANCH  10  11
ATOM     11  C   UNL     1       1.206   9.124  19.719  0.00  0.00    +0.000 C 
BRANCH  11  12
ATOM     12  C   UNL     1       0.526   9.668  20.946  0.00  0.00    +0.000 A 
ATOM     13  C   UNL     1       0.172   8.989  22.095  0.00  0.00    +0.000 A 
ATOM     14  C   UNL     1      -0.506   9.821  23.032  0.00  0.00    +0.000 A 
ATOM     15  C   UNL     1      -0.632  11.114  22.574  0.00  0.00    +0.000 A 
ATOM     16  S   UNL     1       0.070  11.319  21.028  0.00  0.00    +0.000 S 
ENDBRANCH  11  12
ENDBRANCH  10  11
ENDBRANCH   3  10
BRANCH   4  17
ATOM     17  C   UNL     1       4.628   6.571  16.934  0.00  0.00    +0.000 C 
BRANCH  17  18
ATOM     18  C   UNL     1       5.493   5.848  15.955  0.00  0.00    +0.000 A 
ATOM     19  N   UNL     1       5.192   4.944  15.041  0.00  0.00    +0.000 NA
ATOM     20  C   UNL     1       6.431   4.649  14.518  0.00  0.00    +0.000 A 
ATOM     21  N   UNL     1       7.445   5.337  15.057  0.00  0.00    +0.000 NA
ATOM     22  O   UNL     1       6.824   6.135  16.013  0.00  0.00    +0.000 OA
BRANCH  20  23
ATOM     23  C   UNL     1       6.675   3.645  13.404  0.00  0.00    +0.000 C 
ATOM     24  C   UNL     1       5.644   3.463  12.310  0.00  0.00    +0.000 C 
ATOM     25  C   UNL     1       6.923   4.164  12.003  0.00  0.00    +0.000 C 
ENDBRANCH  20  23
ENDBRANCH  17  18
ENDBRANCH   4  17
TORSDOF 8
ENDMDL
MODEL 6
REMARK VINA RESULT:      -6.9      2.226      4.453
REMARK  Name = 
REMARK  9 active torsions:
REMARK  status: ('A' for Active; 'I' for Inactive)
REMARK    1  A    between atoms: C_1  and  C_2
REMARK    2  A    between atoms: C_2  and  C_3
REMARK    3  A    between atoms: C_3  and  N_4
REMARK    4  A    between atoms: N_6  and  C_7
REMARK    5  A    between atoms: C_7  and  C_8
REMARK    6  A    between atoms: C_8  and  C_9
REMARK    7  A    between atoms: N_14  and  C_15
REMARK    8  A    between atoms: C_15  and  C_16
REMARK    9  A    between atoms: C_18  and  C_19
REMARK                            x       y       z     vdW  Elec       q    Type
REMARK                         _______ _______ _______ _____ _____    ______ ____
ROOT
ATOM      1  N   UNL     1       1.578   4.481  18.356  0.00  0.00    +0.000 N 
ATOM      2  C   UNL     1       2.831   4.981  18.139  0.00  0.00    +0.000 C 
ATOM      3  N   UNL     1       3.199   6.216  18.150  0.00  0.00    +0.000 NA
ATOM      4  N   UNL     1       3.718   3.986  17.903  0.00  0.00    +0.000 N 
ATOM      5  H   UNL     1       0.877   5.193  18.518  0.00  0.00    +0.000 HD
ATOM      6  H   UNL     1       3.364   3.171  17.417  0.00  0.00    +0.000 HD
ENDROOT
BRANCH   1   7
ATOM      7  C   UNL     1       1.335   3.298  19.181  0.00  0.00    +0.000 C 
BRANCH   7   9
ATOM      8  C   UNL     1       1.621   2.677  21.622  0.00  0.00    +0.000 C 
ATOM      9  C   UNL     1       1.093   3.703  20.632  0.00  0.00    +0.000 C 
ENDBRANCH   7   9
ENDBRANCH   1   7
BRANCH   3  10
ATOM     10  C   UNL     1       2.206   7.247  18.454  0.00  0.00    +0.000 C 
BRANCH  10  11
ATOM     11  C   UNL     1       2.169   7.496  19.967  0.00  0.00    +0.000 C 
BRANCH  11  12
ATOM     12  C   UNL     1       1.314   8.691  20.295  0.00  0.00    +0.000 A 
ATOM     13  C   UNL     1       0.840   9.661  19.435  0.00  0.00    +0.000 A 
ATOM     14  C   UNL     1       0.102  10.674  20.110  0.00  0.00    +0.000 A 
ATOM     15  C   UNL     1       0.021  10.435  21.464  0.00  0.00    +0.000 A 
ATOM     16  S   UNL     1       0.826   8.994  21.911  0.00  0.00    +0.000 S 
ENDBRANCH  11  12
ENDBRANCH  10  11
ENDBRANCH   3  10
BRANCH   4  17
ATOM     17  C   UNL     1       5.154   4.161  17.868  0.00  0.00    +0.000 C 
BRANCH  17  18
ATOM     18  C   UNL     1       5.715   4.313  16.494  0.00  0.00    +0.000 A 
ATOM     19  N   UNL     1       5.135   4.234  15.311  0.00  0.00    +0.000 NA
ATOM     20  C   UNL     1       6.202   4.419  14.460  0.00  0.00    +0.000 A 
ATOM     21  N   UNL     1       7.376   4.618  15.070  0.00  0.00    +0.000 NA
ATOM     22  O   UNL     1       7.056   4.549  16.423  0.00  0.00    +0.000 OA
BRANCH  20  23
ATOM     23  C   UNL     1       6.099   4.421  12.944  0.00  0.00    +0.000 C 
ATOM     24  C   UNL     1       7.217   3.835  12.109  0.00  0.00    +0.000 C 
ATOM     25  C   UNL     1       5.928   3.097  12.228  0.00  0.00    +0.000 C 
ENDBRANCH  20  23
ENDBRANCH  17  18
ENDBRANCH   4  17
TORSDOF 8
ENDMDL
MODEL 7
REMARK VINA RESULT:      -6.8      2.596      4.854
REMARK  Name = 
REMARK  9 active torsions:
REMARK  status: ('A' for Active; 'I' for Inactive)
REMARK    1  A    between atoms: C_1  and  C_2
REMARK    2  A    between atoms: C_2  and  C_3
REMARK    3  A    between atoms: C_3  and  N_4
REMARK    4  A    between atoms: N_6  and  C_7
REMARK    5  A    between atoms: C_7  and  C_8
REMARK    6  A    between atoms: C_8  and  C_9
REMARK    7  A    between atoms: N_14  and  C_15
REMARK    8  A    between atoms: C_15  and  C_16
REMARK    9  A    between atoms: C_18  and  C_19
REMARK                            x       y       z     vdW  Elec       q    Type
REMARK                         _______ _______ _______ _____ _____    ______ ____
ROOT
ATOM      1  N   UNL     1       1.629   5.285  18.265  0.00  0.00    +0.000 N 
ATOM      2  C   UNL     1       2.846   5.883  18.089  0.00  0.00    +0.000 C 
ATOM      3  N   UNL     1       3.164   7.108  18.330  0.00  0.00    +0.000 NA
ATOM      4  N   UNL     1       3.756   5.002  17.611  0.00  0.00    +0.000 N 
ATOM      5  H   UNL     1       0.912   5.914  18.604  0.00  0.00    +0.000 HD
ATOM      6  H   UNL     1       3.406   4.284  16.990  0.00  0.00    +0.000 HD
ENDROOT
BRANCH   1   7
ATOM      7  C   UNL     1       1.485   3.951  18.846  0.00  0.00    +0.000 C 
BRANCH   7   9
ATOM      8  C   UNL     1       1.436   2.733  21.069  0.00  0.00    +0.000 C 
ATOM      9  C   UNL     1       1.207   4.050  20.343  0.00  0.00    +0.000 C 
ENDBRANCH   7   9
ENDBRANCH   1   7
BRANCH   3  10
ATOM     10  C   UNL     1       2.151   8.005  18.889  0.00  0.00    +0.000 C 
BRANCH  10  11
ATOM     11  C   UNL     1       1.514   8.828  17.762  0.00  0.00    +0.000 C 
BRANCH  11  12
ATOM     12  C   UNL     1       0.359   9.644  18.278  0.00  0.00    +0.000 A 
ATOM     13  C   UNL     1      -0.814   9.968  17.625  0.00  0.00    +0.000 A 
ATOM     14  C   UNL     1      -1.660  10.803  18.408  0.00  0.00    +0.000 A 
ATOM     15  C   UNL     1      -1.112  11.077  19.642  0.00  0.00    +0.000 A 
ATOM     16  S   UNL     1       0.408  10.323  19.851  0.00  0.00    +0.000 S 
ENDBRANCH  11  12
ENDBRANCH  10  11
ENDBRANCH   3  10
BRANCH   4  17
ATOM     17  C   UNL     1       5.179   5.254  17.539  0.00  0.00    +0.000 C 
BRANCH  17  18
ATOM     18  C   UNL     1       5.791   4.913  16.220  0.00  0.00    +0.000 A 
ATOM     19  N   UNL     1       5.476   3.983  15.338  0.00  0.00    +0.000 NA
ATOM     20  C   UNL     1       6.447   4.164  14.379  0.00  0.00    +0.000 A 
ATOM     21  N   UNL     1       7.309   5.155  14.635  0.00  0.00    +0.000 NA
ATOM     22  O   UNL     1       6.875   5.656  15.859  0.00  0.00    +0.000 OA
BRANCH  20  23
ATOM     23  C   UNL     1       6.561   3.340  13.108  0.00  0.00    +0.000 C 
ATOM     24  C   UNL     1       5.451   3.379  12.079  0.00  0.00    +0.000 C 
ATOM     25  C   UNL     1       6.741   4.064  11.789  0.00  0.00    +0.000 C 
ENDBRANCH  20  23
ENDBRANCH  17  18
ENDBRANCH   4  17
TORSDOF 8
ENDMDL
MODEL 8
REMARK VINA RESULT:      -6.8      2.375      4.868
REMARK  Name = 
REMARK  9 active torsions:
REMARK  status: ('A' for Active; 'I' for Inactive)
REMARK    1  A    between atoms: C_1  and  C_2
REMARK    2  A    between atoms: C_2  and  C_3
REMARK    3  A    between atoms: C_3  and  N_4
REMARK    4  A    between atoms: N_6  and  C_7
REMARK    5  A    between atoms: C_7  and  C_8
REMARK    6  A    between atoms: C_8  and  C_9
REMARK    7  A    between atoms: N_14  and  C_15
REMARK    8  A    between atoms: C_15  and  C_16
REMARK    9  A    between atoms: C_18  and  C_19
REMARK                            x       y       z     vdW  Elec       q    Type
REMARK                         _______ _______ _______ _____ _____    ______ ____
ROOT
ATOM      1  N   UNL     1       1.993   5.007  18.024  0.00  0.00    +0.000 N 
ATOM      2  C   UNL     1       3.196   5.623  17.826  0.00  0.00    +0.000 C 
ATOM      3  N   UNL     1       3.521   6.832  18.126  0.00  0.00    +0.000 NA
ATOM      4  N   UNL     1       4.085   4.778  17.252  0.00  0.00    +0.000 N 
ATOM      5  H   UNL     1       1.290   5.608  18.436  0.00  0.00    +0.000 HD
ATOM      6  H   UNL     1       3.709   4.097  16.605  0.00  0.00    +0.000 HD
ENDROOT
BRANCH   1   7
ATOM      7  C   UNL     1       1.882   3.638  18.529  0.00  0.00    +0.000 C 
BRANCH   7   9
ATOM      8  C   UNL     1       1.251   3.060  20.915  0.00  0.00    +0.000 C 
ATOM      9  C   UNL     1       2.340   3.569  19.982  0.00  0.00    +0.000 C 
ENDBRANCH   7   9
ENDBRANCH   1   7
BRANCH   3  10
ATOM     10  C   UNL     1       2.533   7.687  18.787  0.00  0.00    +0.000 C 
BRANCH  10  11
ATOM     11  C   UNL     1       1.897   8.631  17.759  0.00  0.00    +0.000 C 
BRANCH  11  12
ATOM     12  C   UNL     1       1.648   9.989  18.356  0.00  0.00    +0.000 A 
ATOM     13  C   UNL     1       2.188  11.201  17.972  0.00  0.00    +0.000 A 
ATOM     14  C   UNL     1       1.762  12.274  18.805  0.00  0.00    +0.000 A 
ATOM     15  C   UNL     1       0.896  11.851  19.787  0.00  0.00    +0.000 A 
ATOM     16  S   UNL     1       0.596  10.169  19.698  0.00  0.00    +0.000 S 
ENDBRANCH  11  12
ENDBRANCH  10  11
ENDBRANCH   3  10
BRANCH   4  17
ATOM     17  C   UNL     1       5.502   5.045  17.125  0.00  0.00    +0.000 C 
BRANCH  17  18
ATOM     18  C   UNL     1       6.035   4.861  15.743  0.00  0.00    +0.000 A 
ATOM     19  N   UNL     1       5.588   4.135  14.735  0.00  0.00    +0.000 NA
ATOM     20  C   UNL     1       6.550   4.361  13.776  0.00  0.00    +0.000 A 
ATOM     21  N   UNL     1       7.531   5.190  14.152  0.00  0.00    +0.000 NA
ATOM     22  O   UNL     1       7.192   5.525  15.459  0.00  0.00    +0.000 OA
BRANCH  20  23
ATOM     23  C   UNL     1       6.531   3.753  12.384  0.00  0.00    +0.000 C 
ATOM     24  C   UNL     1       5.831   2.432  12.144  0.00  0.00    +0.000 C 
ATOM     25  C   UNL     1       5.213   3.691  11.639  0.00  0.00    +0.000 C 
ENDBRANCH  20  23
ENDBRANCH  17  18
ENDBRANCH   4  17
TORSDOF 8
ENDMDL
MODEL 9
REMARK VINA RESULT:      -6.8      3.358      5.664
REMARK  Name = 
REMARK  9 active torsions:
REMARK  status: ('A' for Active; 'I' for Inactive)
REMARK    1  A    between atoms: C_1  and  C_2
REMARK    2  A    between atoms: C_2  and  C_3
REMARK    3  A    between atoms: C_3  and  N_4
REMARK    4  A    between atoms: N_6  and  C_7
REMARK    5  A    between atoms: C_7  and  C_8
REMARK    6  A    between atoms: C_8  and  C_9
REMARK    7  A    between atoms: N_14  and  C_15
REMARK    8  A    between atoms: C_15  and  C_16
REMARK    9  A    between atoms: C_18  and  C_19
REMARK                            x       y       z     vdW  Elec       q    Type
REMARK                         _______ _______ _______ _____ _____    ______ ____
ROOT
ATOM      1  N   UNL     1       5.251   4.610  15.264  0.00  0.00    +0.000 N 
ATOM      2  C   UNL     1       5.514   5.106  16.511  0.00  0.00    +0.000 C 
ATOM      3  N   UNL     1       4.699   5.219  17.501  0.00  0.00    +0.000 NA
ATOM      4  N   UNL     1       6.809   5.486  16.619  0.00  0.00    +0.000 N 
ATOM      5  H   UNL     1       4.288   4.329  15.132  0.00  0.00    +0.000 HD
ATOM      6  H   UNL     1       7.243   5.856  15.783  0.00  0.00    +0.000 HD
ENDROOT
BRANCH   1   7
ATOM      7  C   UNL     1       6.168   3.708  14.567  0.00  0.00    +0.000 C 
BRANCH   7   9
ATOM      8  C   UNL     1       5.925   3.073  12.125  0.00  0.00    +0.000 C 
ATOM      9  C   UNL     1       6.345   4.147  13.116  0.00  0.00    +0.000 C 
ENDBRANCH   7   9
ENDBRANCH   1   7
BRANCH   3  10
ATOM     10  C   UNL     1       3.322   4.750  17.342  0.00  0.00    +0.000 C 
BRANCH  10  11
ATOM     11  C   UNL     1       2.424   5.416  18.392  0.00  0.00    +0.000 C 
BRANCH  11  12
ATOM     12  C   UNL     1       2.137   4.475  19.530  0.00  0.00    +0.000 A 
ATOM     13  C   UNL     1       2.299   4.699  20.883  0.00  0.00    +0.000 A 
ATOM     14  C   UNL     1       1.973   3.557  21.667  0.00  0.00    +0.000 A 
ATOM     15  C   UNL     1       1.554   2.501  20.888  0.00  0.00    +0.000 A 
ATOM     16  S   UNL     1       1.551   2.893  19.223  0.00  0.00    +0.000 S 
ENDBRANCH  11  12
ENDBRANCH  10  11
ENDBRANCH   3  10
BRANCH   4  17
ATOM     17  C   UNL     1       7.459   5.831  17.865  0.00  0.00    +0.000 C 
BRANCH  17  18
ATOM     18  C   UNL     1       7.840   7.270  17.976  0.00  0.00    +0.000 A 
ATOM     19  N   UNL     1       8.611   7.894  18.847  0.00  0.00    +0.000 NA
ATOM     20  C   UNL     1       8.510   9.201  18.427  0.00  0.00    +0.000 A 
ATOM     21  N   UNL     1       7.736   9.386  17.351  0.00  0.00    +0.000 NA
ATOM     22  O   UNL     1       7.289   8.103  17.048  0.00  0.00    +0.000 OA
BRANCH  20  23
ATOM     23  C   UNL     1       9.215  10.372  19.091  0.00  0.00    +0.000 C 
ATOM     24  C   UNL     1      10.397  11.029  18.409  0.00  0.00    +0.000 C 
ATOM     25  C   UNL     1       9.090  11.744  18.460  0.00  0.00    +0.000 C 
ENDBRANCH  20  23
ENDBRANCH  17  18
ENDBRANCH   4  17
TORSDOF 8
ENDMDL
