MODEL 1
REMARK VINA RESULT:      -7.5      0.000      0.000
REMARK  Name = 
REMARK  7 active torsions:
REMARK  status: ('A' for Active; 'I' for Inactive)
REMARK    1  A    between atoms: C_1  and  C_2
REMARK    2  A    between atoms: C_4  and  C_5
REMARK    3  A    between atoms: C_6  and  C_7
REMARK    4  A    between atoms: C_10  and  S_11
REMARK    5  A    between atoms: S_11  and  C_12
REMARK    6  A    between atoms: C_12  and  C_13
REMARK    7  A    between atoms: C_16  and  N_17
REMARK                            x       y       z     vdW  Elec       q    Type
REMARK                         _______ _______ _______ _____ _____    ______ ____
ROOT
ATOM      1  C   UNL     1       0.799   9.650  19.278  0.00  0.00    +0.000 A 
ATOM      2  C   UNL     1       1.521   9.199  18.182  0.00  0.00    +0.000 A 
ATOM      3  C   UNL     1       2.293   8.041  18.309  0.00  0.00    +0.000 A 
ATOM      4  C   UNL     1       2.304   7.365  19.517  0.00  0.00    +0.000 A 
ATOM      5  N   UNL     1       1.597   7.828  20.567  0.00  0.00    +0.000 NA
ATOM      6  N   UNL     1       0.842   8.975  20.446  0.00  0.00    +0.000 NA
ENDROOT
BRANCH   1  12
ATOM      7  C   UNL     1      -1.215  14.473  20.113  0.00  0.00    +0.000 C 
ATOM      8  C   UNL     1      -0.954  13.081  19.657  0.00  0.00    +0.000 A 
ATOM      9  N   UNL     1      -1.764  12.386  18.893  0.00  0.00    +0.000 NA
ATOM     10  C   UNL     1      -1.241  11.120  18.664  0.00  0.00    +0.000 A 
ATOM     11  C   UNL     1      -2.036  10.183  17.823  0.00  0.00    +0.000 C 
ATOM     12  C   UNL     1      -0.023  10.860  19.287  0.00  0.00    +0.000 A 
ATOM     13  S   UNL     1       0.477  12.274  20.136  0.00  0.00    +0.000 S 
ENDBRANCH   1  12
BRANCH   4  14
ATOM     14  S   UNL     1       3.282   5.893  19.725  0.00  0.00    +0.000 S 
BRANCH  14  15
ATOM     15  C   UNL     1       2.785   4.971  18.230  0.00  0.00    +0.000 C 
BRANCH  15  16
ATOM     16  C   UNL     1       3.888   4.949  17.192  0.00  0.00    +0.000 A 
ATOM     17  C   UNL     1       4.392   3.728  16.715  0.00  0.00    +0.000 A 
ATOM     18  C   UNL     1       5.408   3.701  15.754  0.00  0.00    +0.000 A 
ATOM     19  C   UNL     1       5.929   4.905  15.267  0.00  0.00    +0.000 A 
ATOM     20  C   UNL     1       5.444   6.132  15.737  0.00  0.00    +0.000 A 
ATOM     21  C   UNL     1       4.427   6.148  16.698  0.00  0.00    +0.000 A 
BRANCH  19  22
ATOM     22  N   UNL     1       6.991   4.882  14.251  0.00  0.00    +0.000 N 
ATOM     23  O   UNL     1       6.829   4.150  13.263  0.00  0.00    +0.000 OA
ATOM     24  O   UNL     1       7.983   5.601  14.438  0.00  0.00    +0.000 OA
ENDBRANCH  19  22
ENDBRANCH  15  16
ENDBRANCH  14  15
ENDBRANCH   4  14
TORSDOF 5
ENDMDL
MODEL 2
REMARK VINA RESULT:      -7.4      1.941      2.271
REMARK  Name = 
REMARK  7 active torsions:
REMARK  status: ('A' for Active; 'I' for Inactive)
REMARK    1  A    between atoms: C_1  and  C_2
REMARK    2  A    between atoms: C_4  and  C_5
REMARK    3  A    between atoms: C_6  and  C_7
REMARK    4  A    between atoms: C_10  and  S_11
REMARK    5  A    between atoms: S_11  and  C_12
REMARK    6  A    between atoms: C_12  and  C_13
REMARK    7  A    between atoms: C_16  and  N_17
REMARK                            x       y       z     vdW  Elec       q    Type
REMARK                         _______ _______ _______ _____ _____    ______ ____
ROOT
ATOM      1  C   UNL     1       1.462   8.100  20.151  0.00  0.00    +0.000 A 
ATOM      2  C   UNL     1       2.176   7.939  18.972  0.00  0.00    +0.000 A 
ATOM      3  C   UNL     1       2.711   6.684  18.670  0.00  0.00    +0.000 A 
ATOM      4  C   UNL     1       2.503   5.631  19.545  0.00  0.00    +0.000 A 
ATOM      5  N   UNL     1       1.810   5.817  20.686  0.00  0.00    +0.000 NA
ATOM      6  N   UNL     1       1.288   7.056  20.990  0.00  0.00    +0.000 NA
ENDROOT
BRANCH   1  12
ATOM      7  C   UNL     1      -1.023  11.941  22.814  0.00  0.00    +0.000 C 
ATOM      8  C   UNL     1      -0.258  11.142  21.820  0.00  0.00    +0.000 A 
ATOM      9  N   UNL     1       0.183  11.606  20.674  0.00  0.00    +0.000 NA
ATOM     10  C   UNL     1       0.841  10.606  19.970  0.00  0.00    +0.000 A 
ATOM     11  C   UNL     1       1.399  10.951  18.634  0.00  0.00    +0.000 C 
ATOM     12  C   UNL     1       0.876   9.364  20.598  0.00  0.00    +0.000 A 
ATOM     13  S   UNL     1       0.095   9.495  22.129  0.00  0.00    +0.000 S 
ENDBRANCH   1  12
BRANCH   4  14
ATOM     14  S   UNL     1       3.177   4.021  19.204  0.00  0.00    +0.000 S 
BRANCH  14  15
ATOM     15  C   UNL     1       4.959   4.412  19.230  0.00  0.00    +0.000 C 
BRANCH  15  16
ATOM     16  C   UNL     1       5.533   4.507  17.832  0.00  0.00    +0.000 A 
ATOM     17  C   UNL     1       4.762   4.131  16.720  0.00  0.00    +0.000 A 
ATOM     18  C   UNL     1       5.284   4.219  15.425  0.00  0.00    +0.000 A 
ATOM     19  C   UNL     1       6.590   4.685  15.239  0.00  0.00    +0.000 A 
ATOM     20  C   UNL     1       7.376   5.058  16.336  0.00  0.00    +0.000 A 
ATOM     21  C   UNL     1       6.844   4.966  17.627  0.00  0.00    +0.000 A 
BRANCH  19  22
ATOM     22  N   UNL     1       7.142   4.788  13.880  0.00  0.00    +0.000 N 
ATOM     23  O   UNL     1       8.082   5.576  13.697  0.00  0.00    +0.000 OA
ATOM     24  O   UNL     1       6.640   4.077  12.998  0.00  0.00    +0.000 OA
ENDBRANCH  19  22
ENDBRANCH  15  16
ENDBRANCH  14  15
ENDBRANCH   4  14
TORSDOF 5
ENDMDL
MODEL 3
REMARK VINA RESULT:      -7.4      1.351      1.634
REMARK  Name = 
REMARK  7 active torsions:
REMARK  status: ('A' for Active; 'I' for Inactive)
REMARK    1  A    between atoms: C_1  and  C_2
REMARK    2  A    between atoms: C_4  and  C_5
REMARK    3  A    between atoms: C_6  and  C_7
REMARK    4  A    between atoms: C_10  and  S_11
REMARK    5  A    between atoms: S_11  and  C_12
REMARK    6  A    between atoms: C_12  and  C_13
REMARK    7  A    between atoms: C_16  and  N_17
REMARK                            x       y       z     vdW  Elec       q    Type
REMARK                         _______ _______ _______ _____ _____    ______ ____
ROOT
ATOM      1  C   UNL     1       1.356   9.206  19.247  0.00  0.00    +0.000 A 
ATOM      2  C   UNL     1       1.865   8.639  18.086  0.00  0.00    +0.000 A 
ATOM      3  C   UNL     1       2.389   7.345  18.137  0.00  0.00    +0.000 A 
ATOM      4  C   UNL     1       2.372   6.655  19.338  0.00  0.00    +0.000 A 
ATOM      5  N   UNL     1       1.877   7.232  20.451  0.00  0.00    +0.000 NA
ATOM      6  N   UNL     1       1.368   8.512  20.405  0.00  0.00    +0.000 NA
ENDROOT
BRANCH   1  12
ATOM      7  C   UNL     1      -1.611  13.482  20.210  0.00  0.00    +0.000 C 
ATOM      8  C   UNL     1      -0.546  12.536  19.781  0.00  0.00    +0.000 A 
ATOM      9  N   UNL     1       0.515  12.876  19.088  0.00  0.00    +0.000 NA
ATOM     10  C   UNL     1       1.303  11.761  18.835  0.00  0.00    +0.000 A 
ATOM     11  C   UNL     1       2.549  11.957  18.044  0.00  0.00    +0.000 C 
ATOM     12  C   UNL     1       0.808  10.560  19.335  0.00  0.00    +0.000 A 
ATOM     13  S   UNL     1      -0.661  10.875  20.180  0.00  0.00    +0.000 S 
ENDBRANCH   1  12
BRANCH   4  14
ATOM     14  S   UNL     1       3.039   5.010  19.449  0.00  0.00    +0.000 S 
BRANCH  14  15
ATOM     15  C   UNL     1       4.823   5.390  19.425  0.00  0.00    +0.000 C 
BRANCH  15  16
ATOM     16  C   UNL     1       5.409   5.242  18.037  0.00  0.00    +0.000 A 
ATOM     17  C   UNL     1       4.982   4.205  17.191  0.00  0.00    +0.000 A 
ATOM     18  C   UNL     1       5.517   4.065  15.906  0.00  0.00    +0.000 A 
ATOM     19  C   UNL     1       6.489   4.966  15.462  0.00  0.00    +0.000 A 
ATOM     20  C   UNL     1       6.933   6.002  16.293  0.00  0.00    +0.000 A 
ATOM     21  C   UNL     1       6.392   6.134  17.577  0.00  0.00    +0.000 A 
BRANCH  19  22
ATOM     22  N   UNL     1       7.049   4.828  14.109  0.00  0.00    +0.000 N 
ATOM     23  O   UNL     1       6.520   4.004  13.347  0.00  0.00    +0.000 OA
ATOM     24  O   UNL     1       8.012   5.546  13.807  0.00  0.00    +0.000 OA
ENDBRANCH  19  22
ENDBRANCH  15  16
ENDBRANCH  14  15
ENDBRANCH   4  14
TORSDOF 5
ENDMDL
MODEL 4
REMARK VINA RESULT:      -7.4      1.097      1.340
REMARK  Name = 
REMARK  7 active torsions:
REMARK  status: ('A' for Active; 'I' for Inactive)
REMARK    1  A    between atoms: C_1  and  C_2
REMARK    2  A    between atoms: C_4  and  C_5
REMARK    3  A    between atoms: C_6  and  C_7
REMARK    4  A    between atoms: C_10  and  S_11
REMARK    5  A    between atoms: S_11  and  C_12
REMARK    6  A    between atoms: C_12  and  C_13
REMARK    7  A    between atoms: C_16  and  N_17
REMARK                            x       y       z     vdW  Elec       q    Type
REMARK                         _______ _______ _______ _____ _____    ______ ____
ROOT
ATOM      1  C   UNL     1       1.166   9.201  19.473  0.00  0.00    +0.000 A 
ATOM      2  C   UNL     1       1.850   8.784  18.339  0.00  0.00    +0.000 A 
ATOM      3  C   UNL     1       2.462   7.528  18.340  0.00  0.00    +0.000 A 
ATOM      4  C   UNL     1       2.356   6.725  19.464  0.00  0.00    +0.000 A 
ATOM      5  N   UNL     1       1.690   7.157  20.553  0.00  0.00    +0.000 NA
ATOM      6  N   UNL     1       1.094   8.399  20.557  0.00  0.00    +0.000 NA
ENDROOT
BRANCH   1  12
ATOM      7  C   UNL     1      -0.207  14.135  20.810  0.00  0.00    +0.000 C 
ATOM      8  C   UNL     1      -0.128  12.774  20.214  0.00  0.00    +0.000 A 
ATOM      9  N   UNL     1      -1.019  12.270  19.393  0.00  0.00    +0.000 NA
ATOM     10  C   UNL     1      -0.664  10.977  19.032  0.00  0.00    +0.000 A 
ATOM     11  C   UNL     1      -1.572  10.240  18.110  0.00  0.00    +0.000 C 
ATOM     12  C   UNL     1       0.508  10.500  19.612  0.00  0.00    +0.000 A 
ATOM     13  S   UNL     1       1.186  11.744  20.594  0.00  0.00    +0.000 S 
ENDBRANCH   1  12
BRANCH   4  14
ATOM     14  S   UNL     1       3.129   5.123  19.511  0.00  0.00    +0.000 S 
BRANCH  14  15
ATOM     15  C   UNL     1       4.882   5.615  19.380  0.00  0.00    +0.000 C 
BRANCH  15  16
ATOM     16  C   UNL     1       5.421   5.398  17.981  0.00  0.00    +0.000 A 
ATOM     17  C   UNL     1       6.650   5.961  17.597  0.00  0.00    +0.000 A 
ATOM     18  C   UNL     1       7.155   5.761  16.308  0.00  0.00    +0.000 A 
ATOM     19  C   UNL     1       6.426   4.995  15.392  0.00  0.00    +0.000 A 
ATOM     20  C   UNL     1       5.196   4.432  15.755  0.00  0.00    +0.000 A 
ATOM     21  C   UNL     1       4.700   4.638  17.047  0.00  0.00    +0.000 A 
BRANCH  19  22
ATOM     22  N   UNL     1       6.957   4.775  14.039  0.00  0.00    +0.000 N 
ATOM     23  O   UNL     1       6.436   3.882  13.353  0.00  0.00    +0.000 OA
ATOM     24  O   UNL     1       7.888   5.498  13.660  0.00  0.00    +0.000 OA
ENDBRANCH  19  22
ENDBRANCH  15  16
ENDBRANCH  14  15
ENDBRANCH   4  14
TORSDOF 5
ENDMDL
MODEL 5
REMARK VINA RESULT:      -7.4      1.693      2.233
REMARK  Name = 
REMARK  7 active torsions:
REMARK  status: ('A' for Active; 'I' for Inactive)
REMARK    1  A    between atoms: C_1  and  C_2
REMARK    2  A    between atoms: C_4  and  C_5
REMARK    3  A    between atoms: C_6  and  C_7
REMARK    4  A    between atoms: C_10  and  S_11
REMARK    5  A    between atoms: S_11  and  C_12
REMARK    6  A    between atoms: C_12  and  C_13
REMARK    7  A    between atoms: C_16  and  N_17
REMARK                            x       y       z     vdW  Elec       q    Type
REMARK                         _______ _______ _______ _____ _____    ______ ____
ROOT
ATOM      1  C   UNL     1       1.483   8.441  20.023  0.00  0.00    +0.000 A 
ATOM      2  C   UNL     1       2.132   8.180  18.824  0.00  0.00    +0.000 A 
ATOM      3  C   UNL     1       2.586   6.884  18.566  0.00  0.00    +0.000 A 
ATOM      4  C   UNL     1       2.363   5.890  19.505  0.00  0.00    +0.000 A 
ATOM      5  N   UNL     1       1.734   6.172  20.664  0.00  0.00    +0.000 NA
ATOM      6  N   UNL     1       1.294   7.452  20.923  0.00  0.00    +0.000 NA
ENDROOT
BRANCH   1  12
ATOM      7  C   UNL     1      -0.031  13.509  20.222  0.00  0.00    +0.000 C 
ATOM      8  C   UNL     1       0.278  12.086  20.527  0.00  0.00    +0.000 A 
ATOM      9  N   UNL     1       0.136  11.531  21.708  0.00  0.00    +0.000 NA
ATOM     10  C   UNL     1       0.526  10.198  21.664  0.00  0.00    +0.000 A 
ATOM     11  C   UNL     1       0.445   9.410  22.924  0.00  0.00    +0.000 C 
ATOM     12  C   UNL     1       0.986   9.756  20.426  0.00  0.00    +0.000 A 
ATOM     13  S   UNL     1       0.872  11.053  19.297  0.00  0.00    +0.000 S 
ENDBRANCH   1  12
BRANCH   4  14
ATOM     14  S   UNL     1       2.934   4.229  19.222  0.00  0.00    +0.000 S 
BRANCH  14  15
ATOM     15  C   UNL     1       4.737   4.499  19.298  0.00  0.00    +0.000 C 
BRANCH  15  16
ATOM     16  C   UNL     1       5.353   4.563  17.915  0.00  0.00    +0.000 A 
ATOM     17  C   UNL     1       4.551   4.411  16.772  0.00  0.00    +0.000 A 
ATOM     18  C   UNL     1       5.113   4.473  15.492  0.00  0.00    +0.000 A 
ATOM     19  C   UNL     1       6.488   4.685  15.352  0.00  0.00    +0.000 A 
ATOM     20  C   UNL     1       7.304   4.831  16.481  0.00  0.00    +0.000 A 
ATOM     21  C   UNL     1       6.733   4.768  17.757  0.00  0.00    +0.000 A 
BRANCH  19  22
ATOM     22  N   UNL     1       7.083   4.759  14.010  0.00  0.00    +0.000 N 
ATOM     23  O   UNL     1       8.018   5.555  13.836  0.00  0.00    +0.000 OA
ATOM     24  O   UNL     1       6.620   4.017  13.133  0.00  0.00    +0.000 OA
ENDBRANCH  19  22
ENDBRANCH  15  16
ENDBRANCH  14  15
ENDBRANCH   4  14
TORSDOF 5
ENDMDL
MODEL 6
REMARK VINA RESULT:      -7.3      1.695      2.322
REMARK  Name = 
REMARK  7 active torsions:
REMARK  status: ('A' for Active; 'I' for Inactive)
REMARK    1  A    between atoms: C_1  and  C_2
REMARK    2  A    between atoms: C_4  and  C_5
REMARK    3  A    between atoms: C_6  and  C_7
REMARK    4  A    between atoms: C_10  and  S_11
REMARK    5  A    between atoms: S_11  and  C_12
REMARK    6  A    between atoms: C_12  and  C_13
REMARK    7  A    between atoms: C_16  and  N_17
REMARK                            x       y       z     vdW  Elec       q    Type
REMARK                         _______ _______ _______ _____ _____    ______ ____
ROOT
ATOM      1  C   UNL     1       1.595   8.328  19.884  0.00  0.00    +0.000 A 
ATOM      2  C   UNL     1       2.216   8.001  18.686  0.00  0.00    +0.000 A 
ATOM      3  C   UNL     1       2.635   6.684  18.477  0.00  0.00    +0.000 A 
ATOM      4  C   UNL     1       2.405   5.737  19.461  0.00  0.00    +0.000 A 
ATOM      5  N   UNL     1       1.805   6.083  20.617  0.00  0.00    +0.000 NA
ATOM      6  N   UNL     1       1.399   7.383  20.828  0.00  0.00    +0.000 NA
ENDROOT
BRANCH   1  12
ATOM      7  C   UNL     1       0.237  13.443  19.901  0.00  0.00    +0.000 C 
ATOM      8  C   UNL     1       0.500  12.023  20.255  0.00  0.00    +0.000 A 
ATOM      9  N   UNL     1       0.335  11.514  21.454  0.00  0.00    +0.000 NA
ATOM     10  C   UNL     1       0.684  10.169  21.458  0.00  0.00    +0.000 A 
ATOM     11  C   UNL     1       0.573   9.428  22.744  0.00  0.00    +0.000 C 
ATOM     12  C   UNL     1       1.137   9.671  20.239  0.00  0.00    +0.000 A 
ATOM     13  S   UNL     1       1.068  10.931  19.065  0.00  0.00    +0.000 S 
ENDBRANCH   1  12
BRANCH   4  14
ATOM     14  S   UNL     1       2.932   4.052  19.239  0.00  0.00    +0.000 S 
BRANCH  14  15
ATOM     15  C   UNL     1       4.741   4.274  19.318  0.00  0.00    +0.000 C 
BRANCH  15  16
ATOM     16  C   UNL     1       5.349   4.412  17.937  0.00  0.00    +0.000 A 
ATOM     17  C   UNL     1       6.647   4.924  17.779  0.00  0.00    +0.000 A 
ATOM     18  C   UNL     1       7.216   5.050  16.507  0.00  0.00    +0.000 A 
ATOM     19  C   UNL     1       6.481   4.664  15.382  0.00  0.00    +0.000 A 
ATOM     20  C   UNL     1       5.182   4.158  15.519  0.00  0.00    +0.000 A 
ATOM     21  C   UNL     1       4.623   4.036  16.796  0.00  0.00    +0.000 A 
BRANCH  19  22
ATOM     22  N   UNL     1       7.076   4.787  14.044  0.00  0.00    +0.000 N 
ATOM     23  O   UNL     1       7.985   5.619  13.891  0.00  0.00    +0.000 OA
ATOM     24  O   UNL     1       6.641   4.050  13.148  0.00  0.00    +0.000 OA
ENDBRANCH  19  22
ENDBRANCH  15  16
ENDBRANCH  14  15
ENDBRANCH   4  14
TORSDOF 5
ENDMDL
MODEL 7
REMARK VINA RESULT:      -7.2      1.717      2.063
REMARK  Name = 
REMARK  7 active torsions:
REMARK  status: ('A' for Active; 'I' for Inactive)
REMARK    1  A    between atoms: C_1  and  C_2
REMARK    2  A    between atoms: C_4  and  C_5
REMARK    3  A    between atoms: C_6  and  C_7
REMARK    4  A    between atoms: C_10  and  S_11
REMARK    5  A    between atoms: S_11  and  C_12
REMARK    6  A    between atoms: C_12  and  C_13
REMARK    7  A    between atoms: C_16  and  N_17
REMARK                            x       y       z     vdW  Elec       q    Type
REMARK                         _______ _______ _______ _____ _____    ______ ____
ROOT
ATOM      1  C   UNL     1       0.906  10.004  19.807  0.00  0.00    +0.000 A 
ATOM      2  C   UNL     1       0.530   9.491  21.041  0.00  0.00    +0.000 A 
ATOM      3  C   UNL     1       0.894   8.183  21.371  0.00  0.00    +0.000 A 
ATOM      4  C   UNL     1       1.633   7.439  20.467  0.00  0.00    +0.000 A 
ATOM      5  N   UNL     1       1.980   7.959  19.274  0.00  0.00    +0.000 NA
ATOM      6  N   UNL     1       1.615   9.246  18.943  0.00  0.00    +0.000 NA
ENDROOT
BRANCH   1  12
ATOM      7  C   UNL     1       0.710  15.202  18.828  0.00  0.00    +0.000 C 
ATOM      8  C   UNL     1       0.472  13.734  18.864  0.00  0.00    +0.000 A 
ATOM      9  N   UNL     1      -0.515  13.127  18.247  0.00  0.00    +0.000 NA
ATOM     10  C   UNL     1      -0.468  11.760  18.494  0.00  0.00    +0.000 A 
ATOM     11  C   UNL     1      -1.525  10.909  17.882  0.00  0.00    +0.000 C 
ATOM     12  C   UNL     1       0.566  11.344  19.328  0.00  0.00    +0.000 A 
ATOM     13  S   UNL     1       1.515  12.716  19.761  0.00  0.00    +0.000 S 
ENDBRANCH   1  12
BRANCH   4  14
ATOM     14  S   UNL     1       2.107   5.765  20.843  0.00  0.00    +0.000 S 
BRANCH  14  15
ATOM     15  C   UNL     1       2.067   5.042  19.168  0.00  0.00    +0.000 C 
BRANCH  15  16
ATOM     16  C   UNL     1       3.444   5.009  18.539  0.00  0.00    +0.000 A 
ATOM     17  C   UNL     1       3.588   4.875  17.148  0.00  0.00    +0.000 A 
ATOM     18  C   UNL     1       4.857   4.847  16.560  0.00  0.00    +0.000 A 
ATOM     19  C   UNL     1       5.994   4.951  17.369  0.00  0.00    +0.000 A 
ATOM     20  C   UNL     1       5.870   5.078  18.758  0.00  0.00    +0.000 A 
ATOM     21  C   UNL     1       4.596   5.105  19.336  0.00  0.00    +0.000 A 
BRANCH  19  22
ATOM     22  N   UNL     1       7.330   4.931  16.756  0.00  0.00    +0.000 N 
ATOM     23  O   UNL     1       8.190   4.202  17.273  0.00  0.00    +0.000 OA
ATOM     24  O   UNL     1       7.517   5.636  15.755  0.00  0.00    +0.000 OA
ENDBRANCH  19  22
ENDBRANCH  15  16
ENDBRANCH  14  15
ENDBRANCH   4  14
TORSDOF 5
ENDMDL
MODEL 8
REMARK VINA RESULT:      -7.2      2.010      2.562
REMARK  Name = 
REMARK  7 active torsions:
REMARK  status: ('A' for Active; 'I' for Inactive)
REMARK    1  A    between atoms: C_1  and  C_2
REMARK    2  A    between atoms: C_4  and  C_5
REMARK    3  A    between atoms: C_6  and  C_7
REMARK    4  A    between atoms: C_10  and  S_11
REMARK    5  A    between atoms: S_11  and  C_12
REMARK    6  A    between atoms: C_12  and  C_13
REMARK    7  A    between atoms: C_16  and  N_17
REMARK                            x       y       z     vdW  Elec       q    Type
REMARK                         _______ _______ _______ _____ _____    ______ ____
ROOT
ATOM      1  C   UNL     1       1.600   7.478  20.375  0.00  0.00    +0.000 A 
ATOM      2  C   UNL     1       1.182   6.293  20.963  0.00  0.00    +0.000 A 
ATOM      3  C   UNL     1       1.844   5.105  20.641  0.00  0.00    +0.000 A 
ATOM      4  C   UNL     1       2.909   5.144  19.757  0.00  0.00    +0.000 A 
ATOM      5  N   UNL     1       3.291   6.308  19.196  0.00  0.00    +0.000 NA
ATOM      6  N   UNL     1       2.633   7.479  19.506  0.00  0.00    +0.000 NA
ENDROOT
BRANCH   1  12
ATOM      7  C   UNL     1      -0.628  11.799  22.469  0.00  0.00    +0.000 C 
ATOM      8  C   UNL     1      -0.043  10.779  21.558  0.00  0.00    +0.000 A 
ATOM      9  N   UNL     1       0.009  10.893  20.252  0.00  0.00    +0.000 NA
ATOM     10  C   UNL     1       0.597   9.765  19.693  0.00  0.00    +0.000 A 
ATOM     11  C   UNL     1       0.728   9.713  18.211  0.00  0.00    +0.000 C 
ATOM     12  C   UNL     1       0.975   8.782  20.603  0.00  0.00    +0.000 A 
ATOM     13  S   UNL     1       0.614   9.332  22.196  0.00  0.00    +0.000 S 
ENDBRANCH   1  12
BRANCH   4  14
ATOM     14  S   UNL     1       3.773   3.654  19.312  0.00  0.00    +0.000 S 
BRANCH  14  15
ATOM     15  C   UNL     1       5.458   4.319  19.093  0.00  0.00    +0.000 C 
BRANCH  15  16
ATOM     16  C   UNL     1       5.850   4.384  17.631  0.00  0.00    +0.000 A 
ATOM     17  C   UNL     1       4.947   3.980  16.635  0.00  0.00    +0.000 A 
ATOM     18  C   UNL     1       5.302   4.041  15.282  0.00  0.00    +0.000 A 
ATOM     19  C   UNL     1       6.570   4.507  14.922  0.00  0.00    +0.000 A 
ATOM     20  C   UNL     1       7.486   4.908  15.903  0.00  0.00    +0.000 A 
ATOM     21  C   UNL     1       7.122   4.843  17.252  0.00  0.00    +0.000 A 
BRANCH  19  22
ATOM     22  N   UNL     1       6.945   4.581  13.503  0.00  0.00    +0.000 N 
ATOM     23  O   UNL     1       6.407   3.780  12.722  0.00  0.00    +0.000 OA
ATOM     24  O   UNL     1       7.770   5.441  13.168  0.00  0.00    +0.000 OA
ENDBRANCH  19  22
ENDBRANCH  15  16
ENDBRANCH  14  15
ENDBRANCH   4  14
TORSDOF 5
ENDMDL
MODEL 9
REMARK VINA RESULT:      -7.1      4.660      9.200
REMARK  Name = 
REMARK  7 active torsions:
REMARK  status: ('A' for Active; 'I' for Inactive)
REMARK    1  A    between atoms: C_1  and  C_2
REMARK    2  A    between atoms: C_4  and  C_5
REMARK    3  A    between atoms: C_6  and  C_7
REMARK    4  A    between atoms: C_10  and  S_11
REMARK    5  A    between atoms: S_11  and  C_12
REMARK    6  A    between atoms: C_12  and  C_13
REMARK    7  A    between atoms: C_16  and  N_17
REMARK                            x       y       z     vdW  Elec       q    Type
REMARK                         _______ _______ _______ _____ _____    ______ ____
ROOT
ATOM      1  C   UNL     1       3.241   6.504  18.238  0.00  0.00    +0.000 A 
ATOM      2  C   UNL     1       2.838   6.116  19.508  0.00  0.00    +0.000 A 
ATOM      3  C   UNL     1       2.068   6.995  20.274  0.00  0.00    +0.000 A 
ATOM      4  C   UNL     1       1.713   8.223  19.741  0.00  0.00    +0.000 A 
ATOM      5  N   UNL     1       2.123   8.577  18.506  0.00  0.00    +0.000 NA
ATOM      6  N   UNL     1       2.890   7.714  17.753  0.00  0.00    +0.000 NA
ENDROOT
BRANCH   1  12
ATOM      7  C   UNL     1       6.909   4.705  14.872  0.00  0.00    +0.000 C 
ATOM      8  C   UNL     1       5.760   4.851  15.806  0.00  0.00    +0.000 A 
ATOM      9  N   UNL     1       4.912   3.892  16.095  0.00  0.00    +0.000 NA
ATOM     10  C   UNL     1       3.948   4.354  16.983  0.00  0.00    +0.000 A 
ATOM     11  C   UNL     1       2.888   3.401  17.413  0.00  0.00    +0.000 C 
ATOM     12  C   UNL     1       4.071   5.692  17.348  0.00  0.00    +0.000 A 
ATOM     13  S   UNL     1       5.467   6.350  16.581  0.00  0.00    +0.000 S 
ENDBRANCH   1  12
BRANCH   4  14
ATOM     14  S   UNL     1       0.744   9.377  20.686  0.00  0.00    +0.000 S 
BRANCH  14  15
ATOM     15  C   UNL     1       0.604  10.737  19.476  0.00  0.00    +0.000 C 
BRANCH  15  16
ATOM     16  C   UNL     1      -0.817  10.901  18.979  0.00  0.00    +0.000 A 
ATOM     17  C   UNL     1      -1.294  10.117  17.917  0.00  0.00    +0.000 A 
ATOM     18  C   UNL     1      -2.607  10.261  17.455  0.00  0.00    +0.000 A 
ATOM     19  C   UNL     1      -3.451  11.200  18.059  0.00  0.00    +0.000 A 
ATOM     20  C   UNL     1      -2.990  11.996  19.115  0.00  0.00    +0.000 A 
ATOM     21  C   UNL     1      -1.675  11.843  19.569  0.00  0.00    +0.000 A 
BRANCH  19  22
ATOM     22  N   UNL     1      -4.834  11.351  17.583  0.00  0.00    +0.000 N 
ATOM     23  O   UNL     1      -5.025  12.057  16.582  0.00  0.00    +0.000 OA
ATOM     24  O   UNL     1      -5.726  10.759  18.206  0.00  0.00    +0.000 OA
ENDBRANCH  19  22
ENDBRANCH  15  16
ENDBRANCH  14  15
ENDBRANCH   4  14
TORSDOF 5
ENDMDL
