MODEL 1
REMARK VINA RESULT:      -5.9      0.000      0.000
REMARK  Name = 
REMARK  9 active torsions:
REMARK  status: ('A' for Active; 'I' for Inactive)
REMARK    1  A    between atoms: C_1  and  O_2
REMARK    2  A    between atoms: O_2  and  C_3
REMARK    3  A    between atoms: C_9  and  C_10
REMARK    4  A    between atoms: C_10  and  N_11
REMARK    5  A    between atoms: N_11  and  C_12
REMARK    6  A    between atoms: C_12  and  C_13
REMARK    7  A    between atoms: C_13  and  N_14
REMARK    8  A    between atoms: N_14  and  C_15
REMARK    9  A    between atoms: N_14  and  C_16
REMARK                            x       y       z     vdW  Elec       q    Type
REMARK                         _______ _______ _______ _____ _____    ______ ____
ROOT
ATOM      1  C   UNL     1       6.409   4.578  17.790  0.00  0.00    +0.000 A 
ATOM      2  C   UNL     1       7.364   4.854  16.800  0.00  0.00    +0.000 A 
ATOM      3  C   UNL     1       7.071   4.646  15.449  0.00  0.00    +0.000 A 
ATOM      4  C   UNL     1       5.825   4.159  15.079  0.00  0.00    +0.000 A 
ATOM      5 CL   UNL     1       5.466   3.906  13.417  0.00  0.00    +0.000 Cl
ATOM      6  C   UNL     1       4.870   3.872  16.051  0.00  0.00    +0.000 A 
ATOM      7  C   UNL     1       5.151   4.065  17.418  0.00  0.00    +0.000 A 
ENDROOT
BRANCH   1   9
ATOM      8  C   UNL     1       7.638   5.690  19.494  0.00  0.00    +0.000 C 
ATOM      9  O   UNL     1       6.638   4.744  19.131  0.00  0.00    +0.000 OA
ENDBRANCH   1   9
BRANCH   7  10
ATOM     10  C   UNL     1       4.069   3.738  18.430  0.00  0.00    +0.000 C 
BRANCH  10  11
ATOM     11  N   UNL     1       3.065   2.848  17.839  0.00  0.00    +0.000 NA
ATOM     12  H   UNL     1       3.553   2.169  17.254  0.00  0.00    +0.000 HD
BRANCH  11  13
ATOM     13  C   UNL     1       2.296   2.137  18.869  0.00  0.00    +0.000 C 
BRANCH  13  14
ATOM     14  C   UNL     1       1.005   2.925  19.199  0.00  0.00    +0.000 C 
BRANCH  14  15
ATOM     15  N   UNL     1       0.921   3.450  20.579  0.00  0.00    +0.000 NA
ATOM     16  C   UNL     1       1.692   2.638  21.522  0.00  0.00    +0.000 C 
ATOM     17  C   UNL     1       1.420   4.830  20.603  0.00  0.00    +0.000 C 
ENDBRANCH  14  15
ENDBRANCH  13  14
ENDBRANCH  11  13
ENDBRANCH  10  11
ENDBRANCH   7  10
TORSDOF 6
ENDMDL
MODEL 2
REMARK VINA RESULT:      -5.8      3.360      6.061
REMARK  Name = 
REMARK  9 active torsions:
REMARK  status: ('A' for Active; 'I' for Inactive)
REMARK    1  A    between atoms: C_1  and  O_2
REMARK    2  A    between atoms: O_2  and  C_3
REMARK    3  A    between atoms: C_9  and  C_10
REMARK    4  A    between atoms: C_10  and  N_11
REMARK    5  A    between atoms: N_11  and  C_12
REMARK    6  A    between atoms: C_12  and  C_13
REMARK    7  A    between atoms: C_13  and  N_14
REMARK    8  A    between atoms: N_14  and  C_15
REMARK    9  A    between atoms: N_14  and  C_16
REMARK                            x       y       z     vdW  Elec       q    Type
REMARK                         _______ _______ _______ _____ _____    ______ ____
ROOT
ATOM      1  C   UNL     1       3.284   5.672  19.165  0.00  0.00    +0.000 A 
ATOM      2  C   UNL     1       2.153   5.955  19.946  0.00  0.00    +0.000 A 
ATOM      3  C   UNL     1       1.590   4.974  20.767  0.00  0.00    +0.000 A 
ATOM      4  C   UNL     1       2.150   3.704  20.811  0.00  0.00    +0.000 A 
ATOM      5 CL   UNL     1       1.457   2.499  21.822  0.00  0.00    +0.000 Cl
ATOM      6  C   UNL     1       3.267   3.406  20.035  0.00  0.00    +0.000 A 
ATOM      7  C   UNL     1       3.842   4.379  19.194  0.00  0.00    +0.000 A 
ENDROOT
BRANCH   1   9
ATOM      8  C   UNL     1       3.072   7.686  17.918  0.00  0.00    +0.000 C 
ATOM      9  O   UNL     1       3.875   6.583  18.329  0.00  0.00    +0.000 OA
ENDBRANCH   1   9
BRANCH   7  10
ATOM     10  C   UNL     1       5.061   3.996  18.375  0.00  0.00    +0.000 C 
BRANCH  10  11
ATOM     11  N   UNL     1       6.258   4.667  18.891  0.00  0.00    +0.000 NA
ATOM     12  H   UNL     1       6.610   4.121  19.679  0.00  0.00    +0.000 HD
BRANCH  11  13
ATOM     13  C   UNL     1       7.306   4.772  17.868  0.00  0.00    +0.000 C 
BRANCH  13  14
ATOM     14  C   UNL     1       7.094   6.056  17.028  0.00  0.00    +0.000 C 
BRANCH  14  15
ATOM     15  N   UNL     1       6.753   5.832  15.607  0.00  0.00    +0.000 NA
ATOM     16  C   UNL     1       6.979   4.444  15.202  0.00  0.00    +0.000 C 
ATOM     17  C   UNL     1       5.345   6.181  15.386  0.00  0.00    +0.000 C 
ENDBRANCH  14  15
ENDBRANCH  13  14
ENDBRANCH  11  13
ENDBRANCH  10  11
ENDBRANCH   7  10
TORSDOF 6
ENDMDL
MODEL 3
REMARK VINA RESULT:      -5.6      1.404      2.023
REMARK  Name = 
REMARK  9 active torsions:
REMARK  status: ('A' for Active; 'I' for Inactive)
REMARK    1  A    between atoms: C_1  and  O_2
REMARK    2  A    between atoms: O_2  and  C_3
REMARK    3  A    between atoms: C_9  and  C_10
REMARK    4  A    between atoms: C_10  and  N_11
REMARK    5  A    between atoms: N_11  and  C_12
REMARK    6  A    between atoms: C_12  and  C_13
REMARK    7  A    between atoms: C_13  and  N_14
REMARK    8  A    between atoms: N_14  and  C_15
REMARK    9  A    between atoms: N_14  and  C_16
REMARK                            x       y       z     vdW  Elec       q    Type
REMARK                         _______ _______ _______ _____ _____    ______ ____
ROOT
ATOM      1  C   UNL     1       6.348   5.218  17.810  0.00  0.00    +0.000 A 
ATOM      2  C   UNL     1       7.344   4.584  17.051  0.00  0.00    +0.000 A 
ATOM      3  C   UNL     1       7.104   4.218  15.723  0.00  0.00    +0.000 A 
ATOM      4  C   UNL     1       5.869   4.481  15.147  0.00  0.00    +0.000 A 
ATOM      5 CL   UNL     1       5.576   4.032  13.513  0.00  0.00    +0.000 Cl
ATOM      6  C   UNL     1       4.868   5.101  15.890  0.00  0.00    +0.000 A 
ATOM      7  C   UNL     1       5.088   5.467  17.233  0.00  0.00    +0.000 A 
ENDROOT
BRANCH   1   9
ATOM      8  C   UNL     1       7.853   5.784  19.562  0.00  0.00    +0.000 C 
ATOM      9  O   UNL     1       6.514   5.587  19.119  0.00  0.00    +0.000 OA
ENDBRANCH   1   9
BRANCH   7  10
ATOM     10  C   UNL     1       3.961   6.143  17.991  0.00  0.00    +0.000 C 
BRANCH  10  11
ATOM     11  N   UNL     1       3.689   5.437  19.246  0.00  0.00    +0.000 NA
ATOM     12  H   UNL     1       3.896   6.074  20.016  0.00  0.00    +0.000 HD
BRANCH  11  13
ATOM     13  C   UNL     1       2.288   5.006  19.335  0.00  0.00    +0.000 C 
BRANCH  13  14
ATOM     14  C   UNL     1       1.798   4.519  17.950  0.00  0.00    +0.000 C 
BRANCH  14  15
ATOM     15  N   UNL     1       1.583   3.061  17.832  0.00  0.00    +0.000 NA
ATOM     16  C   UNL     1       2.845   2.329  17.719  0.00  0.00    +0.000 C 
ATOM     17  C   UNL     1       0.846   2.583  19.008  0.00  0.00    +0.000 C 
ENDBRANCH  14  15
ENDBRANCH  13  14
ENDBRANCH  11  13
ENDBRANCH  10  11
ENDBRANCH   7  10
TORSDOF 6
ENDMDL
MODEL 4
REMARK VINA RESULT:      -5.6      1.858      2.237
REMARK  Name = 
REMARK  9 active torsions:
REMARK  status: ('A' for Active; 'I' for Inactive)
REMARK    1  A    between atoms: C_1  and  O_2
REMARK    2  A    between atoms: O_2  and  C_3
REMARK    3  A    between atoms: C_9  and  C_10
REMARK    4  A    between atoms: C_10  and  N_11
REMARK    5  A    between atoms: N_11  and  C_12
REMARK    6  A    between atoms: C_12  and  C_13
REMARK    7  A    between atoms: C_13  and  N_14
REMARK    8  A    between atoms: N_14  and  C_15
REMARK    9  A    between atoms: N_14  and  C_16
REMARK                            x       y       z     vdW  Elec       q    Type
REMARK                         _______ _______ _______ _____ _____    ______ ____
ROOT
ATOM      1  C   UNL     1       3.925   5.550  17.579  0.00  0.00    +0.000 A 
ATOM      2  C   UNL     1       4.605   6.634  17.004  0.00  0.00    +0.000 A 
ATOM      3  C   UNL     1       5.504   6.435  15.952  0.00  0.00    +0.000 A 
ATOM      4  C   UNL     1       5.730   5.152  15.470  0.00  0.00    +0.000 A 
ATOM      5 CL   UNL     1       6.835   4.908  14.175  0.00  0.00    +0.000 Cl
ATOM      6  C   UNL     1       5.069   4.066  16.037  0.00  0.00    +0.000 A 
ATOM      7  C   UNL     1       4.167   4.247  17.105  0.00  0.00    +0.000 A 
ENDROOT
BRANCH   1   9
ATOM      8  C   UNL     1       2.603   6.995  18.928  0.00  0.00    +0.000 C 
ATOM      9  O   UNL     1       3.044   5.676  18.621  0.00  0.00    +0.000 OA
ENDBRANCH   1   9
BRANCH   7  10
ATOM     10  C   UNL     1       3.474   3.025  17.678  0.00  0.00    +0.000 C 
BRANCH  10  11
ATOM     11  N   UNL     1       2.070   2.987  17.258  0.00  0.00    +0.000 NA
ATOM     12  H   UNL     1       2.015   2.444  16.395  0.00  0.00    +0.000 HD
BRANCH  11  13
ATOM     13  C   UNL     1       1.214   2.366  18.277  0.00  0.00    +0.000 C 
BRANCH  13  14
ATOM     14  C   UNL     1       2.016   2.163  19.585  0.00  0.00    +0.000 C 
BRANCH  14  15
ATOM     15  N   UNL     1       1.453   2.825  20.781  0.00  0.00    +0.000 NA
ATOM     16  C   UNL     1       2.491   3.179  21.751  0.00  0.00    +0.000 C 
ATOM     17  C   UNL     1       0.736   4.038  20.371  0.00  0.00    +0.000 C 
ENDBRANCH  14  15
ENDBRANCH  13  14
ENDBRANCH  11  13
ENDBRANCH  10  11
ENDBRANCH   7  10
TORSDOF 6
ENDMDL
MODEL 5
REMARK VINA RESULT:      -5.6      3.344      5.885
REMARK  Name = 
REMARK  9 active torsions:
REMARK  status: ('A' for Active; 'I' for Inactive)
REMARK    1  A    between atoms: C_1  and  O_2
REMARK    2  A    between atoms: O_2  and  C_3
REMARK    3  A    between atoms: C_9  and  C_10
REMARK    4  A    between atoms: C_10  and  N_11
REMARK    5  A    between atoms: N_11  and  C_12
REMARK    6  A    between atoms: C_12  and  C_13
REMARK    7  A    between atoms: C_13  and  N_14
REMARK    8  A    between atoms: N_14  and  C_15
REMARK    9  A    between atoms: N_14  and  C_16
REMARK                            x       y       z     vdW  Elec       q    Type
REMARK                         _______ _______ _______ _____ _____    ______ ____
ROOT
ATOM      1  C   UNL     1       2.825   5.548  18.622  0.00  0.00    +0.000 A 
ATOM      2  C   UNL     1       2.150   6.010  19.762  0.00  0.00    +0.000 A 
ATOM      3  C   UNL     1       1.721   5.116  20.748  0.00  0.00    +0.000 A 
ATOM      4  C   UNL     1       1.962   3.757  20.600  0.00  0.00    +0.000 A 
ATOM      5 CL   UNL     1       1.436   2.659  21.814  0.00  0.00    +0.000 Cl
ATOM      6  C   UNL     1       2.623   3.282  19.470  0.00  0.00    +0.000 A 
ATOM      7  C   UNL     1       3.052   4.168  18.461  0.00  0.00    +0.000 A 
ENDROOT
BRANCH   1   9
ATOM      8  C   UNL     1       3.134   7.770  17.835  0.00  0.00    +0.000 C 
ATOM      9  O   UNL     1       3.256   6.368  17.613  0.00  0.00    +0.000 OA
ENDBRANCH   1   9
BRANCH   7  10
ATOM     10  C   UNL     1       3.770   3.592  17.255  0.00  0.00    +0.000 C 
BRANCH  10  11
ATOM     11  N   UNL     1       5.219   3.580  17.477  0.00  0.00    +0.000 NA
ATOM     12  H   UNL     1       5.548   2.621  17.360  0.00  0.00    +0.000 HD
BRANCH  11  13
ATOM     13  C   UNL     1       5.922   4.453  16.527  0.00  0.00    +0.000 C 
BRANCH  13  14
ATOM     14  C   UNL     1       7.396   4.628  16.965  0.00  0.00    +0.000 C 
BRANCH  14  15
ATOM     15  N   UNL     1       7.709   5.911  17.630  0.00  0.00    +0.000 NA
ATOM     16  C   UNL     1       6.727   6.948  17.311  0.00  0.00    +0.000 C 
ATOM     17  C   UNL     1       7.747   5.707  19.083  0.00  0.00    +0.000 C 
ENDBRANCH  14  15
ENDBRANCH  13  14
ENDBRANCH  11  13
ENDBRANCH  10  11
ENDBRANCH   7  10
TORSDOF 6
ENDMDL
MODEL 6
REMARK VINA RESULT:      -5.6      1.001      1.439
REMARK  Name = 
REMARK  9 active torsions:
REMARK  status: ('A' for Active; 'I' for Inactive)
REMARK    1  A    between atoms: C_1  and  O_2
REMARK    2  A    between atoms: O_2  and  C_3
REMARK    3  A    between atoms: C_9  and  C_10
REMARK    4  A    between atoms: C_10  and  N_11
REMARK    5  A    between atoms: N_11  and  C_12
REMARK    6  A    between atoms: C_12  and  C_13
REMARK    7  A    between atoms: C_13  and  N_14
REMARK    8  A    between atoms: N_14  and  C_15
REMARK    9  A    between atoms: N_14  and  C_16
REMARK                            x       y       z     vdW  Elec       q    Type
REMARK                         _______ _______ _______ _____ _____    ______ ____
ROOT
ATOM      1  C   UNL     1       6.161   5.329  17.247  0.00  0.00    +0.000 A 
ATOM      2  C   UNL     1       7.259   5.403  16.377  0.00  0.00    +0.000 A 
ATOM      3  C   UNL     1       7.180   4.877  15.084  0.00  0.00    +0.000 A 
ATOM      4  C   UNL     1       6.007   4.272  14.655  0.00  0.00    +0.000 A 
ATOM      5 CL   UNL     1       5.910   3.627  13.064  0.00  0.00    +0.000 Cl
ATOM      6  C   UNL     1       4.912   4.184  15.511  0.00  0.00    +0.000 A 
ATOM      7  C   UNL     1       4.977   4.699  16.821  0.00  0.00    +0.000 A 
ENDROOT
BRANCH   1   9
ATOM      8  C   UNL     1       7.425   5.750  19.218  0.00  0.00    +0.000 C 
ATOM      9  O   UNL     1       6.179   5.811  18.530  0.00  0.00    +0.000 OA
ENDBRANCH   1   9
BRANCH   7  10
ATOM     10  C   UNL     1       3.751   4.576  17.706  0.00  0.00    +0.000 C 
BRANCH  10  11
ATOM     11  N   UNL     1       4.086   3.886  18.955  0.00  0.00    +0.000 NA
ATOM     12  H   UNL     1       5.068   4.072  19.164  0.00  0.00    +0.000 HD
BRANCH  11  13
ATOM     13  C   UNL     1       3.255   4.352  20.073  0.00  0.00    +0.000 C 
BRANCH  13  14
ATOM     14  C   UNL     1       1.791   4.531  19.603  0.00  0.00    +0.000 C 
BRANCH  14  15
ATOM     15  N   UNL     1       0.882   3.413  19.933  0.00  0.00    +0.000 NA
ATOM     16  C   UNL     1       0.873   2.388  18.888  0.00  0.00    +0.000 C 
ATOM     17  C   UNL     1       1.296   2.808  21.204  0.00  0.00    +0.000 C 
ENDBRANCH  14  15
ENDBRANCH  13  14
ENDBRANCH  11  13
ENDBRANCH  10  11
ENDBRANCH   7  10
TORSDOF 6
ENDMDL
MODEL 7
REMARK VINA RESULT:      -5.6      1.795      2.142
REMARK  Name = 
REMARK  9 active torsions:
REMARK  status: ('A' for Active; 'I' for Inactive)
REMARK    1  A    between atoms: C_1  and  O_2
REMARK    2  A    between atoms: O_2  and  C_3
REMARK    3  A    between atoms: C_9  and  C_10
REMARK    4  A    between atoms: C_10  and  N_11
REMARK    5  A    between atoms: N_11  and  C_12
REMARK    6  A    between atoms: C_12  and  C_13
REMARK    7  A    between atoms: C_13  and  N_14
REMARK    8  A    between atoms: N_14  and  C_15
REMARK    9  A    between atoms: N_14  and  C_16
REMARK                            x       y       z     vdW  Elec       q    Type
REMARK                         _______ _______ _______ _____ _____    ______ ____
ROOT
ATOM      1  C   UNL     1       4.328   5.606  17.597  0.00  0.00    +0.000 A 
ATOM      2  C   UNL     1       4.985   6.669  16.958  0.00  0.00    +0.000 A 
ATOM      3  C   UNL     1       5.782   6.440  15.832  0.00  0.00    +0.000 A 
ATOM      4  C   UNL     1       5.930   5.150  15.341  0.00  0.00    +0.000 A 
ATOM      5 CL   UNL     1       6.910   4.872  13.955  0.00  0.00    +0.000 Cl
ATOM      6  C   UNL     1       5.292   4.085  15.969  0.00  0.00    +0.000 A 
ATOM      7  C   UNL     1       4.493   4.294  17.111  0.00  0.00    +0.000 A 
ENDROOT
BRANCH   1   9
ATOM      8  C   UNL     1       2.805   6.972  18.809  0.00  0.00    +0.000 C 
ATOM      9  O   UNL     1       3.547   5.759  18.712  0.00  0.00    +0.000 OA
ENDBRANCH   1   9
BRANCH   7  10
ATOM     10  C   UNL     1       3.820   3.094  17.751  0.00  0.00    +0.000 C 
BRANCH  10  11
ATOM     11  N   UNL     1       4.595   2.624  18.903  0.00  0.00    +0.000 NA
ATOM     12  H   UNL     1       5.313   3.321  19.104  0.00  0.00    +0.000 HD
BRANCH  11  13
ATOM     13  C   UNL     1       3.749   2.443  20.089  0.00  0.00    +0.000 C 
BRANCH  13  14
ATOM     14  C   UNL     1       2.294   2.141  19.658  0.00  0.00    +0.000 C 
BRANCH  14  15
ATOM     15  N   UNL     1       1.246   2.640  20.574  0.00  0.00    +0.000 NA
ATOM     16  C   UNL     1       1.653   2.540  21.977  0.00  0.00    +0.000 C 
ATOM     17  C   UNL     1       0.947   4.040  20.252  0.00  0.00    +0.000 C 
ENDBRANCH  14  15
ENDBRANCH  13  14
ENDBRANCH  11  13
ENDBRANCH  10  11
ENDBRANCH   7  10
TORSDOF 6
ENDMDL
MODEL 8
REMARK VINA RESULT:      -5.6      2.998      5.611
REMARK  Name = 
REMARK  9 active torsions:
REMARK  status: ('A' for Active; 'I' for Inactive)
REMARK    1  A    between atoms: C_1  and  O_2
REMARK    2  A    between atoms: O_2  and  C_3
REMARK    3  A    between atoms: C_9  and  C_10
REMARK    4  A    between atoms: C_10  and  N_11
REMARK    5  A    between atoms: N_11  and  C_12
REMARK    6  A    between atoms: C_12  and  C_13
REMARK    7  A    between atoms: C_13  and  N_14
REMARK    8  A    between atoms: N_14  and  C_15
REMARK    9  A    between atoms: N_14  and  C_16
REMARK                            x       y       z     vdW  Elec       q    Type
REMARK                         _______ _______ _______ _____ _____    ______ ____
ROOT
ATOM      1  C   UNL     1       2.713   4.402  19.524  0.00  0.00    +0.000 A 
ATOM      2  C   UNL     1       2.194   5.393  20.371  0.00  0.00    +0.000 A 
ATOM      3  C   UNL     1       2.081   6.716  19.934  0.00  0.00    +0.000 A 
ATOM      4  C   UNL     1       2.488   7.057  18.651  0.00  0.00    +0.000 A 
ATOM      5 CL   UNL     1       2.347   8.684  18.114  0.00  0.00    +0.000 Cl
ATOM      6  C   UNL     1       3.013   6.085  17.802  0.00  0.00    +0.000 A 
ATOM      7  C   UNL     1       3.145   4.749  18.230  0.00  0.00    +0.000 A 
ENDROOT
BRANCH   1   9
ATOM      8  C   UNL     1       2.667   2.793  21.276  0.00  0.00    +0.000 C 
ATOM      9  O   UNL     1       2.865   3.092  19.897  0.00  0.00    +0.000 OA
ENDBRANCH   1   9
BRANCH   7  10
ATOM     10  C   UNL     1       3.720   3.735  17.260  0.00  0.00    +0.000 C 
BRANCH  10  11
ATOM     11  N   UNL     1       5.156   3.557  17.494  0.00  0.00    +0.000 NA
ATOM     12  H   UNL     1       5.367   2.561  17.417  0.00  0.00    +0.000 HD
BRANCH  11  13
ATOM     13  C   UNL     1       5.963   4.301  16.518  0.00  0.00    +0.000 C 
BRANCH  13  14
ATOM     14  C   UNL     1       7.388   4.530  17.077  0.00  0.00    +0.000 C 
BRANCH  14  15
ATOM     15  N   UNL     1       7.642   5.880  17.623  0.00  0.00    +0.000 NA
ATOM     16  C   UNL     1       6.580   6.823  17.270  0.00  0.00    +0.000 C 
ATOM     17  C   UNL     1       7.756   5.799  19.084  0.00  0.00    +0.000 C 
ENDBRANCH  14  15
ENDBRANCH  13  14
ENDBRANCH  11  13
ENDBRANCH  10  11
ENDBRANCH   7  10
TORSDOF 6
ENDMDL
MODEL 9
REMARK VINA RESULT:      -5.5      2.585      3.204
REMARK  Name = 
REMARK  9 active torsions:
REMARK  status: ('A' for Active; 'I' for Inactive)
REMARK    1  A    between atoms: C_1  and  O_2
REMARK    2  A    between atoms: O_2  and  C_3
REMARK    3  A    between atoms: C_9  and  C_10
REMARK    4  A    between atoms: C_10  and  N_11
REMARK    5  A    between atoms: N_11  and  C_12
REMARK    6  A    between atoms: C_12  and  C_13
REMARK    7  A    between atoms: C_13  and  N_14
REMARK    8  A    between atoms: N_14  and  C_15
REMARK    9  A    between atoms: N_14  and  C_16
REMARK                            x       y       z     vdW  Elec       q    Type
REMARK                         _______ _______ _______ _____ _____    ______ ____
ROOT
ATOM      1  C   UNL     1       5.357   5.227  17.029  0.00  0.00    +0.000 A 
ATOM      2  C   UNL     1       5.126   6.386  16.274  0.00  0.00    +0.000 A 
ATOM      3  C   UNL     1       4.165   7.319  16.676  0.00  0.00    +0.000 A 
ATOM      4  C   UNL     1       3.428   7.097  17.831  0.00  0.00    +0.000 A 
ATOM      5 CL   UNL     1       2.247   8.246  18.325  0.00  0.00    +0.000 Cl
ATOM      6  C   UNL     1       3.641   5.947  18.587  0.00  0.00    +0.000 A 
ATOM      7  C   UNL     1       4.598   4.991  18.191  0.00  0.00    +0.000 A 
ENDROOT
BRANCH   1   9
ATOM      8  C   UNL     1       6.820   4.353  15.370  0.00  0.00    +0.000 C 
ATOM      9  O   UNL     1       6.272   4.267  16.683  0.00  0.00    +0.000 OA
ENDBRANCH   1   9
BRANCH   7  10
ATOM     10  C   UNL     1       4.787   3.759  19.057  0.00  0.00    +0.000 C 
BRANCH  10  11
ATOM     11  N   UNL     1       4.544   2.542  18.277  0.00  0.00    +0.000 NA
ATOM     12  H   UNL     1       5.308   1.891  18.464  0.00  0.00    +0.000 HD
BRANCH  11  13
ATOM     13  C   UNL     1       3.269   1.909  18.640  0.00  0.00    +0.000 C 
BRANCH  13  14
ATOM     14  C   UNL     1       2.779   2.456  20.002  0.00  0.00    +0.000 C 
BRANCH  14  15
ATOM     15  N   UNL     1       1.329   2.733  20.087  0.00  0.00    +0.000 NA
ATOM     16  C   UNL     1       1.058   4.115  20.487  0.00  0.00    +0.000 C 
ATOM     17  C   UNL     1       0.708   2.474  18.783  0.00  0.00    +0.000 C 
ENDBRANCH  14  15
ENDBRANCH  13  14
ENDBRANCH  11  13
ENDBRANCH  10  11
ENDBRANCH   7  10
TORSDOF 6
ENDMDL
