MODEL 1
REMARK VINA RESULT:      -8.2      0.000      0.000
REMARK  Name = 
REMARK  3 active torsions:
REMARK  status: ('A' for Active; 'I' for Inactive)
REMARK    1  A    between atoms: C_1  and  C_2
REMARK    2  A    between atoms: C_5  and  C_6
REMARK    3  A    between atoms: N_19  and  C_20
REMARK                            x       y       z     vdW  Elec       q    Type
REMARK                         _______ _______ _______ _____ _____    ______ ____
ROOT
ATOM      1  C   UNL     1       0.257   9.739  20.492  0.00  0.00    +0.000 C 
ATOM      2  O   UNL     1      -0.549   9.137  21.195  0.00  0.00    +0.000 OA
ATOM      3  N   UNL     1       0.360  11.103  20.341  0.00  0.00    +0.000 N 
ATOM      4  C   UNL     1      -0.470  12.019  20.992  0.00  0.00    +0.000 A 
ATOM      5  N   UNL     1      -1.309  11.687  22.022  0.00  0.00    +0.000 NA
ATOM      6  C   UNL     1      -2.159  12.578  22.610  0.00  0.00    +0.000 A 
ATOM      7  C   UNL     1      -2.978  12.107  23.623  0.00  0.00    +0.000 A 
ATOM      8  C   UNL     1      -3.912  12.925  24.273  0.00  0.00    +0.000 A 
ATOM      9  C   UNL     1      -4.047  14.264  23.917  0.00  0.00    +0.000 A 
ATOM     10  C   UNL     1      -3.238  14.796  22.918  0.00  0.00    +0.000 A 
ATOM     11  C   UNL     1      -2.296  13.956  22.273  0.00  0.00    +0.000 A 
ATOM     12  C   UNL     1      -1.393  14.282  21.236  0.00  0.00    +0.000 A 
ATOM     13  C   UNL     1      -1.208  15.500  20.636  0.00  0.00    +0.000 A 
ATOM     14  N   UNL     1      -0.263  15.301  19.651  0.00  0.00    +0.000 N 
ATOM     15  N   UNL     1       0.180  14.012  19.617  0.00  0.00    +0.000 NA
ATOM     16  C   UNL     1      -0.498  13.372  20.586  0.00  0.00    +0.000 A 
ATOM     17  H   UNL     1       0.945  11.494  19.615  0.00  0.00    +0.000 HD
ENDROOT
BRANCH   1  22
ATOM     18  C   UNL     1       4.037   6.565  17.470  0.00  0.00    +0.000 C 
ATOM     19  C   UNL     1       3.028   7.376  18.228  0.00  0.00    +0.000 A 
ATOM     20  C   UNL     1       2.631   6.992  19.513  0.00  0.00    +0.000 A 
ATOM     21  C   UNL     1       1.717   7.766  20.226  0.00  0.00    +0.000 A 
ATOM     22  C   UNL     1       1.177   8.926  19.657  0.00  0.00    +0.000 A 
ATOM     23  C   UNL     1       1.561   9.315  18.371  0.00  0.00    +0.000 A 
ATOM     24  C   UNL     1       2.485   8.540  17.662  0.00  0.00    +0.000 A 
ENDBRANCH   1  22
BRANCH  14  25
ATOM     25  C   UNL     1       0.237  16.252  18.717  0.00  0.00    +0.000 A 
ATOM     26  C   UNL     1       1.609  16.360  18.453  0.00  0.00    +0.000 A 
ATOM     27  C   UNL     1       2.073  17.326  17.554  0.00  0.00    +0.000 A 
ATOM     28  C   UNL     1       1.178  18.187  16.922  0.00  0.00    +0.000 A 
ATOM     29  C   UNL     1      -0.188  18.079  17.173  0.00  0.00    +0.000 A 
ATOM     30  C   UNL     1      -0.661  17.110  18.060  0.00  0.00    +0.000 A 
ENDBRANCH  14  25
TORSDOF 2
ENDMDL
MODEL 2
REMARK VINA RESULT:      -8.1      0.171      1.281
REMARK  Name = 
REMARK  3 active torsions:
REMARK  status: ('A' for Active; 'I' for Inactive)
REMARK    1  A    between atoms: C_1  and  C_2
REMARK    2  A    between atoms: C_5  and  C_6
REMARK    3  A    between atoms: N_19  and  C_20
REMARK                            x       y       z     vdW  Elec       q    Type
REMARK                         _______ _______ _______ _____ _____    ______ ____
ROOT
ATOM      1  C   UNL     1       0.209   9.766  20.663  0.00  0.00    +0.000 C 
ATOM      2  O   UNL     1      -0.613   9.162  21.346  0.00  0.00    +0.000 OA
ATOM      3  N   UNL     1       0.301  11.129  20.501  0.00  0.00    +0.000 N 
ATOM      4  C   UNL     1      -0.561  12.043  21.113  0.00  0.00    +0.000 A 
ATOM      5  N   UNL     1      -1.431  11.711  22.117  0.00  0.00    +0.000 NA
ATOM      6  C   UNL     1      -2.312  12.598  22.666  0.00  0.00    +0.000 A 
ATOM      7  C   UNL     1      -3.158  12.128  23.656  0.00  0.00    +0.000 A 
ATOM      8  C   UNL     1      -4.124  12.941  24.265  0.00  0.00    +0.000 A 
ATOM      9  C   UNL     1      -4.262  14.275  23.889  0.00  0.00    +0.000 A 
ATOM     10  C   UNL     1      -3.426  14.805  22.912  0.00  0.00    +0.000 A 
ATOM     11  C   UNL     1      -2.453  13.970  22.309  0.00  0.00    +0.000 A 
ATOM     12  C   UNL     1      -1.520  14.297  21.300  0.00  0.00    +0.000 A 
ATOM     13  C   UNL     1      -1.328  15.510  20.693  0.00  0.00    +0.000 A 
ATOM     14  N   UNL     1      -0.348  15.311  19.743  0.00  0.00    +0.000 N 
ATOM     15  N   UNL     1       0.111  14.028  19.738  0.00  0.00    +0.000 NA
ATOM     16  C   UNL     1      -0.592  13.390  20.691  0.00  0.00    +0.000 A 
ATOM     17  H   UNL     1       0.906  11.520  19.790  0.00  0.00    +0.000 HD
ENDROOT
BRANCH   1  22
ATOM     18  C   UNL     1       3.747   6.612  17.341  0.00  0.00    +0.000 C 
ATOM     19  C   UNL     1       2.861   7.440  18.225  0.00  0.00    +0.000 A 
ATOM     20  C   UNL     1       2.310   8.637  17.756  0.00  0.00    +0.000 A 
ATOM     21  C   UNL     1       1.462   9.386  18.571  0.00  0.00    +0.000 A 
ATOM     22  C   UNL     1       1.167   8.956  19.869  0.00  0.00    +0.000 A 
ATOM     23  C   UNL     1       1.718   7.765  20.351  0.00  0.00    +0.000 A 
ATOM     24  C   UNL     1       2.561   7.011  19.528  0.00  0.00    +0.000 A 
ENDBRANCH   1  22
BRANCH  14  25
ATOM     25  C   UNL     1       0.172  16.259  18.816  0.00  0.00    +0.000 A 
ATOM     26  C   UNL     1      -0.672  17.140  18.127  0.00  0.00    +0.000 A 
ATOM     27  C   UNL     1      -0.136  18.038  17.199  0.00  0.00    +0.000 A 
ATOM     28  C   UNL     1       1.235  18.058  16.949  0.00  0.00    +0.000 A 
ATOM     29  C   UNL     1       2.081  17.191  17.637  0.00  0.00    +0.000 A 
ATOM     30  C   UNL     1       1.555  16.300  18.574  0.00  0.00    +0.000 A 
ENDBRANCH  14  25
TORSDOF 2
ENDMDL
MODEL 3
REMARK VINA RESULT:      -8.0      1.028      1.765
REMARK  Name = 
REMARK  3 active torsions:
REMARK  status: ('A' for Active; 'I' for Inactive)
REMARK    1  A    between atoms: C_1  and  C_2
REMARK    2  A    between atoms: C_5  and  C_6
REMARK    3  A    between atoms: N_19  and  C_20
REMARK                            x       y       z     vdW  Elec       q    Type
REMARK                         _______ _______ _______ _____ _____    ______ ____
ROOT
ATOM      1  C   UNL     1       0.638   8.947  20.783  0.00  0.00    +0.000 C 
ATOM      2  O   UNL     1      -0.304   8.469  21.408  0.00  0.00    +0.000 OA
ATOM      3  N   UNL     1       0.916  10.284  20.611  0.00  0.00    +0.000 N 
ATOM      4  C   UNL     1       0.137  11.313  21.144  0.00  0.00    +0.000 A 
ATOM      5  N   UNL     1      -0.840  11.118  22.083  0.00  0.00    +0.000 NA
ATOM      6  C   UNL     1      -1.637  12.122  22.553  0.00  0.00    +0.000 A 
ATOM      7  C   UNL     1      -2.608  11.787  23.481  0.00  0.00    +0.000 A 
ATOM      8  C   UNL     1      -3.503  12.730  24.004  0.00  0.00    +0.000 A 
ATOM      9  C   UNL     1      -3.440  14.061  23.602  0.00  0.00    +0.000 A 
ATOM     10  C   UNL     1      -2.472  14.459  22.685  0.00  0.00    +0.000 A 
ATOM     11  C   UNL     1      -1.574  13.493  22.168  0.00  0.00    +0.000 A 
ATOM     12  C   UNL     1      -0.533  13.675  21.229  0.00  0.00    +0.000 A 
ATOM     13  C   UNL     1      -0.143  14.840  20.624  0.00  0.00    +0.000 A 
ATOM     14  N   UNL     1       0.872  14.496  19.754  0.00  0.00    +0.000 N 
ATOM     15  N   UNL     1       1.160  13.165  19.800  0.00  0.00    +0.000 NA
ATOM     16  C   UNL     1       0.312  12.643  20.704  0.00  0.00    +0.000 A 
ATOM     17  H   UNL     1       1.618  10.578  19.944  0.00  0.00    +0.000 HD
ENDROOT
BRANCH   1  22
ATOM     18  C   UNL     1       3.979   5.300  17.778  0.00  0.00    +0.000 C 
ATOM     19  C   UNL     1       3.143   6.251  18.583  0.00  0.00    +0.000 A 
ATOM     20  C   UNL     1       2.814   7.511  18.074  0.00  0.00    +0.000 A 
ATOM     21  C   UNL     1       2.011   8.380  18.813  0.00  0.00    +0.000 A 
ATOM     22  C   UNL     1       1.539   8.003  20.075  0.00  0.00    +0.000 A 
ATOM     23  C   UNL     1       1.867   6.749  20.596  0.00  0.00    +0.000 A 
ATOM     24  C   UNL     1       2.666   5.877  19.849  0.00  0.00    +0.000 A 
ENDBRANCH   1  22
BRANCH  14  25
ATOM     25  C   UNL     1       1.577  15.349  18.857  0.00  0.00    +0.000 A 
ATOM     26  C   UNL     1       1.117  16.641  18.568  0.00  0.00    +0.000 A 
ATOM     27  C   UNL     1       1.813  17.443  17.659  0.00  0.00    +0.000 A 
ATOM     28  C   UNL     1       2.961  16.962  17.032  0.00  0.00    +0.000 A 
ATOM     29  C   UNL     1       3.429  15.683  17.321  0.00  0.00    +0.000 A 
ATOM     30  C   UNL     1       2.747  14.879  18.236  0.00  0.00    +0.000 A 
ENDBRANCH  14  25
TORSDOF 2
ENDMDL
MODEL 4
REMARK VINA RESULT:      -7.9      0.758      1.224
REMARK  Name = 
REMARK  3 active torsions:
REMARK  status: ('A' for Active; 'I' for Inactive)
REMARK    1  A    between atoms: C_1  and  C_2
REMARK    2  A    between atoms: C_5  and  C_6
REMARK    3  A    between atoms: N_19  and  C_20
REMARK                            x       y       z     vdW  Elec       q    Type
REMARK                         _______ _______ _______ _____ _____    ______ ____
ROOT
ATOM      1  C   UNL     1       0.569   9.257  20.506  0.00  0.00    +0.000 C 
ATOM      2  O   UNL     1      -0.326   8.722  21.153  0.00  0.00    +0.000 OA
ATOM      3  N   UNL     1       0.796  10.609  20.378  0.00  0.00    +0.000 N 
ATOM      4  C   UNL     1       0.010  11.588  20.989  0.00  0.00    +0.000 A 
ATOM      5  N   UNL     1      -0.915  11.322  21.963  0.00  0.00    +0.000 NA
ATOM      6  C   UNL     1      -1.720  12.279  22.511  0.00  0.00    +0.000 A 
ATOM      7  C   UNL     1      -2.635  11.872  23.467  0.00  0.00    +0.000 A 
ATOM      8  C   UNL     1      -3.534  12.762  24.071  0.00  0.00    +0.000 A 
ATOM      9  C   UNL     1      -3.533  14.111  23.723  0.00  0.00    +0.000 A 
ATOM     10  C   UNL     1      -2.623  14.578  22.780  0.00  0.00    +0.000 A 
ATOM     11  C   UNL     1      -1.719  13.665  22.182  0.00  0.00    +0.000 A 
ATOM     12  C   UNL     1      -0.731  13.920  21.205  0.00  0.00    +0.000 A 
ATOM     13  C   UNL     1      -0.407  15.122  20.632  0.00  0.00    +0.000 A 
ATOM     14  N   UNL     1       0.576  14.849  19.702  0.00  0.00    +0.000 N 
ATOM     15  N   UNL     1       0.908  13.527  19.679  0.00  0.00    +0.000 NA
ATOM     16  C   UNL     1       0.121  12.941  20.598  0.00  0.00    +0.000 A 
ATOM     17  H   UNL     1       1.456  10.954  19.692  0.00  0.00    +0.000 HD
ENDROOT
BRANCH   1  22
ATOM     18  C   UNL     1       4.239   5.791  17.676  0.00  0.00    +0.000 C 
ATOM     19  C   UNL     1       3.259   6.681  18.382  0.00  0.00    +0.000 A 
ATOM     20  C   UNL     1       2.750   6.321  19.634  0.00  0.00    +0.000 A 
ATOM     21  C   UNL     1       1.864   7.166  20.301  0.00  0.00    +0.000 A 
ATOM     22  C   UNL     1       1.465   8.375  19.717  0.00  0.00    +0.000 A 
ATOM     23  C   UNL     1       1.963   8.740  18.464  0.00  0.00    +0.000 A 
ATOM     24  C   UNL     1       2.858   7.894  17.802  0.00  0.00    +0.000 A 
ENDBRANCH   1  22
BRANCH  14  25
ATOM     25  C   UNL     1       1.210  15.761  18.811  0.00  0.00    +0.000 A 
ATOM     26  C   UNL     1       0.558  16.922  18.373  0.00  0.00    +0.000 A 
ATOM     27  C   UNL     1       1.194  17.782  17.473  0.00  0.00    +0.000 A 
ATOM     28  C   UNL     1       2.472  17.488  17.002  0.00  0.00    +0.000 A 
ATOM     29  C   UNL     1       3.129  16.341  17.440  0.00  0.00    +0.000 A 
ATOM     30  C   UNL     1       2.507  15.483  18.348  0.00  0.00    +0.000 A 
ENDBRANCH  14  25
TORSDOF 2
ENDMDL
MODEL 5
REMARK VINA RESULT:      -7.6      9.070     12.054
REMARK  Name = 
REMARK  3 active torsions:
REMARK  status: ('A' for Active; 'I' for Inactive)
REMARK    1  A    between atoms: C_1  and  C_2
REMARK    2  A    between atoms: C_5  and  C_6
REMARK    3  A    between atoms: N_19  and  C_20
REMARK                            x       y       z     vdW  Elec       q    Type
REMARK                         _______ _______ _______ _____ _____    ______ ____
ROOT
ATOM      1  C   UNL     1       8.865  13.001  23.241  0.00  0.00    +0.000 C 
ATOM      2  O   UNL     1       9.212  14.173  23.125  0.00  0.00    +0.000 OA
ATOM      3  N   UNL     1       8.984  12.011  22.292  0.00  0.00    +0.000 N 
ATOM      4  C   UNL     1       9.536  12.214  21.025  0.00  0.00    +0.000 A 
ATOM      5  N   UNL     1      10.230  13.339  20.670  0.00  0.00    +0.000 NA
ATOM      6  C   UNL     1      10.713  13.553  19.411  0.00  0.00    +0.000 A 
ATOM      7  C   UNL     1      11.373  14.747  19.174  0.00  0.00    +0.000 A 
ATOM      8  C   UNL     1      11.879  15.086  17.911  0.00  0.00    +0.000 A 
ATOM      9  C   UNL     1      11.735  14.214  16.836  0.00  0.00    +0.000 A 
ATOM     10  C   UNL     1      11.097  12.992  17.021  0.00  0.00    +0.000 A 
ATOM     11  C   UNL     1      10.593  12.664  18.304  0.00  0.00    +0.000 A 
ATOM     12  C   UNL     1       9.909  11.495  18.706  0.00  0.00    +0.000 A 
ATOM     13  C   UNL     1       9.599  10.398  17.945  0.00  0.00    +0.000 A 
ATOM     14  N   UNL     1       8.885   9.552  18.767  0.00  0.00    +0.000 N 
ATOM     15  N   UNL     1       8.749  10.053  20.027  0.00  0.00    +0.000 NA
ATOM     16  C   UNL     1       9.376  11.242  20.012  0.00  0.00    +0.000 A 
ATOM     17  H   UNL     1       8.520  11.121  22.421  0.00  0.00    +0.000 HD
ENDROOT
BRANCH   1  22
ATOM     18  C   UNL     1       5.936  11.515  28.006  0.00  0.00    +0.000 C 
ATOM     19  C   UNL     1       6.728  11.882  26.785  0.00  0.00    +0.000 A 
ATOM     20  C   UNL     1       6.463  11.268  25.557  0.00  0.00    +0.000 A 
ATOM     21  C   UNL     1       7.181  11.635  24.419  0.00  0.00    +0.000 A 
ATOM     22  C   UNL     1       8.181  12.611  24.499  0.00  0.00    +0.000 A 
ATOM     23  C   UNL     1       8.458  13.226  25.723  0.00  0.00    +0.000 A 
ATOM     24  C   UNL     1       7.730  12.861  26.860  0.00  0.00    +0.000 A 
ENDBRANCH   1  22
BRANCH  14  25
ATOM     25  C   UNL     1       8.297   8.299  18.430  0.00  0.00    +0.000 A 
ATOM     26  C   UNL     1       8.512   7.160  19.217  0.00  0.00    +0.000 A 
ATOM     27  C   UNL     1       7.946   5.937  18.843  0.00  0.00    +0.000 A 
ATOM     28  C   UNL     1       7.175   5.842  17.686  0.00  0.00    +0.000 A 
ATOM     29  C   UNL     1       6.949   6.973  16.905  0.00  0.00    +0.000 A 
ATOM     30  C   UNL     1       7.500   8.201  17.277  0.00  0.00    +0.000 A 
ENDBRANCH  14  25
TORSDOF 2
ENDMDL
MODEL 6
REMARK VINA RESULT:      -7.5      1.909      2.264
REMARK  Name = 
REMARK  3 active torsions:
REMARK  status: ('A' for Active; 'I' for Inactive)
REMARK    1  A    between atoms: C_1  and  C_2
REMARK    2  A    between atoms: C_5  and  C_6
REMARK    3  A    between atoms: N_19  and  C_20
REMARK                            x       y       z     vdW  Elec       q    Type
REMARK                         _______ _______ _______ _____ _____    ______ ____
ROOT
ATOM      1  C   UNL     1       0.604   8.682  20.986  0.00  0.00    +0.000 C 
ATOM      2  O   UNL     1      -0.463   8.298  21.456  0.00  0.00    +0.000 OA
ATOM      3  N   UNL     1       1.068   9.977  20.948  0.00  0.00    +0.000 N 
ATOM      4  C   UNL     1       0.361  11.068  21.458  0.00  0.00    +0.000 A 
ATOM      5  N   UNL     1      -0.746  10.951  22.256  0.00  0.00    +0.000 NA
ATOM      6  C   UNL     1      -1.465  12.024  22.699  0.00  0.00    +0.000 A 
ATOM      7  C   UNL     1      -2.581  11.768  23.476  0.00  0.00    +0.000 A 
ATOM      8  C   UNL     1      -3.411  12.790  23.957  0.00  0.00    +0.000 A 
ATOM      9  C   UNL     1      -3.131  14.123  23.665  0.00  0.00    +0.000 A 
ATOM     10  C   UNL     1      -2.011  14.440  22.903  0.00  0.00    +0.000 A 
ATOM     11  C   UNL     1      -1.181  13.394  22.428  0.00  0.00    +0.000 A 
ATOM     12  C   UNL     1      -0.014  13.489  21.637  0.00  0.00    +0.000 A 
ATOM     13  C   UNL     1       0.595  14.625  21.171  0.00  0.00    +0.000 A 
ATOM     14  N   UNL     1       1.661  14.200  20.406  0.00  0.00    +0.000 N 
ATOM     15  N   UNL     1       1.772  12.842  20.388  0.00  0.00    +0.000 NA
ATOM     16  C   UNL     1       0.756  12.387  21.143  0.00  0.00    +0.000 A 
ATOM     17  H   UNL     1       1.881  10.213  20.394  0.00  0.00    +0.000 HD
ENDROOT
BRANCH   1  22
ATOM     18  C   UNL     1       3.809   4.788  18.146  0.00  0.00    +0.000 C 
ATOM     19  C   UNL     1       3.006   5.799  18.910  0.00  0.00    +0.000 A 
ATOM     20  C   UNL     1       2.848   7.099  18.417  0.00  0.00    +0.000 A 
ATOM     21  C   UNL     1       2.076   8.026  19.116  0.00  0.00    +0.000 A 
ATOM     22  C   UNL     1       1.463   7.669  20.323  0.00  0.00    +0.000 A 
ATOM     23  C   UNL     1       1.620   6.375  20.828  0.00  0.00    +0.000 A 
ATOM     24  C   UNL     1       2.389   5.445  20.120  0.00  0.00    +0.000 A 
ENDBRANCH   1  22
BRANCH  14  25
ATOM     25  C   UNL     1       2.577  15.001  19.666  0.00  0.00    +0.000 A 
ATOM     26  C   UNL     1       3.324  16.012  20.286  0.00  0.00    +0.000 A 
ATOM     27  C   UNL     1       4.193  16.803  19.528  0.00  0.00    +0.000 A 
ATOM     28  C   UNL     1       4.315  16.597  18.155  0.00  0.00    +0.000 A 
ATOM     29  C   UNL     1       3.583  15.588  17.534  0.00  0.00    +0.000 A 
ATOM     30  C   UNL     1       2.723  14.785  18.286  0.00  0.00    +0.000 A 
ENDBRANCH  14  25
TORSDOF 2
ENDMDL
MODEL 7
REMARK VINA RESULT:      -7.5      9.031     12.095
REMARK  Name = 
REMARK  3 active torsions:
REMARK  status: ('A' for Active; 'I' for Inactive)
REMARK    1  A    between atoms: C_1  and  C_2
REMARK    2  A    between atoms: C_5  and  C_6
REMARK    3  A    between atoms: N_19  and  C_20
REMARK                            x       y       z     vdW  Elec       q    Type
REMARK                         _______ _______ _______ _____ _____    ______ ____
ROOT
ATOM      1  C   UNL     1       8.779  12.968  23.285  0.00  0.00    +0.000 C 
ATOM      2  O   UNL     1       9.162  14.131  23.199  0.00  0.00    +0.000 OA
ATOM      3  N   UNL     1       8.915  11.985  22.332  0.00  0.00    +0.000 N 
ATOM      4  C   UNL     1       9.529  12.186  21.093  0.00  0.00    +0.000 A 
ATOM      5  N   UNL     1      10.268  13.296  20.782  0.00  0.00    +0.000 NA
ATOM      6  C   UNL     1      10.812  13.509  19.548  0.00  0.00    +0.000 A 
ATOM      7  C   UNL     1      11.513  14.688  19.355  0.00  0.00    +0.000 A 
ATOM      8  C   UNL     1      12.084  15.026  18.120  0.00  0.00    +0.000 A 
ATOM      9  C   UNL     1      11.967  14.169  17.029  0.00  0.00    +0.000 A 
ATOM     10  C   UNL     1      11.288  12.962  17.172  0.00  0.00    +0.000 A 
ATOM     11  C   UNL     1      10.720  12.635  18.427  0.00  0.00    +0.000 A 
ATOM     12  C   UNL     1       9.987  11.481  18.785  0.00  0.00    +0.000 A 
ATOM     13  C   UNL     1       9.684  10.400  17.998  0.00  0.00    +0.000 A 
ATOM     14  N   UNL     1       8.911   9.565  18.778  0.00  0.00    +0.000 N 
ATOM     15  N   UNL     1       8.732  10.057  20.037  0.00  0.00    +0.000 NA
ATOM     16  C   UNL     1       9.390  11.229  20.063  0.00  0.00    +0.000 A 
ATOM     17  H   UNL     1       8.423  11.107  22.430  0.00  0.00    +0.000 HD
ENDROOT
BRANCH   1  22
ATOM     18  C   UNL     1       6.118  11.423  28.187  0.00  0.00    +0.000 C 
ATOM     19  C   UNL     1       6.775  11.842  26.904  0.00  0.00    +0.000 A 
ATOM     20  C   UNL     1       7.788  12.806  26.908  0.00  0.00    +0.000 A 
ATOM     21  C   UNL     1       8.416  13.170  25.718  0.00  0.00    +0.000 A 
ATOM     22  C   UNL     1       8.029  12.584  24.507  0.00  0.00    +0.000 A 
ATOM     23  C   UNL     1       7.013  11.625  24.490  0.00  0.00    +0.000 A 
ATOM     24  C   UNL     1       6.391  11.257  25.688  0.00  0.00    +0.000 A 
ENDBRANCH   1  22
BRANCH  14  25
ATOM     25  C   UNL     1       8.306   8.332  18.401  0.00  0.00    +0.000 A 
ATOM     26  C   UNL     1       7.496   8.239  17.261  0.00  0.00    +0.000 A 
ATOM     27  C   UNL     1       6.890   7.023  16.933  0.00  0.00    +0.000 A 
ATOM     28  C   UNL     1       7.082   5.901  17.738  0.00  0.00    +0.000 A 
ATOM     29  C   UNL     1       7.893   5.984  18.866  0.00  0.00    +0.000 A 
ATOM     30  C   UNL     1       8.512   7.192  19.195  0.00  0.00    +0.000 A 
ENDBRANCH  14  25
TORSDOF 2
ENDMDL
MODEL 8
REMARK VINA RESULT:      -7.4      3.292      5.272
REMARK  Name = 
REMARK  3 active torsions:
REMARK  status: ('A' for Active; 'I' for Inactive)
REMARK    1  A    between atoms: C_1  and  C_2
REMARK    2  A    between atoms: C_5  and  C_6
REMARK    3  A    between atoms: N_19  and  C_20
REMARK                            x       y       z     vdW  Elec       q    Type
REMARK                         _______ _______ _______ _____ _____    ______ ____
ROOT
ATOM      1  C   UNL     1       0.936  11.460  18.931  0.00  0.00    +0.000 C 
ATOM      2  O   UNL     1      -0.247  11.710  18.721  0.00  0.00    +0.000 OA
ATOM      3  N   UNL     1       1.963  12.369  19.038  0.00  0.00    +0.000 N 
ATOM      4  C   UNL     1       1.791  13.750  18.916  0.00  0.00    +0.000 A 
ATOM      5  N   UNL     1       0.568  14.367  18.917  0.00  0.00    +0.000 NA
ATOM      6  C   UNL     1       0.409  15.711  18.737  0.00  0.00    +0.000 A 
ATOM      7  C   UNL     1      -0.884  16.205  18.730  0.00  0.00    +0.000 A 
ATOM      8  C   UNL     1      -1.167  17.562  18.519  0.00  0.00    +0.000 A 
ATOM      9  C   UNL     1      -0.136  18.474  18.310  0.00  0.00    +0.000 A 
ATOM     10  C   UNL     1       1.185  18.035  18.325  0.00  0.00    +0.000 A 
ATOM     11  C   UNL     1       1.453  16.661  18.542  0.00  0.00    +0.000 A 
ATOM     12  C   UNL     1       2.704  16.006  18.585  0.00  0.00    +0.000 A 
ATOM     13  C   UNL     1       3.949  16.564  18.449  0.00  0.00    +0.000 A 
ATOM     14  N   UNL     1       4.845  15.516  18.509  0.00  0.00    +0.000 N 
ATOM     15  N   UNL     1       4.223  14.318  18.702  0.00  0.00    +0.000 NA
ATOM     16  C   UNL     1       2.909  14.599  18.757  0.00  0.00    +0.000 A 
ATOM     17  H   UNL     1       2.925  12.056  19.047  0.00  0.00    +0.000 HD
ENDROOT
BRANCH   1  22
ATOM     18  C   UNL     1       2.619   5.951  19.498  0.00  0.00    +0.000 C 
ATOM     19  C   UNL     1       2.153   7.367  19.327  0.00  0.00    +0.000 A 
ATOM     20  C   UNL     1       1.568   8.054  20.396  0.00  0.00    +0.000 A 
ATOM     21  C   UNL     1       1.164   9.380  20.241  0.00  0.00    +0.000 A 
ATOM     22  C   UNL     1       1.328  10.030  19.012  0.00  0.00    +0.000 A 
ATOM     23  C   UNL     1       1.906   9.351  17.936  0.00  0.00    +0.000 A 
ATOM     24  C   UNL     1       2.317   8.024  18.097  0.00  0.00    +0.000 A 
ENDBRANCH   1  22
BRANCH  14  25
ATOM     25  C   UNL     1       6.261  15.571  18.370  0.00  0.00    +0.000 A 
ATOM     26  C   UNL     1       6.994  14.452  17.951  0.00  0.00    +0.000 A 
ATOM     27  C   UNL     1       8.387  14.528  17.855  0.00  0.00    +0.000 A 
ATOM     28  C   UNL     1       9.053  15.709  18.180  0.00  0.00    +0.000 A 
ATOM     29  C   UNL     1       8.329  16.826  18.588  0.00  0.00    +0.000 A 
ATOM     30  C   UNL     1       6.937  16.764  18.675  0.00  0.00    +0.000 A 
ENDBRANCH  14  25
TORSDOF 2
ENDMDL
MODEL 9
REMARK VINA RESULT:      -7.4      4.428      7.295
REMARK  Name = 
REMARK  3 active torsions:
REMARK  status: ('A' for Active; 'I' for Inactive)
REMARK    1  A    between atoms: C_1  and  C_2
REMARK    2  A    between atoms: C_5  and  C_6
REMARK    3  A    between atoms: N_19  and  C_20
REMARK                            x       y       z     vdW  Elec       q    Type
REMARK                         _______ _______ _______ _____ _____    ______ ____
ROOT
ATOM      1  C   UNL     1       5.584  15.125  18.280  0.00  0.00    +0.000 C 
ATOM      2  O   UNL     1       5.652  16.279  17.870  0.00  0.00    +0.000 OA
ATOM      3  N   UNL     1       4.442  14.445  18.639  0.00  0.00    +0.000 N 
ATOM      4  C   UNL     1       3.161  14.998  18.581  0.00  0.00    +0.000 A 
ATOM      5  N   UNL     1       2.869  16.176  17.946  0.00  0.00    +0.000 NA
ATOM      6  C   UNL     1       1.625  16.738  17.948  0.00  0.00    +0.000 A 
ATOM      7  C   UNL     1       1.469  17.947  17.293  0.00  0.00    +0.000 A 
ATOM      8  C   UNL     1       0.245  18.630  17.260  0.00  0.00    +0.000 A 
ATOM      9  C   UNL     1      -0.875  18.101  17.895  0.00  0.00    +0.000 A 
ATOM     10  C   UNL     1      -0.781  16.879  18.554  0.00  0.00    +0.000 A 
ATOM     11  C   UNL     1       0.463  16.201  18.575  0.00  0.00    +0.000 A 
ATOM     12  C   UNL     1       0.781  14.968  19.188  0.00  0.00    +0.000 A 
ATOM     13  C   UNL     1      -0.056  14.136  19.884  0.00  0.00    +0.000 A 
ATOM     14  N   UNL     1       0.729  13.093  20.331  0.00  0.00    +0.000 N 
ATOM     15  N   UNL     1       2.025  13.214  19.927  0.00  0.00    +0.000 NA
ATOM     16  C   UNL     1       2.076  14.357  19.219  0.00  0.00    +0.000 A 
ATOM     17  H   UNL     1       4.506  13.557  19.120  0.00  0.00    +0.000 HD
ENDROOT
BRANCH   1  22
ATOM     18  C   UNL     1      10.691  12.542  19.144  0.00  0.00    +0.000 C 
ATOM     19  C   UNL     1       9.349  13.176  18.925  0.00  0.00    +0.000 A 
ATOM     20  C   UNL     1       8.807  14.038  19.884  0.00  0.00    +0.000 A 
ATOM     21  C   UNL     1       7.573  14.649  19.662  0.00  0.00    +0.000 A 
ATOM     22  C   UNL     1       6.861  14.395  18.484  0.00  0.00    +0.000 A 
ATOM     23  C   UNL     1       7.390  13.530  17.522  0.00  0.00    +0.000 A 
ATOM     24  C   UNL     1       8.631  12.925  17.745  0.00  0.00    +0.000 A 
ENDBRANCH   1  22
BRANCH  14  25
ATOM     25  C   UNL     1       0.334  11.990  21.142  0.00  0.00    +0.000 A 
ATOM     26  C   UNL     1       0.834  10.702  20.910  0.00  0.00    +0.000 A 
ATOM     27  C   UNL     1       0.404   9.633  21.703  0.00  0.00    +0.000 A 
ATOM     28  C   UNL     1      -0.526   9.842  22.721  0.00  0.00    +0.000 A 
ATOM     29  C   UNL     1      -1.018  11.121  22.963  0.00  0.00    +0.000 A 
ATOM     30  C   UNL     1      -0.586  12.196  22.184  0.00  0.00    +0.000 A 
ENDBRANCH  14  25
TORSDOF 2
ENDMDL
