MODEL 1
REMARK VINA RESULT:      -7.9      0.000      0.000
REMARK  Name = 
REMARK  6 active torsions:
REMARK  status: ('A' for Active; 'I' for Inactive)
REMARK    1  A    between atoms: C_1  and  O_2
REMARK    2  A    between atoms: O_2  and  C_3
REMARK    3  A    between atoms: C_8  and  C_9
REMARK    4  A    between atoms: C_11  and  O_12
REMARK    5  A    between atoms: C_14  and  O_15
REMARK    6  A    between atoms: C_17  and  C_18
REMARK                            x       y       z     vdW  Elec       q    Type
REMARK                         _______ _______ _______ _____ _____    ______ ____
ROOT
ATOM      1  C   UNL     1       5.222   3.329  12.201  0.00  0.00    +0.000 A 
ATOM      2  C   UNL     1       6.436   3.698  11.644  0.00  0.00    +0.000 A 
ATOM      3  C   UNL     1       7.364   4.391  12.424  0.00  0.00    +0.000 A 
ATOM      4  C   UNL     1       6.972   4.664  13.732  0.00  0.00    +0.000 A 
ATOM      5  N   UNL     1       7.599   5.326  14.753  0.00  0.00    +0.000 N 
ATOM      6  C   UNL     1       6.816   5.359  15.900  0.00  0.00    +0.000 A 
ATOM      7  C   UNL     1       5.641   4.657  15.593  0.00  0.00    +0.000 A 
ATOM      8  C   UNL     1       5.744   4.248  14.224  0.00  0.00    +0.000 A 
ATOM      9  N   UNL     1       4.846   3.569  13.472  0.00  0.00    +0.000 NA
ATOM     10  H   UNL     1       8.509   5.762  14.676  0.00  0.00    +0.000 HD
ENDROOT
BRANCH   6  11
ATOM     11  C   UNL     1       7.295   6.029  17.118  0.00  0.00    +0.000 A 
ATOM     12  C   UNL     1       7.546   5.303  18.291  0.00  0.00    +0.000 A 
ATOM     13  C   UNL     1       8.177   5.915  19.373  0.00  0.00    +0.000 A 
ATOM     14  C   UNL     1       8.479   7.270  19.354  0.00  0.00    +0.000 A 
ATOM     15  C   UNL     1       8.155   8.010  18.224  0.00  0.00    +0.000 A 
ATOM     16  C   UNL     1       7.581   7.402  17.109  0.00  0.00    +0.000 A 
BRANCH  13  17
ATOM     17  O   UNL     1       8.554   5.195  20.470  0.00  0.00    +0.000 OA
ATOM     18  H   UNL     1       8.016   4.385  20.509  0.00  0.00    +0.000 HD
ENDBRANCH  13  17
BRANCH  15  19
ATOM     19  O   UNL     1       8.414   9.347  18.151  0.00  0.00    +0.000 OA
ATOM     20  H   UNL     1       9.158   9.549  18.743  0.00  0.00    +0.000 HD
ENDBRANCH  15  19
ENDBRANCH   6  11
BRANCH   7  21
ATOM     21  C   UNL     1       4.512   4.418  16.498  0.00  0.00    +0.000 A 
ATOM     22  C   UNL     1       3.855   5.499  17.096  0.00  0.00    +0.000 A 
ATOM     23  C   UNL     1       2.829   5.247  17.992  0.00  0.00    +0.000 A 
ATOM     24  N   UNL     1       2.432   4.009  18.349  0.00  0.00    +0.000 NA
ATOM     25  C   UNL     1       3.051   2.980  17.737  0.00  0.00    +0.000 A 
ATOM     26  C   UNL     1       4.055   3.133  16.794  0.00  0.00    +0.000 A 
ENDBRANCH   7  21
BRANCH   1  28
ATOM     27  C   UNL     1       3.575   3.563  10.557  0.00  0.00    +0.000 C 
ATOM     28  O   UNL     1       4.345   2.669  11.357  0.00  0.00    +0.000 OA
ENDBRANCH   1  28
TORSDOF 5
ENDMDL
MODEL 2
REMARK VINA RESULT:      -7.6      4.119      5.813
REMARK  Name = 
REMARK  6 active torsions:
REMARK  status: ('A' for Active; 'I' for Inactive)
REMARK    1  A    between atoms: C_1  and  O_2
REMARK    2  A    between atoms: O_2  and  C_3
REMARK    3  A    between atoms: C_8  and  C_9
REMARK    4  A    between atoms: C_11  and  O_12
REMARK    5  A    between atoms: C_14  and  O_15
REMARK    6  A    between atoms: C_17  and  C_18
REMARK                            x       y       z     vdW  Elec       q    Type
REMARK                         _______ _______ _______ _____ _____    ______ ____
ROOT
ATOM      1  C   UNL     1       5.249   4.661  16.166  0.00  0.00    +0.000 A 
ATOM      2  C   UNL     1       5.650   5.849  15.576  0.00  0.00    +0.000 A 
ATOM      3  C   UNL     1       5.096   7.052  16.017  0.00  0.00    +0.000 A 
ATOM      4  C   UNL     1       4.154   6.948  17.039  0.00  0.00    +0.000 A 
ATOM      5  N   UNL     1       3.406   7.890  17.691  0.00  0.00    +0.000 N 
ATOM      6  C   UNL     1       2.585   7.317  18.653  0.00  0.00    +0.000 A 
ATOM      7  C   UNL     1       2.847   5.940  18.622  0.00  0.00    +0.000 A 
ATOM      8  C   UNL     1       3.816   5.721  17.590  0.00  0.00    +0.000 A 
ATOM      9  N   UNL     1       4.357   4.554  17.170  0.00  0.00    +0.000 NA
ATOM     10  H   UNL     1       3.429   8.880  17.481  0.00  0.00    +0.000 HD
ENDROOT
BRANCH   6  11
ATOM     11  C   UNL     1       1.688   8.150  19.468  0.00  0.00    +0.000 A 
ATOM     12  C   UNL     1       1.777   8.152  20.868  0.00  0.00    +0.000 A 
ATOM     13  C   UNL     1       1.056   9.082  21.615  0.00  0.00    +0.000 A 
ATOM     14  C   UNL     1       0.166   9.956  21.006  0.00  0.00    +0.000 A 
ATOM     15  C   UNL     1       0.015   9.899  19.627  0.00  0.00    +0.000 A 
ATOM     16  C   UNL     1       0.773   9.019  18.857  0.00  0.00    +0.000 A 
BRANCH  13  17
ATOM     17  O   UNL     1       1.232   9.190  22.965  0.00  0.00    +0.000 OA
ATOM     18  H   UNL     1       1.612   8.359  23.297  0.00  0.00    +0.000 HD
ENDBRANCH  13  17
BRANCH  15  19
ATOM     19  O   UNL     1      -0.854  10.722  18.973  0.00  0.00    +0.000 OA
ATOM     20  H   UNL     1      -0.594  11.643  19.144  0.00  0.00    +0.000 HD
ENDBRANCH  15  19
ENDBRANCH   6  11
BRANCH   7  21
ATOM     21  C   UNL     1       2.220   4.919  19.469  0.00  0.00    +0.000 A 
ATOM     22  C   UNL     1       2.621   4.775  20.802  0.00  0.00    +0.000 A 
ATOM     23  C   UNL     1       2.057   3.767  21.566  0.00  0.00    +0.000 A 
ATOM     24  N   UNL     1       1.151   2.886  21.095  0.00  0.00    +0.000 NA
ATOM     25  C   UNL     1       0.750   3.061  19.820  0.00  0.00    +0.000 A 
ATOM     26  C   UNL     1       1.222   4.067  18.993  0.00  0.00    +0.000 A 
ENDBRANCH   7  21
BRANCH   1  28
ATOM     27  C   UNL     1       6.256   3.661  14.307  0.00  0.00    +0.000 C 
ATOM     28  O   UNL     1       5.823   3.508  15.656  0.00  0.00    +0.000 OA
ENDBRANCH   1  28
TORSDOF 5
ENDMDL
MODEL 3
REMARK VINA RESULT:      -7.5      3.579      6.744
REMARK  Name = 
REMARK  6 active torsions:
REMARK  status: ('A' for Active; 'I' for Inactive)
REMARK    1  A    between atoms: C_1  and  O_2
REMARK    2  A    between atoms: O_2  and  C_3
REMARK    3  A    between atoms: C_8  and  C_9
REMARK    4  A    between atoms: C_11  and  O_12
REMARK    5  A    between atoms: C_14  and  O_15
REMARK    6  A    between atoms: C_17  and  C_18
REMARK                            x       y       z     vdW  Elec       q    Type
REMARK                         _______ _______ _______ _____ _____    ______ ____
ROOT
ATOM      1  C   UNL     1       0.666   9.241  19.742  0.00  0.00    +0.000 A 
ATOM      2  C   UNL     1       1.184  10.206  18.894  0.00  0.00    +0.000 A 
ATOM      3  C   UNL     1       2.220   9.865  18.023  0.00  0.00    +0.000 A 
ATOM      4  C   UNL     1       2.659   8.544  18.089  0.00  0.00    +0.000 A 
ATOM      5  N   UNL     1       3.645   7.875  17.417  0.00  0.00    +0.000 N 
ATOM      6  C   UNL     1       3.730   6.548  17.819  0.00  0.00    +0.000 A 
ATOM      7  C   UNL     1       2.726   6.365  18.780  0.00  0.00    +0.000 A 
ATOM      8  C   UNL     1       2.078   7.630  18.956  0.00  0.00    +0.000 A 
ATOM      9  N   UNL     1       1.069   7.956  19.796  0.00  0.00    +0.000 NA
ATOM     10  H   UNL     1       4.256   8.300  16.730  0.00  0.00    +0.000 HD
ENDROOT
BRANCH   6  11
ATOM     11  C   UNL     1       4.730   5.647  17.227  0.00  0.00    +0.000 A 
ATOM     12  C   UNL     1       4.594   5.178  15.912  0.00  0.00    +0.000 A 
ATOM     13  C   UNL     1       5.638   4.484  15.303  0.00  0.00    +0.000 A 
ATOM     14  C   UNL     1       6.788   4.155  16.009  0.00  0.00    +0.000 A 
ATOM     15  C   UNL     1       6.889   4.546  17.337  0.00  0.00    +0.000 A 
ATOM     16  C   UNL     1       5.883   5.295  17.944  0.00  0.00    +0.000 A 
BRANCH  13  17
ATOM     17  O   UNL     1       5.580   4.139  13.984  0.00  0.00    +0.000 OA
ATOM     18  H   UNL     1       4.755   4.488  13.607  0.00  0.00    +0.000 HD
ENDBRANCH  13  17
BRANCH  15  19
ATOM     19  O   UNL     1       7.988   4.241  18.086  0.00  0.00    +0.000 OA
ATOM     20  H   UNL     1       8.773   4.284  17.514  0.00  0.00    +0.000 HD
ENDBRANCH  15  19
ENDBRANCH   6  11
BRANCH   7  21
ATOM     21  C   UNL     1       2.422   5.117  19.489  0.00  0.00    +0.000 A 
ATOM     22  C   UNL     1       1.961   4.004  18.779  0.00  0.00    +0.000 A 
ATOM     23  C   UNL     1       1.626   2.855  19.477  0.00  0.00    +0.000 A 
ATOM     24  N   UNL     1       1.694   2.746  20.819  0.00  0.00    +0.000 NA
ATOM     25  C   UNL     1       2.173   3.816  21.485  0.00  0.00    +0.000 A 
ATOM     26  C   UNL     1       2.577   4.990  20.871  0.00  0.00    +0.000 A 
ENDBRANCH   7  21
BRANCH   1  28
ATOM     27  C   UNL     1      -0.399   8.897  21.796  0.00  0.00    +0.000 C 
ATOM     28  O   UNL     1      -0.340   9.662  20.596  0.00  0.00    +0.000 OA
ENDBRANCH   1  28
TORSDOF 5
ENDMDL
MODEL 4
REMARK VINA RESULT:      -7.5      0.197      1.664
REMARK  Name = 
REMARK  6 active torsions:
REMARK  status: ('A' for Active; 'I' for Inactive)
REMARK    1  A    between atoms: C_1  and  O_2
REMARK    2  A    between atoms: O_2  and  C_3
REMARK    3  A    between atoms: C_8  and  C_9
REMARK    4  A    between atoms: C_11  and  O_12
REMARK    5  A    between atoms: C_14  and  O_15
REMARK    6  A    between atoms: C_17  and  C_18
REMARK                            x       y       z     vdW  Elec       q    Type
REMARK                         _______ _______ _______ _____ _____    ______ ____
ROOT
ATOM      1  C   UNL     1       5.051   3.341  12.200  0.00  0.00    +0.000 A 
ATOM      2  C   UNL     1       6.267   3.621  11.598  0.00  0.00    +0.000 A 
ATOM      3  C   UNL     1       7.262   4.266  12.333  0.00  0.00    +0.000 A 
ATOM      4  C   UNL     1       6.933   4.588  13.648  0.00  0.00    +0.000 A 
ATOM      5  N   UNL     1       7.633   5.227  14.635  0.00  0.00    +0.000 N 
ATOM      6  C   UNL     1       6.892   5.330  15.805  0.00  0.00    +0.000 A 
ATOM      7  C   UNL     1       5.666   4.700  15.549  0.00  0.00    +0.000 A 
ATOM      8  C   UNL     1       5.697   4.261  14.186  0.00  0.00    +0.000 A 
ATOM      9  N   UNL     1       4.733   3.628  13.478  0.00  0.00    +0.000 NA
ATOM     10  H   UNL     1       8.567   5.602  14.520  0.00  0.00    +0.000 HD
ENDROOT
BRANCH   6  11
ATOM     11  C   UNL     1       7.453   5.990  16.993  0.00  0.00    +0.000 A 
ATOM     12  C   UNL     1       7.760   7.359  16.983  0.00  0.00    +0.000 A 
ATOM     13  C   UNL     1       8.110   8.008  18.166  0.00  0.00    +0.000 A 
ATOM     14  C   UNL     1       8.257   7.304  19.354  0.00  0.00    +0.000 A 
ATOM     15  C   UNL     1       8.034   5.934  19.348  0.00  0.00    +0.000 A 
ATOM     16  C   UNL     1       7.624   5.278  18.189  0.00  0.00    +0.000 A 
BRANCH  13  17
ATOM     17  O   UNL     1       8.279   9.362  18.203  0.00  0.00    +0.000 OA
ATOM     18  H   UNL     1       8.008   9.685  19.080  0.00  0.00    +0.000 HD
ENDBRANCH  13  17
BRANCH  15  19
ATOM     19  O   UNL     1       8.177   5.186  20.480  0.00  0.00    +0.000 OA
ATOM     20  H   UNL     1       7.387   4.628  20.582  0.00  0.00    +0.000 HD
ENDBRANCH  15  19
ENDBRANCH   6  11
BRANCH   7  21
ATOM     21  C   UNL     1       4.554   4.551  16.495  0.00  0.00    +0.000 A 
ATOM     22  C   UNL     1       3.967   5.684  17.068  0.00  0.00    +0.000 A 
ATOM     23  C   UNL     1       2.958   5.516  18.001  0.00  0.00    +0.000 A 
ATOM     24  N   UNL     1       2.514   4.314  18.418  0.00  0.00    +0.000 NA
ATOM     25  C   UNL     1       3.066   3.233  17.831  0.00  0.00    +0.000 A 
ATOM     26  C   UNL     1       4.047   3.301  16.855  0.00  0.00    +0.000 A 
ENDBRANCH   7  21
BRANCH   1  28
ATOM     27  C   UNL     1       3.496   3.623  10.477  0.00  0.00    +0.000 C 
ATOM     28  O   UNL     1       4.106   2.724  11.399  0.00  0.00    +0.000 OA
ENDBRANCH   1  28
TORSDOF 5
ENDMDL
MODEL 5
REMARK VINA RESULT:      -7.5      2.438      6.469
REMARK  Name = 
REMARK  6 active torsions:
REMARK  status: ('A' for Active; 'I' for Inactive)
REMARK    1  A    between atoms: C_1  and  O_2
REMARK    2  A    between atoms: O_2  and  C_3
REMARK    3  A    between atoms: C_8  and  C_9
REMARK    4  A    between atoms: C_11  and  O_12
REMARK    5  A    between atoms: C_14  and  O_15
REMARK    6  A    between atoms: C_17  and  C_18
REMARK                            x       y       z     vdW  Elec       q    Type
REMARK                         _______ _______ _______ _____ _____    ______ ____
ROOT
ATOM      1  C   UNL     1       2.718   3.890  19.977  0.00  0.00    +0.000 A 
ATOM      2  C   UNL     1       1.937   2.968  19.301  0.00  0.00    +0.000 A 
ATOM      3  C   UNL     1       2.233   2.665  17.971  0.00  0.00    +0.000 A 
ATOM      4  C   UNL     1       3.318   3.344  17.421  0.00  0.00    +0.000 A 
ATOM      5  N   UNL     1       3.873   3.318  16.171  0.00  0.00    +0.000 N 
ATOM      6  C   UNL     1       4.960   4.178  16.075  0.00  0.00    +0.000 A 
ATOM      7  C   UNL     1       5.114   4.759  17.341  0.00  0.00    +0.000 A 
ATOM      8  C   UNL     1       4.064   4.244  18.168  0.00  0.00    +0.000 A 
ATOM      9  N   UNL     1       3.784   4.533  19.460  0.00  0.00    +0.000 NA
ATOM     10  H   UNL     1       3.520   2.762  15.402  0.00  0.00    +0.000 HD
ENDROOT
BRANCH   6  11
ATOM     11  C   UNL     1       5.702   4.312  14.812  0.00  0.00    +0.000 A 
ATOM     12  C   UNL     1       6.796   5.183  14.706  0.00  0.00    +0.000 A 
ATOM     13  C   UNL     1       7.603   5.160  13.569  0.00  0.00    +0.000 A 
ATOM     14  C   UNL     1       7.290   4.353  12.484  0.00  0.00    +0.000 A 
ATOM     15  C   UNL     1       6.159   3.550  12.554  0.00  0.00    +0.000 A 
ATOM     16  C   UNL     1       5.376   3.514  13.706  0.00  0.00    +0.000 A 
BRANCH  13  17
ATOM     17  O   UNL     1       8.749   5.900  13.503  0.00  0.00    +0.000 OA
ATOM     18  H   UNL     1       8.541   6.759  13.097  0.00  0.00    +0.000 HD
ENDBRANCH  13  17
BRANCH  15  19
ATOM     19  O   UNL     1       5.792   2.746  11.516  0.00  0.00    +0.000 OA
ATOM     20  H   UNL     1       4.834   2.594  11.568  0.00  0.00    +0.000 HD
ENDBRANCH  15  19
ENDBRANCH   6  11
BRANCH   7  21
ATOM     21  C   UNL     1       6.140   5.732  17.730  0.00  0.00    +0.000 A 
ATOM     22  C   UNL     1       6.116   7.024  17.195  0.00  0.00    +0.000 A 
ATOM     23  C   UNL     1       7.128   7.908  17.532  0.00  0.00    +0.000 A 
ATOM     24  N   UNL     1       8.164   7.592  18.334  0.00  0.00    +0.000 NA
ATOM     25  C   UNL     1       8.154   6.355  18.869  0.00  0.00    +0.000 A 
ATOM     26  C   UNL     1       7.162   5.418  18.628  0.00  0.00    +0.000 A 
ENDBRANCH   7  21
BRANCH   1  28
ATOM     27  C   UNL     1       1.755   3.032  21.927  0.00  0.00    +0.000 C 
ATOM     28  O   UNL     1       2.346   4.157  21.284  0.00  0.00    +0.000 OA
ENDBRANCH   1  28
TORSDOF 5
ENDMDL
MODEL 6
REMARK VINA RESULT:      -7.4      2.429      6.439
REMARK  Name = 
REMARK  6 active torsions:
REMARK  status: ('A' for Active; 'I' for Inactive)
REMARK    1  A    between atoms: C_1  and  O_2
REMARK    2  A    between atoms: O_2  and  C_3
REMARK    3  A    between atoms: C_8  and  C_9
REMARK    4  A    between atoms: C_11  and  O_12
REMARK    5  A    between atoms: C_14  and  O_15
REMARK    6  A    between atoms: C_17  and  C_18
REMARK                            x       y       z     vdW  Elec       q    Type
REMARK                         _______ _______ _______ _____ _____    ______ ____
ROOT
ATOM      1  C   UNL     1       2.682   4.151  19.852  0.00  0.00    +0.000 A 
ATOM      2  C   UNL     1       1.887   3.223  19.199  0.00  0.00    +0.000 A 
ATOM      3  C   UNL     1       2.220   2.829  17.902  0.00  0.00    +0.000 A 
ATOM      4  C   UNL     1       3.355   3.427  17.359  0.00  0.00    +0.000 A 
ATOM      5  N   UNL     1       3.956   3.303  16.136  0.00  0.00    +0.000 N 
ATOM      6  C   UNL     1       5.084   4.107  16.035  0.00  0.00    +0.000 A 
ATOM      7  C   UNL     1       5.215   4.757  17.271  0.00  0.00    +0.000 A 
ATOM      8  C   UNL     1       4.111   4.338  18.082  0.00  0.00    +0.000 A 
ATOM      9  N   UNL     1       3.795   4.716  19.343  0.00  0.00    +0.000 NA
ATOM     10  H   UNL     1       3.609   2.717  15.387  0.00  0.00    +0.000 HD
ENDROOT
BRANCH   6  11
ATOM     11  C   UNL     1       5.879   4.134  14.798  0.00  0.00    +0.000 A 
ATOM     12  C   UNL     1       5.495   3.386  13.675  0.00  0.00    +0.000 A 
ATOM     13  C   UNL     1       6.147   3.566  12.456  0.00  0.00    +0.000 A 
ATOM     14  C   UNL     1       7.244   4.410  12.348  0.00  0.00    +0.000 A 
ATOM     15  C   UNL     1       7.678   5.088  13.479  0.00  0.00    +0.000 A 
ATOM     16  C   UNL     1       7.001   4.968  14.691  0.00  0.00    +0.000 A 
BRANCH  13  17
ATOM     17  O   UNL     1       5.702   2.951  11.322  0.00  0.00    +0.000 OA
ATOM     18  H   UNL     1       5.812   3.562  10.573  0.00  0.00    +0.000 HD
ENDBRANCH  13  17
BRANCH  15  19
ATOM     19  O   UNL     1       8.758   5.920  13.438  0.00  0.00    +0.000 OA
ATOM     20  H   UNL     1       9.563   5.377  13.394  0.00  0.00    +0.000 HD
ENDBRANCH  15  19
ENDBRANCH   6  11
BRANCH   7  21
ATOM     21  C   UNL     1       6.268   5.707  17.644  0.00  0.00    +0.000 A 
ATOM     22  C   UNL     1       7.245   5.338  18.574  0.00  0.00    +0.000 A 
ATOM     23  C   UNL     1       8.195   6.271  18.954  0.00  0.00    +0.000 A 
ATOM     24  N   UNL     1       8.226   7.539  18.497  0.00  0.00    +0.000 NA
ATOM     25  C   UNL     1       7.300   7.868  17.575  0.00  0.00    +0.000 A 
ATOM     26  C   UNL     1       6.339   6.991  17.099  0.00  0.00    +0.000 A 
ENDBRANCH   7  21
BRANCH   1  28
ATOM     27  C   UNL     1       1.970   3.386  21.943  0.00  0.00    +0.000 C 
ATOM     28  O   UNL     1       2.272   4.512  21.124  0.00  0.00    +0.000 OA
ENDBRANCH   1  28
TORSDOF 5
ENDMDL
MODEL 7
REMARK VINA RESULT:      -7.4      3.449      6.569
REMARK  Name = 
REMARK  6 active torsions:
REMARK  status: ('A' for Active; 'I' for Inactive)
REMARK    1  A    between atoms: C_1  and  O_2
REMARK    2  A    between atoms: O_2  and  C_3
REMARK    3  A    between atoms: C_8  and  C_9
REMARK    4  A    between atoms: C_11  and  O_12
REMARK    5  A    between atoms: C_14  and  O_15
REMARK    6  A    between atoms: C_17  and  C_18
REMARK                            x       y       z     vdW  Elec       q    Type
REMARK                         _______ _______ _______ _____ _____    ______ ____
ROOT
ATOM      1  C   UNL     1       0.857   9.110  19.554  0.00  0.00    +0.000 A 
ATOM      2  C   UNL     1       1.426  10.102  18.772  0.00  0.00    +0.000 A 
ATOM      3  C   UNL     1       2.476   9.776  17.911  0.00  0.00    +0.000 A 
ATOM      4  C   UNL     1       2.875   8.442  17.919  0.00  0.00    +0.000 A 
ATOM      5  N   UNL     1       3.860   7.779  17.238  0.00  0.00    +0.000 N 
ATOM      6  C   UNL     1       3.895   6.431  17.571  0.00  0.00    +0.000 A 
ATOM      7  C   UNL     1       2.859   6.227  18.494  0.00  0.00    +0.000 A 
ATOM      8  C   UNL     1       2.244   7.501  18.720  0.00  0.00    +0.000 A 
ATOM      9  N   UNL     1       1.221   7.813  19.549  0.00  0.00    +0.000 NA
ATOM     10  H   UNL     1       4.502   8.221  16.591  0.00  0.00    +0.000 HD
ENDROOT
BRANCH   6  11
ATOM     11  C   UNL     1       4.885   5.532  16.959  0.00  0.00    +0.000 A 
ATOM     12  C   UNL     1       4.723   5.063  15.647  0.00  0.00    +0.000 A 
ATOM     13  C   UNL     1       5.756   4.371  15.017  0.00  0.00    +0.000 A 
ATOM     14  C   UNL     1       6.921   4.045  15.698  0.00  0.00    +0.000 A 
ATOM     15  C   UNL     1       7.049   4.437  17.024  0.00  0.00    +0.000 A 
ATOM     16  C   UNL     1       6.053   5.183  17.652  0.00  0.00    +0.000 A 
BRANCH  13  17
ATOM     17  O   UNL     1       5.672   4.026  13.699  0.00  0.00    +0.000 OA
ATOM     18  H   UNL     1       5.047   3.286  13.610  0.00  0.00    +0.000 HD
ENDBRANCH  13  17
BRANCH  15  19
ATOM     19  O   UNL     1       8.164   4.135  17.750  0.00  0.00    +0.000 OA
ATOM     20  H   UNL     1       8.754   4.907  17.744  0.00  0.00    +0.000 HD
ENDBRANCH  15  19
ENDBRANCH   6  11
BRANCH   7  21
ATOM     21  C   UNL     1       2.500   4.954  19.127  0.00  0.00    +0.000 A 
ATOM     22  C   UNL     1       2.773   4.747  20.483  0.00  0.00    +0.000 A 
ATOM     23  C   UNL     1       2.478   3.516  21.046  0.00  0.00    +0.000 A 
ATOM     24  N   UNL     1       1.959   2.481  20.356  0.00  0.00    +0.000 NA
ATOM     25  C   UNL     1       1.670   2.708  19.059  0.00  0.00    +0.000 A 
ATOM     26  C   UNL     1       1.886   3.919  18.421  0.00  0.00    +0.000 A 
ENDBRANCH   7  21
BRANCH   1  28
ATOM     27  C   UNL     1       0.164   9.330  21.776  0.00  0.00    +0.000 C 
ATOM     28  O   UNL     1      -0.160   9.516  20.401  0.00  0.00    +0.000 OA
ENDBRANCH   1  28
TORSDOF 5
ENDMDL
MODEL 8
REMARK VINA RESULT:      -7.3      3.496      6.492
REMARK  Name = 
REMARK  6 active torsions:
REMARK  status: ('A' for Active; 'I' for Inactive)
REMARK    1  A    between atoms: C_1  and  O_2
REMARK    2  A    between atoms: O_2  and  C_3
REMARK    3  A    between atoms: C_8  and  C_9
REMARK    4  A    between atoms: C_11  and  O_12
REMARK    5  A    between atoms: C_14  and  O_15
REMARK    6  A    between atoms: C_17  and  C_18
REMARK                            x       y       z     vdW  Elec       q    Type
REMARK                         _______ _______ _______ _____ _____    ______ ____
ROOT
ATOM      1  C   UNL     1       0.720   9.222  19.497  0.00  0.00    +0.000 A 
ATOM      2  C   UNL     1       1.265  10.266  18.768  0.00  0.00    +0.000 A 
ATOM      3  C   UNL     1       2.357  10.021  17.933  0.00  0.00    +0.000 A 
ATOM      4  C   UNL     1       2.820   8.707  17.910  0.00  0.00    +0.000 A 
ATOM      5  N   UNL     1       3.858   8.117  17.242  0.00  0.00    +0.000 N 
ATOM      6  C   UNL     1       3.949   6.761  17.531  0.00  0.00    +0.000 A 
ATOM      7  C   UNL     1       2.895   6.477  18.412  0.00  0.00    +0.000 A 
ATOM      8  C   UNL     1       2.211   7.711  18.658  0.00  0.00    +0.000 A 
ATOM      9  N   UNL     1       1.148   7.944  19.462  0.00  0.00    +0.000 NA
ATOM     10  H   UNL     1       4.498   8.610  16.632  0.00  0.00    +0.000 HD
ENDROOT
BRANCH   6  11
ATOM     11  C   UNL     1       5.001   5.932  16.924  0.00  0.00    +0.000 A 
ATOM     12  C   UNL     1       6.123   5.532  17.665  0.00  0.00    +0.000 A 
ATOM     13  C   UNL     1       7.012   4.595  17.140  0.00  0.00    +0.000 A 
ATOM     14  C   UNL     1       6.865   4.115  15.845  0.00  0.00    +0.000 A 
ATOM     15  C   UNL     1       5.801   4.574  15.080  0.00  0.00    +0.000 A 
ATOM     16  C   UNL     1       4.867   5.462  15.610  0.00  0.00    +0.000 A 
BRANCH  13  17
ATOM     17  O   UNL     1       8.031   4.091  17.894  0.00  0.00    +0.000 OA
ATOM     18  H   UNL     1       7.777   4.138  18.832  0.00  0.00    +0.000 HD
ENDBRANCH  13  17
BRANCH  15  19
ATOM     19  O   UNL     1       5.612   4.149  13.798  0.00  0.00    +0.000 OA
ATOM     20  H   UNL     1       5.328   3.220  13.820  0.00  0.00    +0.000 HD
ENDBRANCH  15  19
ENDBRANCH   6  11
BRANCH   7  21
ATOM     21  C   UNL     1       2.579   5.167  18.991  0.00  0.00    +0.000 A 
ATOM     22  C   UNL     1       1.962   4.187  18.206  0.00  0.00    +0.000 A 
ATOM     23  C   UNL     1       1.621   2.978  18.790  0.00  0.00    +0.000 A 
ATOM     24  N   UNL     1       1.825   2.688  20.091  0.00  0.00    +0.000 NA
ATOM     25  C   UNL     1       2.452   3.630  20.824  0.00  0.00    +0.000 A 
ATOM     26  C   UNL     1       2.872   4.849  20.318  0.00  0.00    +0.000 A 
ENDBRANCH   7  21
BRANCH   1  28
ATOM     27  C   UNL     1      -0.283   8.886  21.582  0.00  0.00    +0.000 C 
ATOM     28  O   UNL     1      -0.342   9.549  20.322  0.00  0.00    +0.000 OA
ENDBRANCH   1  28
TORSDOF 5
ENDMDL
MODEL 9
REMARK VINA RESULT:      -7.2      3.548      6.630
REMARK  Name = 
REMARK  6 active torsions:
REMARK  status: ('A' for Active; 'I' for Inactive)
REMARK    1  A    between atoms: C_1  and  O_2
REMARK    2  A    between atoms: O_2  and  C_3
REMARK    3  A    between atoms: C_8  and  C_9
REMARK    4  A    between atoms: C_11  and  O_12
REMARK    5  A    between atoms: C_14  and  O_15
REMARK    6  A    between atoms: C_17  and  C_18
REMARK                            x       y       z     vdW  Elec       q    Type
REMARK                         _______ _______ _______ _____ _____    ______ ____
ROOT
ATOM      1  C   UNL     1       0.799   8.714  20.093  0.00  0.00    +0.000 A 
ATOM      2  C   UNL     1       1.055   9.734  19.192  0.00  0.00    +0.000 A 
ATOM      3  C   UNL     1       2.019   9.544  18.200  0.00  0.00    +0.000 A 
ATOM      4  C   UNL     1       2.662   8.309  18.208  0.00  0.00    +0.000 A 
ATOM      5  N   UNL     1       3.652   7.789  17.418  0.00  0.00    +0.000 N 
ATOM      6  C   UNL     1       3.989   6.498  17.802  0.00  0.00    +0.000 A 
ATOM      7  C   UNL     1       3.149   6.176  18.877  0.00  0.00    +0.000 A 
ATOM      8  C   UNL     1       2.339   7.329  19.135  0.00  0.00    +0.000 A 
ATOM      9  N   UNL     1       1.400   7.508  20.093  0.00  0.00    +0.000 NA
ATOM     10  H   UNL     1       4.102   8.293  16.664  0.00  0.00    +0.000 HD
ENDROOT
BRANCH   6  11
ATOM     11  C   UNL     1       5.039   5.753  17.090  0.00  0.00    +0.000 A 
ATOM     12  C   UNL     1       6.245   5.421  17.723  0.00  0.00    +0.000 A 
ATOM     13  C   UNL     1       7.147   4.556  17.105  0.00  0.00    +0.000 A 
ATOM     14  C   UNL     1       6.921   4.085  15.819  0.00  0.00    +0.000 A 
ATOM     15  C   UNL     1       5.766   4.479  15.158  0.00  0.00    +0.000 A 
ATOM     16  C   UNL     1       4.823   5.293  15.783  0.00  0.00    +0.000 A 
BRANCH  13  17
ATOM     17  O   UNL     1       8.260   4.113  17.759  0.00  0.00    +0.000 OA
ATOM     18  H   UNL     1       8.000   3.404  18.372  0.00  0.00    +0.000 HD
ENDBRANCH  13  17
BRANCH  15  19
ATOM     19  O   UNL     1       5.495   4.061  13.888  0.00  0.00    +0.000 OA
ATOM     20  H   UNL     1       6.238   4.315  13.315  0.00  0.00    +0.000 HD
ENDBRANCH  15  19
ENDBRANCH   6  11
BRANCH   7  21
ATOM     21  C   UNL     1       3.130   4.907  19.613  0.00  0.00    +0.000 A 
ATOM     22  C   UNL     1       2.343   4.778  20.762  0.00  0.00    +0.000 A 
ATOM     23  C   UNL     1       2.386   3.590  21.473  0.00  0.00    +0.000 A 
ATOM     24  N   UNL     1       3.167   2.543  21.139  0.00  0.00    +0.000 NA
ATOM     25  C   UNL     1       3.892   2.671  20.010  0.00  0.00    +0.000 A 
ATOM     26  C   UNL     1       3.879   3.801  19.209  0.00  0.00    +0.000 A 
ENDBRANCH   7  21
BRANCH   1  28
ATOM     27  C   UNL     1       0.331   9.876  22.068  0.00  0.00    +0.000 C 
ATOM     28  O   UNL     1      -0.150   8.987  21.064  0.00  0.00    +0.000 OA
ENDBRANCH   1  28
TORSDOF 5
ENDMDL
