MODEL 1
REMARK VINA RESULT:      -6.5      0.000      0.000
REMARK  Name = 
REMARK  9 active torsions:
REMARK  status: ('A' for Active; 'I' for Inactive)
REMARK    1  A    between atoms: C_1  and  C_2
REMARK    2  A    between atoms: C_2  and  C_3
REMARK    3  A    between atoms: N_9  and  C_10
REMARK    4  A    between atoms: N_13  and  C_14
REMARK    5  A    between atoms: N_22  and  C_23
REMARK    6  A    between atoms: C_23  and  C_24
REMARK    7  A    between atoms: C_23  and  C_26
REMARK    8  A    between atoms: C_24  and  C_25
REMARK    9  A    between atoms: C_26  and  C_27
REMARK                            x       y       z     vdW  Elec       q    Type
REMARK                         _______ _______ _______ _____ _____    ______ ____
ROOT
ATOM      1  C   UNL     1      -3.062  10.451  17.827  0.00  0.00    +0.000 A 
ATOM      2  N   UNL     1      -1.807  10.101  18.039  0.00  0.00    +0.000 NA
ATOM      3  C   UNL     1      -1.383  10.846  19.083  0.00  0.00    +0.000 A 
ATOM      4  C   UNL     1      -2.383  11.660  19.556  0.00  0.00    +0.000 A 
ATOM      5  C   UNL     1      -2.194  12.437  20.741  0.00  0.00    +0.000 A 
ATOM      6  O   UNL     1      -3.113  12.916  21.395  0.00  0.00    +0.000 OA
ATOM      7  N   UNL     1      -0.856  12.546  21.122  0.00  0.00    +0.000 N 
ATOM      8  C   UNL     1      -0.514  13.472  22.184  0.00  0.00    +0.000 C 
ATOM      9  C   UNL     1       0.178  11.687  20.700  0.00  0.00    +0.000 A 
ATOM     10  O   UNL     1       1.307  11.765  21.187  0.00  0.00    +0.000 OA
ATOM     11  N   UNL     1      -0.150  10.780  19.687  0.00  0.00    +0.000 N 
ATOM     12  N   UNL     1      -3.441  11.498  18.681  0.00  0.00    +0.000 N 
ENDROOT
BRANCH  11  13
ATOM     13  C   UNL     1       0.755   9.764  19.280  0.00  0.00    +0.000 A 
ATOM     14  C   UNL     1       1.413   9.867  18.045  0.00  0.00    +0.000 A 
ATOM     15  C   UNL     1       2.371   8.920  17.665  0.00  0.00    +0.000 A 
ATOM     16  C   UNL     1       2.663   7.851  18.513  0.00  0.00    +0.000 A 
ATOM     17 CL   UNL     1       3.844   6.692  18.046  0.00  0.00    +0.000 Cl
ATOM     18  C   UNL     1       1.995   7.711  19.725  0.00  0.00    +0.000 A 
ATOM     19  C   UNL     1       1.046   8.659  20.109  0.00  0.00    +0.000 A 
ATOM     20 CL   UNL     1       0.159   8.339  21.564  0.00  0.00    +0.000 Cl
ENDBRANCH  11  13
BRANCH   1  22
ATOM     21  C   UNL     1      -3.252   9.830  15.420  0.00  0.00    +0.000 C 
ATOM     22  C   UNL     1      -3.903   9.751  16.806  0.00  0.00    +0.000 C 
ENDBRANCH   1  22
BRANCH  12  23
ATOM     23  C   UNL     1      -4.672  12.293  18.573  0.00  0.00    +0.000 C 
BRANCH  23  24
ATOM     24  C   UNL     1      -5.253  12.362  17.136  0.00  0.00    +0.000 C 
ATOM     25  C   UNL     1      -6.451  13.270  16.936  0.00  0.00    +0.000 C 
ENDBRANCH  23  24
BRANCH  23  26
ATOM     26  C   UNL     1      -5.861  11.899  19.502  0.00  0.00    +0.000 C 
ATOM     27  C   UNL     1      -6.557  10.579  19.215  0.00  0.00    +0.000 C 
ENDBRANCH  23  26
ENDBRANCH  12  23
TORSDOF 5
ENDMDL
MODEL 2
REMARK VINA RESULT:      -6.4      1.934      2.534
REMARK  Name = 
REMARK  9 active torsions:
REMARK  status: ('A' for Active; 'I' for Inactive)
REMARK    1  A    between atoms: C_1  and  C_2
REMARK    2  A    between atoms: C_2  and  C_3
REMARK    3  A    between atoms: N_9  and  C_10
REMARK    4  A    between atoms: N_13  and  C_14
REMARK    5  A    between atoms: N_22  and  C_23
REMARK    6  A    between atoms: C_23  and  C_24
REMARK    7  A    between atoms: C_23  and  C_26
REMARK    8  A    between atoms: C_24  and  C_25
REMARK    9  A    between atoms: C_26  and  C_27
REMARK                            x       y       z     vdW  Elec       q    Type
REMARK                         _______ _______ _______ _____ _____    ______ ____
ROOT
ATOM      1  C   UNL     1      -4.340  11.905  18.570  0.00  0.00    +0.000 A 
ATOM      2  N   UNL     1      -3.056  11.660  18.750  0.00  0.00    +0.000 NA
ATOM      3  C   UNL     1      -2.743  12.179  19.957  0.00  0.00    +0.000 A 
ATOM      4  C   UNL     1      -3.842  12.737  20.563  0.00  0.00    +0.000 A 
ATOM      5  C   UNL     1      -3.767  13.226  21.904  0.00  0.00    +0.000 A 
ATOM      6  O   UNL     1      -4.748  13.428  22.611  0.00  0.00    +0.000 OA
ATOM      7  N   UNL     1      -2.459  13.393  22.360  0.00  0.00    +0.000 N 
ATOM      8  C   UNL     1      -2.249  14.071  23.624  0.00  0.00    +0.000 C 
ATOM      9  C   UNL     1      -1.322  12.782  21.795  0.00  0.00    +0.000 A 
ATOM     10  O   UNL     1      -0.218  12.869  22.336  0.00  0.00    +0.000 OA
ATOM     11  N   UNL     1      -1.521  12.111  20.584  0.00  0.00    +0.000 N 
ATOM     12  N   UNL     1      -4.858  12.668  19.628  0.00  0.00    +0.000 N 
ENDROOT
BRANCH  11  13
ATOM     13  C   UNL     1      -0.493  11.331  19.991  0.00  0.00    +0.000 A 
ATOM     14  C   UNL     1      -0.320   9.992  20.374  0.00  0.00    +0.000 A 
ATOM     15  C   UNL     1       0.633   9.186  19.740  0.00  0.00    +0.000 A 
ATOM     16  C   UNL     1       1.432   9.721  18.729  0.00  0.00    +0.000 A 
ATOM     17 CL   UNL     1       2.597   8.726  17.948  0.00  0.00    +0.000 Cl
ATOM     18  C   UNL     1       1.301  11.056  18.360  0.00  0.00    +0.000 A 
ATOM     19  C   UNL     1       0.346  11.859  18.986  0.00  0.00    +0.000 A 
ATOM     20 CL   UNL     1       0.341  13.543  18.570  0.00  0.00    +0.000 Cl
ENDBRANCH  11  13
BRANCH   1  22
ATOM     21  C   UNL     1      -4.090  10.951  16.281  0.00  0.00    +0.000 C 
ATOM     22  C   UNL     1      -5.073  11.378  17.377  0.00  0.00    +0.000 C 
ENDBRANCH   1  22
BRANCH  12  23
ATOM     23  C   UNL     1      -6.174  13.321  19.655  0.00  0.00    +0.000 C 
BRANCH  23  24
ATOM     24  C   UNL     1      -6.533  14.067  18.342  0.00  0.00    +0.000 C 
ATOM     25  C   UNL     1      -7.917  13.810  17.778  0.00  0.00    +0.000 C 
ENDBRANCH  23  24
BRANCH  23  26
ATOM     26  C   UNL     1      -7.407  12.430  19.997  0.00  0.00    +0.000 C 
ATOM     27  C   UNL     1      -7.129  11.025  20.504  0.00  0.00    +0.000 C 
ENDBRANCH  23  26
ENDBRANCH  12  23
TORSDOF 5
ENDMDL
MODEL 3
REMARK VINA RESULT:      -6.3      4.930      7.708
REMARK  Name = 
REMARK  9 active torsions:
REMARK  status: ('A' for Active; 'I' for Inactive)
REMARK    1  A    between atoms: C_1  and  C_2
REMARK    2  A    between atoms: C_2  and  C_3
REMARK    3  A    between atoms: N_9  and  C_10
REMARK    4  A    between atoms: N_13  and  C_14
REMARK    5  A    between atoms: N_22  and  C_23
REMARK    6  A    between atoms: C_23  and  C_24
REMARK    7  A    between atoms: C_23  and  C_26
REMARK    8  A    between atoms: C_24  and  C_25
REMARK    9  A    between atoms: C_26  and  C_27
REMARK                            x       y       z     vdW  Elec       q    Type
REMARK                         _______ _______ _______ _____ _____    ______ ____
ROOT
ATOM      1  C   UNL     1       2.559   7.835  18.895  0.00  0.00    +0.000 A 
ATOM      2  N   UNL     1       3.478   7.078  18.325  0.00  0.00    +0.000 NA
ATOM      3  C   UNL     1       3.426   5.886  18.959  0.00  0.00    +0.000 A 
ATOM      4  C   UNL     1       2.449   5.875  19.924  0.00  0.00    +0.000 A 
ATOM      5  C   UNL     1       2.130   4.673  20.628  0.00  0.00    +0.000 A 
ATOM      6  O   UNL     1       1.085   4.502  21.246  0.00  0.00    +0.000 OA
ATOM      7  N   UNL     1       3.100   3.679  20.492  0.00  0.00    +0.000 N 
ATOM      8  C   UNL     1       2.994   2.492  21.317  0.00  0.00    +0.000 C 
ATOM      9  C   UNL     1       4.074   3.634  19.474  0.00  0.00    +0.000 A 
ATOM     10  O   UNL     1       4.808   2.653  19.340  0.00  0.00    +0.000 OA
ATOM     11  N   UNL     1       4.170   4.769  18.663  0.00  0.00    +0.000 N 
ATOM     12  N   UNL     1       1.957   7.167  19.972  0.00  0.00    +0.000 N 
ENDROOT
BRANCH  11  13
ATOM     13  C   UNL     1       5.004   4.790  17.513  0.00  0.00    +0.000 A 
ATOM     14  C   UNL     1       4.513   4.327  16.283  0.00  0.00    +0.000 A 
ATOM     15  C   UNL     1       5.292   4.419  15.124  0.00  0.00    +0.000 A 
ATOM     16  C   UNL     1       6.576   4.960  15.193  0.00  0.00    +0.000 A 
ATOM     17 CL   UNL     1       7.529   5.077  13.765  0.00  0.00    +0.000 Cl
ATOM     18  C   UNL     1       7.095   5.391  16.409  0.00  0.00    +0.000 A 
ATOM     19  C   UNL     1       6.316   5.307  17.565  0.00  0.00    +0.000 A 
ATOM     20 CL   UNL     1       7.083   5.733  19.061  0.00  0.00    +0.000 Cl
ENDBRANCH  11  13
BRANCH   1  22
ATOM     21  C   UNL     1       1.052   9.167  17.422  0.00  0.00    +0.000 C 
ATOM     22  C   UNL     1       2.250   9.205  18.378  0.00  0.00    +0.000 C 
ENDBRANCH   1  22
BRANCH  12  23
ATOM     23  C   UNL     1       1.070   7.774  20.973  0.00  0.00    +0.000 C 
BRANCH  23  24
ATOM     24  C   UNL     1       1.715   8.948  21.755  0.00  0.00    +0.000 C 
ATOM     25  C   UNL     1       1.105   9.276  23.104  0.00  0.00    +0.000 C 
ENDBRANCH  23  24
BRANCH  23  26
ATOM     26  C   UNL     1      -0.316   8.293  20.481  0.00  0.00    +0.000 C 
ATOM     27  C   UNL     1      -0.530   9.796  20.469  0.00  0.00    +0.000 C 
ENDBRANCH  23  26
ENDBRANCH  12  23
TORSDOF 5
ENDMDL
MODEL 4
REMARK VINA RESULT:      -6.3      1.986      2.773
REMARK  Name = 
REMARK  9 active torsions:
REMARK  status: ('A' for Active; 'I' for Inactive)
REMARK    1  A    between atoms: C_1  and  C_2
REMARK    2  A    between atoms: C_2  and  C_3
REMARK    3  A    between atoms: N_9  and  C_10
REMARK    4  A    between atoms: N_13  and  C_14
REMARK    5  A    between atoms: N_22  and  C_23
REMARK    6  A    between atoms: C_23  and  C_24
REMARK    7  A    between atoms: C_23  and  C_26
REMARK    8  A    between atoms: C_24  and  C_25
REMARK    9  A    between atoms: C_26  and  C_27
REMARK                            x       y       z     vdW  Elec       q    Type
REMARK                         _______ _______ _______ _____ _____    ______ ____
ROOT
ATOM      1  C   UNL     1      -4.181  11.869  18.528  0.00  0.00    +0.000 A 
ATOM      2  N   UNL     1      -2.905  11.584  18.703  0.00  0.00    +0.000 NA
ATOM      3  C   UNL     1      -2.579  12.060  19.925  0.00  0.00    +0.000 A 
ATOM      4  C   UNL     1      -3.663  12.631  20.544  0.00  0.00    +0.000 A 
ATOM      5  C   UNL     1      -3.578  13.081  21.898  0.00  0.00    +0.000 A 
ATOM      6  O   UNL     1      -4.555  13.290  22.609  0.00  0.00    +0.000 OA
ATOM      7  N   UNL     1      -2.267  13.199  22.360  0.00  0.00    +0.000 N 
ATOM      8  C   UNL     1      -2.040  13.836  23.642  0.00  0.00    +0.000 C 
ATOM      9  C   UNL     1      -1.146  12.573  21.779  0.00  0.00    +0.000 A 
ATOM     10  O   UNL     1      -0.041  12.614  22.325  0.00  0.00    +0.000 OA
ATOM     11  N   UNL     1      -1.361  11.941  20.551  0.00  0.00    +0.000 N 
ATOM     12  N   UNL     1      -4.680  12.617  19.606  0.00  0.00    +0.000 N 
ENDROOT
BRANCH  11  13
ATOM     13  C   UNL     1      -0.354  11.149  19.937  0.00  0.00    +0.000 A 
ATOM     14  C   UNL     1      -0.217   9.797  20.285  0.00  0.00    +0.000 A 
ATOM     15  C   UNL     1       0.714   8.982  19.631  0.00  0.00    +0.000 A 
ATOM     16  C   UNL     1       1.528   9.522  18.634  0.00  0.00    +0.000 A 
ATOM     17 CL   UNL     1       2.667   8.517  17.827  0.00  0.00    +0.000 Cl
ATOM     18  C   UNL     1       1.434  10.869  18.300  0.00  0.00    +0.000 A 
ATOM     19  C   UNL     1       0.500  11.681  18.947  0.00  0.00    +0.000 A 
ATOM     20 CL   UNL     1       0.540  13.374  18.574  0.00  0.00    +0.000 Cl
ENDBRANCH  11  13
BRANCH   1  22
ATOM     21  C   UNL     1      -3.954  10.919  16.235  0.00  0.00    +0.000 C 
ATOM     22  C   UNL     1      -4.926  11.395  17.320  0.00  0.00    +0.000 C 
ENDBRANCH   1  22
BRANCH  12  23
ATOM     23  C   UNL     1      -5.977  13.305  19.650  0.00  0.00    +0.000 C 
BRANCH  23  24
ATOM     24  C   UNL     1      -6.993  12.669  20.635  0.00  0.00    +0.000 C 
ATOM     25  C   UNL     1      -7.378  11.226  20.368  0.00  0.00    +0.000 C 
ENDBRANCH  23  24
BRANCH  23  26
ATOM     26  C   UNL     1      -5.965  14.832  19.967  0.00  0.00    +0.000 C 
ATOM     27  C   UNL     1      -6.816  15.731  19.087  0.00  0.00    +0.000 C 
ENDBRANCH  23  26
ENDBRANCH  12  23
TORSDOF 5
ENDMDL
MODEL 5
REMARK VINA RESULT:      -6.2      3.188      3.974
REMARK  Name = 
REMARK  9 active torsions:
REMARK  status: ('A' for Active; 'I' for Inactive)
REMARK    1  A    between atoms: C_1  and  C_2
REMARK    2  A    between atoms: C_2  and  C_3
REMARK    3  A    between atoms: N_9  and  C_10
REMARK    4  A    between atoms: N_13  and  C_14
REMARK    5  A    between atoms: N_22  and  C_23
REMARK    6  A    between atoms: C_23  and  C_24
REMARK    7  A    between atoms: C_23  and  C_26
REMARK    8  A    between atoms: C_24  and  C_25
REMARK    9  A    between atoms: C_26  and  C_27
REMARK                            x       y       z     vdW  Elec       q    Type
REMARK                         _______ _______ _______ _____ _____    ______ ____
ROOT
ATOM      1  C   UNL     1      -3.752  11.218  18.196  0.00  0.00    +0.000 A 
ATOM      2  N   UNL     1      -2.725  11.924  18.629  0.00  0.00    +0.000 NA
ATOM      3  C   UNL     1      -3.163  12.593  19.718  0.00  0.00    +0.000 A 
ATOM      4  C   UNL     1      -4.474  12.290  19.997  0.00  0.00    +0.000 A 
ATOM      5  C   UNL     1      -5.101  12.782  21.183  0.00  0.00    +0.000 A 
ATOM      6  O   UNL     1      -6.126  12.307  21.659  0.00  0.00    +0.000 OA
ATOM      7  N   UNL     1      -4.397  13.823  21.789  0.00  0.00    +0.000 N 
ATOM      8  C   UNL     1      -5.028  14.542  22.879  0.00  0.00    +0.000 C 
ATOM      9  C   UNL     1      -3.036  14.116  21.568  0.00  0.00    +0.000 A 
ATOM     10  O   UNL     1      -2.451  14.965  22.243  0.00  0.00    +0.000 OA
ATOM     11  N   UNL     1      -2.417  13.414  20.529  0.00  0.00    +0.000 N 
ATOM     12  N   UNL     1      -4.902  11.490  18.953  0.00  0.00    +0.000 N 
ENDROOT
BRANCH  11  13
ATOM     13  C   UNL     1      -1.018  13.507  20.302  0.00  0.00    +0.000 A 
ATOM     14  C   UNL     1      -0.518  14.439  19.380  0.00  0.00    +0.000 A 
ATOM     15  C   UNL     1       0.861  14.603  19.206  0.00  0.00    +0.000 A 
ATOM     16  C   UNL     1       1.750  13.820  19.943  0.00  0.00    +0.000 A 
ATOM     17 CL   UNL     1       3.444  14.028  19.731  0.00  0.00    +0.000 Cl
ATOM     18  C   UNL     1       1.275  12.865  20.836  0.00  0.00    +0.000 A 
ATOM     19  C   UNL     1      -0.100  12.706  21.016  0.00  0.00    +0.000 A 
ATOM     20 CL   UNL     1      -0.612  11.403  22.039  0.00  0.00    +0.000 Cl
ENDBRANCH  11  13
BRANCH   1  22
ATOM     21  C   UNL     1      -3.126  10.983  15.795  0.00  0.00    +0.000 C 
ATOM     22  C   UNL     1      -3.611  10.259  17.056  0.00  0.00    +0.000 C 
ENDBRANCH   1  22
BRANCH  12  23
ATOM     23  C   UNL     1      -6.270  11.073  18.620  0.00  0.00    +0.000 C 
BRANCH  23  24
ATOM     24  C   UNL     1      -6.974  10.269  19.745  0.00  0.00    +0.000 C 
ATOM     25  C   UNL     1      -6.944   8.759  19.615  0.00  0.00    +0.000 C 
ENDBRANCH  23  24
BRANCH  23  26
ATOM     26  C   UNL     1      -7.274  12.188  18.194  0.00  0.00    +0.000 C 
ATOM     27  C   UNL     1      -6.855  13.100  17.054  0.00  0.00    +0.000 C 
ENDBRANCH  23  26
ENDBRANCH  12  23
TORSDOF 5
ENDMDL
MODEL 6
REMARK VINA RESULT:      -6.2      3.170      3.840
REMARK  Name = 
REMARK  9 active torsions:
REMARK  status: ('A' for Active; 'I' for Inactive)
REMARK    1  A    between atoms: C_1  and  C_2
REMARK    2  A    between atoms: C_2  and  C_3
REMARK    3  A    between atoms: N_9  and  C_10
REMARK    4  A    between atoms: N_13  and  C_14
REMARK    5  A    between atoms: N_22  and  C_23
REMARK    6  A    between atoms: C_23  and  C_24
REMARK    7  A    between atoms: C_23  and  C_26
REMARK    8  A    between atoms: C_24  and  C_25
REMARK    9  A    between atoms: C_26  and  C_27
REMARK                            x       y       z     vdW  Elec       q    Type
REMARK                         _______ _______ _______ _____ _____    ______ ____
ROOT
ATOM      1  C   UNL     1      -4.097  11.671  18.804  0.00  0.00    +0.000 A 
ATOM      2  N   UNL     1      -2.970  12.293  19.093  0.00  0.00    +0.000 NA
ATOM      3  C   UNL     1      -3.158  12.866  20.302  0.00  0.00    +0.000 A 
ATOM      4  C   UNL     1      -4.407  12.586  20.799  0.00  0.00    +0.000 A 
ATOM      5  C   UNL     1      -4.771  12.981  22.123  0.00  0.00    +0.000 A 
ATOM      6  O   UNL     1      -5.712  12.499  22.744  0.00  0.00    +0.000 OA
ATOM      7  N   UNL     1      -3.909  13.931  22.674  0.00  0.00    +0.000 N 
ATOM      8  C   UNL     1      -4.283  14.561  23.925  0.00  0.00    +0.000 C 
ATOM      9  C   UNL     1      -2.601  14.194  22.221  0.00  0.00    +0.000 A 
ATOM     10  O   UNL     1      -1.853  14.950  22.844  0.00  0.00    +0.000 OA
ATOM     11  N   UNL     1      -2.228  13.575  21.024  0.00  0.00    +0.000 N 
ATOM     12  N   UNL     1      -5.067  11.908  19.790  0.00  0.00    +0.000 N 
ENDROOT
BRANCH  11  13
ATOM     13  C   UNL     1      -0.893  13.639  20.541  0.00  0.00    +0.000 A 
ATOM     14  C   UNL     1      -0.525  14.643  19.632  0.00  0.00    +0.000 A 
ATOM     15  C   UNL     1       0.803  14.772  19.210  0.00  0.00    +0.000 A 
ATOM     16  C   UNL     1       1.770  13.884  19.684  0.00  0.00    +0.000 A 
ATOM     17 CL   UNL     1       3.403  14.049  19.170  0.00  0.00    +0.000 Cl
ATOM     18  C   UNL     1       1.419  12.860  20.557  0.00  0.00    +0.000 A 
ATOM     19  C   UNL     1       0.095  12.735  20.984  0.00  0.00    +0.000 A 
ATOM     20 CL   UNL     1      -0.288  11.352  21.959  0.00  0.00    +0.000 Cl
ENDBRANCH  11  13
BRANCH   1  22
ATOM     21  C   UNL     1      -3.157   9.727  17.559  0.00  0.00    +0.000 C 
ATOM     22  C   UNL     1      -4.227  10.824  17.577  0.00  0.00    +0.000 C 
ENDBRANCH   1  22
BRANCH  12  23
ATOM     23  C   UNL     1      -6.495  11.577  19.692  0.00  0.00    +0.000 C 
BRANCH  23  24
ATOM     24  C   UNL     1      -7.365  12.716  19.098  0.00  0.00    +0.000 C 
ATOM     25  C   UNL     1      -7.362  12.849  17.587  0.00  0.00    +0.000 C 
ENDBRANCH  23  24
BRANCH  23  26
ATOM     26  C   UNL     1      -6.876  10.286  18.904  0.00  0.00    +0.000 C 
ATOM     27  C   UNL     1      -7.062   9.011  19.708  0.00  0.00    +0.000 C 
ENDBRANCH  23  26
ENDBRANCH  12  23
TORSDOF 5
ENDMDL
MODEL 7
REMARK VINA RESULT:      -6.1      4.986      9.531
REMARK  Name = 
REMARK  9 active torsions:
REMARK  status: ('A' for Active; 'I' for Inactive)
REMARK    1  A    between atoms: C_1  and  C_2
REMARK    2  A    between atoms: C_2  and  C_3
REMARK    3  A    between atoms: N_9  and  C_10
REMARK    4  A    between atoms: N_13  and  C_14
REMARK    5  A    between atoms: N_22  and  C_23
REMARK    6  A    between atoms: C_23  and  C_24
REMARK    7  A    between atoms: C_23  and  C_26
REMARK    8  A    between atoms: C_24  and  C_25
REMARK    9  A    between atoms: C_26  and  C_27
REMARK                            x       y       z     vdW  Elec       q    Type
REMARK                         _______ _______ _______ _____ _____    ______ ____
ROOT
ATOM      1  C   UNL     1       5.616   6.744  17.359  0.00  0.00    +0.000 A 
ATOM      2  N   UNL     1       4.452   7.264  17.702  0.00  0.00    +0.000 NA
ATOM      3  C   UNL     1       3.815   6.313  18.420  0.00  0.00    +0.000 A 
ATOM      4  C   UNL     1       4.589   5.187  18.558  0.00  0.00    +0.000 A 
ATOM      5  C   UNL     1       4.166   4.107  19.392  0.00  0.00    +0.000 A 
ATOM      6  O   UNL     1       4.920   3.239  19.819  0.00  0.00    +0.000 OA
ATOM      7  N   UNL     1       2.813   4.167  19.730  0.00  0.00    +0.000 N 
ATOM      8  C   UNL     1       2.217   3.028  20.400  0.00  0.00    +0.000 C 
ATOM      9  C   UNL     1       2.012   5.324  19.657  0.00  0.00    +0.000 A 
ATOM     10  O   UNL     1       0.863   5.331  20.103  0.00  0.00    +0.000 OA
ATOM     11  N   UNL     1       2.588   6.433  19.028  0.00  0.00    +0.000 N 
ATOM     12  N   UNL     1       5.711   5.409  17.780  0.00  0.00    +0.000 N 
ENDROOT
BRANCH  11  13
ATOM     13  C   UNL     1       1.944   7.699  19.022  0.00  0.00    +0.000 A 
ATOM     14  C   UNL     1       1.646   8.327  17.803  0.00  0.00    +0.000 A 
ATOM     15  C   UNL     1       0.939   9.534  17.776  0.00  0.00    +0.000 A 
ATOM     16  C   UNL     1       0.539  10.130  18.973  0.00  0.00    +0.000 A 
ATOM     17 CL   UNL     1      -0.336  11.609  18.937  0.00  0.00    +0.000 Cl
ATOM     18  C   UNL     1       0.856   9.542  20.193  0.00  0.00    +0.000 A 
ATOM     19  C   UNL     1       1.556   8.334  20.221  0.00  0.00    +0.000 A 
ATOM     20 CL   UNL     1       2.034   7.739  21.778  0.00  0.00    +0.000 Cl
ENDBRANCH  11  13
BRANCH   1  22
ATOM     21  C   UNL     1       7.595   8.234  17.636  0.00  0.00    +0.000 C 
ATOM     22  C   UNL     1       6.648   7.554  16.640  0.00  0.00    +0.000 C 
ENDBRANCH   1  22
BRANCH  12  23
ATOM     23  C   UNL     1       6.751   4.451  17.378  0.00  0.00    +0.000 C 
BRANCH  23  24
ATOM     24  C   UNL     1       7.051   4.452  15.855  0.00  0.00    +0.000 C 
ATOM     25  C   UNL     1       5.930   3.988  14.947  0.00  0.00    +0.000 C 
ENDBRANCH  23  24
BRANCH  23  26
ATOM     26  C   UNL     1       8.134   4.557  18.091  0.00  0.00    +0.000 C 
ATOM     27  C   UNL     1       8.175   5.288  19.422  0.00  0.00    +0.000 C 
ENDBRANCH  23  26
ENDBRANCH  12  23
TORSDOF 5
ENDMDL
MODEL 8
REMARK VINA RESULT:      -6.1      1.555      2.177
REMARK  Name = 
REMARK  9 active torsions:
REMARK  status: ('A' for Active; 'I' for Inactive)
REMARK    1  A    between atoms: C_1  and  C_2
REMARK    2  A    between atoms: C_2  and  C_3
REMARK    3  A    between atoms: N_9  and  C_10
REMARK    4  A    between atoms: N_13  and  C_14
REMARK    5  A    between atoms: N_22  and  C_23
REMARK    6  A    between atoms: C_23  and  C_24
REMARK    7  A    between atoms: C_23  and  C_26
REMARK    8  A    between atoms: C_24  and  C_25
REMARK    9  A    between atoms: C_26  and  C_27
REMARK                            x       y       z     vdW  Elec       q    Type
REMARK                         _______ _______ _______ _____ _____    ______ ____
ROOT
ATOM      1  C   UNL     1      -3.936  11.720  18.757  0.00  0.00    +0.000 A 
ATOM      2  N   UNL     1      -2.667  11.362  18.815  0.00  0.00    +0.000 NA
ATOM      3  C   UNL     1      -2.165  11.941  19.927  0.00  0.00    +0.000 A 
ATOM      4  C   UNL     1      -3.128  12.654  20.598  0.00  0.00    +0.000 A 
ATOM      5  C   UNL     1      -2.850  13.239  21.872  0.00  0.00    +0.000 A 
ATOM      6  O   UNL     1      -3.716  13.595  22.662  0.00  0.00    +0.000 OA
ATOM      7  N   UNL     1      -1.486  13.310  22.162  0.00  0.00    +0.000 N 
ATOM      8  C   UNL     1      -1.065  14.063  23.327  0.00  0.00    +0.000 C 
ATOM      9  C   UNL     1      -0.485  12.544  21.532  0.00  0.00    +0.000 A 
ATOM     10  O   UNL     1       0.679  12.563  21.937  0.00  0.00    +0.000 OA
ATOM     11  N   UNL     1      -0.888  11.801  20.417  0.00  0.00    +0.000 N 
ATOM     12  N   UNL     1      -4.251  12.614  19.792  0.00  0.00    +0.000 N 
ENDROOT
BRANCH  11  13
ATOM     13  C   UNL     1      -0.013  10.877  19.787  0.00  0.00    +0.000 A 
ATOM     14  C   UNL     1       0.603  11.213  18.572  0.00  0.00    +0.000 A 
ATOM     15  C   UNL     1       1.532  10.349  17.980  0.00  0.00    +0.000 A 
ATOM     16  C   UNL     1       1.837   9.134  18.593  0.00  0.00    +0.000 A 
ATOM     17 CL   UNL     1       2.983   8.077  17.866  0.00  0.00    +0.000 Cl
ATOM     18  C   UNL     1       1.209   8.765  19.778  0.00  0.00    +0.000 A 
ATOM     19  C   UNL     1       0.289   9.629  20.374  0.00  0.00    +0.000 A 
ATOM     20 CL   UNL     1      -0.552   9.038  21.771  0.00  0.00    +0.000 Cl
ENDBRANCH  11  13
BRANCH   1  22
ATOM     21  C   UNL     1      -4.127  11.067  16.360  0.00  0.00    +0.000 C 
ATOM     22  C   UNL     1      -4.851  11.175  17.707  0.00  0.00    +0.000 C 
ENDBRANCH   1  22
BRANCH  12  23
ATOM     23  C   UNL     1      -5.489  13.396  19.906  0.00  0.00    +0.000 C 
BRANCH  23  24
ATOM     24  C   UNL     1      -6.469  12.868  20.987  0.00  0.00    +0.000 C 
ATOM     25  C   UNL     1      -7.222  11.595  20.650  0.00  0.00    +0.000 C 
ENDBRANCH  23  24
BRANCH  23  26
ATOM     26  C   UNL     1      -5.346  14.927  20.165  0.00  0.00    +0.000 C 
ATOM     27  C   UNL     1      -6.292  15.850  19.416  0.00  0.00    +0.000 C 
ENDBRANCH  23  26
ENDBRANCH  12  23
TORSDOF 5
ENDMDL
MODEL 9
REMARK VINA RESULT:      -6.0      3.240      4.084
REMARK  Name = 
REMARK  9 active torsions:
REMARK  status: ('A' for Active; 'I' for Inactive)
REMARK    1  A    between atoms: C_1  and  C_2
REMARK    2  A    between atoms: C_2  and  C_3
REMARK    3  A    between atoms: N_9  and  C_10
REMARK    4  A    between atoms: N_13  and  C_14
REMARK    5  A    between atoms: N_22  and  C_23
REMARK    6  A    between atoms: C_23  and  C_24
REMARK    7  A    between atoms: C_23  and  C_26
REMARK    8  A    between atoms: C_24  and  C_25
REMARK    9  A    between atoms: C_26  and  C_27
REMARK                            x       y       z     vdW  Elec       q    Type
REMARK                         _______ _______ _______ _____ _____    ______ ____
ROOT
ATOM      1  C   UNL     1      -4.038  11.796  18.745  0.00  0.00    +0.000 A 
ATOM      2  N   UNL     1      -2.898  12.392  19.040  0.00  0.00    +0.000 NA
ATOM      3  C   UNL     1      -3.047  12.884  20.290  0.00  0.00    +0.000 A 
ATOM      4  C   UNL     1      -4.282  12.577  20.805  0.00  0.00    +0.000 A 
ATOM      5  C   UNL     1      -4.604  12.885  22.163  0.00  0.00    +0.000 A 
ATOM      6  O   UNL     1      -5.530  12.367  22.778  0.00  0.00    +0.000 OA
ATOM      7  N   UNL     1      -3.721  13.792  22.749  0.00  0.00    +0.000 N 
ATOM      8  C   UNL     1      -4.053  14.339  24.050  0.00  0.00    +0.000 C 
ATOM      9  C   UNL     1      -2.425  14.079  22.276  0.00  0.00    +0.000 A 
ATOM     10  O   UNL     1      -1.654  14.789  22.925  0.00  0.00    +0.000 OA
ATOM     11  N   UNL     1      -2.091  13.540  21.029  0.00  0.00    +0.000 N 
ATOM     12  N   UNL     1      -4.976  11.971  19.773  0.00  0.00    +0.000 N 
ENDROOT
BRANCH  11  13
ATOM     13  C   UNL     1      -0.771  13.630  20.512  0.00  0.00    +0.000 A 
ATOM     14  C   UNL     1       0.130  12.573  20.706  0.00  0.00    +0.000 A 
ATOM     15  C   UNL     1       1.407  12.608  20.132  0.00  0.00    +0.000 A 
ATOM     16  C   UNL     1       1.794  13.713  19.373  0.00  0.00    +0.000 A 
ATOM     17 CL   UNL     1       3.360  13.751  18.663  0.00  0.00    +0.000 Cl
ATOM     18  C   UNL     1       0.928  14.787  19.199  0.00  0.00    +0.000 A 
ATOM     19  C   UNL     1      -0.347  14.750  19.764  0.00  0.00    +0.000 A 
ATOM     20 CL   UNL     1      -1.313  16.183  19.620  0.00  0.00    +0.000 Cl
ENDBRANCH  11  13
BRANCH   1  22
ATOM     21  C   UNL     1      -3.231   9.855  17.405  0.00  0.00    +0.000 C 
ATOM     22  C   UNL     1      -4.209  11.033  17.469  0.00  0.00    +0.000 C 
ENDBRANCH   1  22
BRANCH  12  23
ATOM     23  C   UNL     1      -6.408  11.653  19.696  0.00  0.00    +0.000 C 
BRANCH  23  24
ATOM     24  C   UNL     1      -7.282  12.816  19.156  0.00  0.00    +0.000 C 
ATOM     25  C   UNL     1      -7.394  12.933  17.649  0.00  0.00    +0.000 C 
ENDBRANCH  23  24
BRANCH  23  26
ATOM     26  C   UNL     1      -6.817  10.391  18.877  0.00  0.00    +0.000 C 
ATOM     27  C   UNL     1      -7.066   9.109  19.654  0.00  0.00    +0.000 C 
ENDBRANCH  23  26
ENDBRANCH  12  23
TORSDOF 5
ENDMDL
