MODEL 1
REMARK VINA RESULT:      -8.2      0.000      0.000
REMARK  Name = 
REMARK  6 active torsions:
REMARK  status: ('A' for Active; 'I' for Inactive)
REMARK    1  A    between atoms: C_2  and  O_3
REMARK    2  A    between atoms: C_2  and  C_4
REMARK    3  A    between atoms: C_6  and  C_7
REMARK    4  A    between atoms: C_9  and  C_10
REMARK    5  A    between atoms: C_21  and  C_22
REMARK    6  A    between atoms: C_27  and  N_28
REMARK                            x       y       z     vdW  Elec       q    Type
REMARK                         _______ _______ _______ _____ _____    ______ ____
ROOT
ATOM      1  C   UNL     1       3.162   6.074  18.452  0.00  0.00    +0.000 A 
ATOM      2  C   UNL     1       2.140   6.917  18.902  0.00  0.00    +0.000 A 
ATOM      3  C   UNL     1       2.107   8.259  18.517  0.00  0.00    +0.000 A 
ATOM      4  C   UNL     1       3.145   8.759  17.734  0.00  0.00    +0.000 A 
ATOM      5  C   UNL     1       4.136   7.913  17.259  0.00  0.00    +0.000 A 
ATOM      6  C   UNL     1       4.159   6.539  17.559  0.00  0.00    +0.000 A 
ENDROOT
BRANCH   6   7
ATOM      7  C   UNL     1       5.149   5.662  16.869  0.00  0.00    +0.000 A 
ATOM      8  C   UNL     1       4.809   5.120  15.605  0.00  0.00    +0.000 A 
ATOM      9  C   UNL     1       5.608   4.219  14.923  0.00  0.00    +0.000 A 
ATOM     10  C   UNL     1       6.859   3.919  15.429  0.00  0.00    +0.000 A 
ATOM     11  C   UNL     1       7.281   4.481  16.632  0.00  0.00    +0.000 A 
ATOM     12  C   UNL     1       6.427   5.315  17.360  0.00  0.00    +0.000 A 
BRANCH  12  13
ATOM     13  N   UNL     1       6.926   5.769  18.652  0.00  0.00    +0.000 N 
ATOM     14  O   UNL     1       7.739   6.709  18.650  0.00  0.00    +0.000 OA
ATOM     15  O   UNL     1       6.536   5.163  19.658  0.00  0.00    +0.000 OA
ENDBRANCH  12  13
ENDBRANCH   6   7
BRANCH   3  16
ATOM     16  C   UNL     1       0.974   9.134  18.805  0.00  0.00    +0.000 A 
ATOM     17  N   UNL     1       0.036   9.405  17.918  0.00  0.00    +0.000 NA
ATOM     18  C   UNL     1      -0.923  10.215  18.483  0.00  0.00    +0.000 A 
ATOM     19  C   UNL     1      -0.697  10.555  19.799  0.00  0.00    +0.000 A 
ATOM     20  S   UNL     1       0.753   9.847  20.351  0.00  0.00    +0.000 S 
BRANCH  18  21
ATOM     21  C   UNL     1      -2.104  10.618  17.743  0.00  0.00    +0.000 A 
ATOM     22  C   UNL     1      -3.079  11.433  18.339  0.00  0.00    +0.000 A 
ATOM     23  C   UNL     1      -4.254  11.747  17.658  0.00  0.00    +0.000 A 
ATOM     24  C   UNL     1      -4.458  11.256  16.371  0.00  0.00    +0.000 A 
ATOM     25  C   UNL     1      -3.475  10.478  15.767  0.00  0.00    +0.000 A 
ATOM     26  F   UNL     1      -3.679  10.009  14.529  0.00  0.00    +0.000 F 
ATOM     27  C   UNL     1      -2.298  10.163  16.434  0.00  0.00    +0.000 A 
ENDBRANCH  18  21
ENDBRANCH   3  16
BRANCH   1  29
ATOM     28  O   UNL     1       2.335   3.846  18.381  0.00  0.00    +0.000 OA
ATOM     29  C   UNL     1       3.039   4.657  18.924  0.00  0.00    +0.000 C 
BRANCH  29  30
ATOM     30  O   UNL     1       3.838   4.375  19.973  0.00  0.00    +0.000 OA
ATOM     31  H   UNL     1       4.251   3.495  19.953  0.00  0.00    +0.000 HD
ENDBRANCH  29  30
ENDBRANCH   1  29
TORSDOF 6
ENDMDL
MODEL 2
REMARK VINA RESULT:      -8.0      0.865      1.359
REMARK  Name = 
REMARK  6 active torsions:
REMARK  status: ('A' for Active; 'I' for Inactive)
REMARK    1  A    between atoms: C_2  and  O_3
REMARK    2  A    between atoms: C_2  and  C_4
REMARK    3  A    between atoms: C_6  and  C_7
REMARK    4  A    between atoms: C_9  and  C_10
REMARK    5  A    between atoms: C_21  and  C_22
REMARK    6  A    between atoms: C_27  and  N_28
REMARK                            x       y       z     vdW  Elec       q    Type
REMARK                         _______ _______ _______ _____ _____    ______ ____
ROOT
ATOM      1  C   UNL     1       3.184   6.068  18.484  0.00  0.00    +0.000 A 
ATOM      2  C   UNL     1       2.160   6.911  18.928  0.00  0.00    +0.000 A 
ATOM      3  C   UNL     1       2.114   8.245  18.519  0.00  0.00    +0.000 A 
ATOM      4  C   UNL     1       3.141   8.739  17.719  0.00  0.00    +0.000 A 
ATOM      5  C   UNL     1       4.134   7.892  17.251  0.00  0.00    +0.000 A 
ATOM      6  C   UNL     1       4.170   6.524  17.575  0.00  0.00    +0.000 A 
ENDROOT
BRANCH   6   7
ATOM      7  C   UNL     1       5.161   5.642  16.892  0.00  0.00    +0.000 A 
ATOM      8  C   UNL     1       4.796   5.036  15.664  0.00  0.00    +0.000 A 
ATOM      9  C   UNL     1       5.597   4.125  14.997  0.00  0.00    +0.000 A 
ATOM     10  C   UNL     1       6.872   3.881  15.475  0.00  0.00    +0.000 A 
ATOM     11  C   UNL     1       7.316   4.507  16.638  0.00  0.00    +0.000 A 
ATOM     12  C   UNL     1       6.463   5.351  17.356  0.00  0.00    +0.000 A 
BRANCH  12  13
ATOM     13  N   UNL     1       6.991   5.875  18.609  0.00  0.00    +0.000 N 
ATOM     14  O   UNL     1       6.634   5.311  19.657  0.00  0.00    +0.000 OA
ATOM     15  O   UNL     1       7.727   6.869  18.545  0.00  0.00    +0.000 OA
ENDBRANCH  12  13
ENDBRANCH   6   7
BRANCH   3  16
ATOM     16  C   UNL     1       0.976   9.117  18.801  0.00  0.00    +0.000 A 
ATOM     17  N   UNL     1       0.008   9.333  17.932  0.00  0.00    +0.000 NA
ATOM     18  C   UNL     1      -0.946  10.155  18.488  0.00  0.00    +0.000 A 
ATOM     19  C   UNL     1      -0.686  10.559  19.780  0.00  0.00    +0.000 A 
ATOM     20  S   UNL     1       0.790   9.897  20.319  0.00  0.00    +0.000 S 
BRANCH  18  21
ATOM     21  C   UNL     1      -2.155  10.507  17.766  0.00  0.00    +0.000 A 
ATOM     22  C   UNL     1      -2.338  10.101  16.436  0.00  0.00    +0.000 A 
ATOM     23  C   UNL     1      -3.459  10.515  15.716  0.00  0.00    +0.000 A 
ATOM     24  C   UNL     1      -4.409  11.329  16.327  0.00  0.00    +0.000 A 
ATOM     25  C   UNL     1      -4.244  11.701  17.657  0.00  0.00    +0.000 A 
ATOM     26  F   UNL     1      -5.162  12.485  18.238  0.00  0.00    +0.000 F 
ATOM     27  C   UNL     1      -3.134  11.291  18.386  0.00  0.00    +0.000 A 
ENDBRANCH  18  21
ENDBRANCH   3  16
BRANCH   1  29
ATOM     28  O   UNL     1       2.206   3.904  18.626  0.00  0.00    +0.000 OA
ATOM     29  C   UNL     1       3.075   4.657  18.981  0.00  0.00    +0.000 C 
BRANCH  29  30
ATOM     30  O   UNL     1       4.078   4.309  19.813  0.00  0.00    +0.000 OA
ATOM     31  H   UNL     1       4.974   4.466  19.468  0.00  0.00    +0.000 HD
ENDBRANCH  29  30
ENDBRANCH   1  29
TORSDOF 6
ENDMDL
MODEL 3
REMARK VINA RESULT:      -7.9      4.547      9.082
REMARK  Name = 
REMARK  6 active torsions:
REMARK  status: ('A' for Active; 'I' for Inactive)
REMARK    1  A    between atoms: C_2  and  O_3
REMARK    2  A    between atoms: C_2  and  C_4
REMARK    3  A    between atoms: C_6  and  C_7
REMARK    4  A    between atoms: C_9  and  C_10
REMARK    5  A    between atoms: C_21  and  C_22
REMARK    6  A    between atoms: C_27  and  N_28
REMARK                            x       y       z     vdW  Elec       q    Type
REMARK                         _______ _______ _______ _____ _____    ______ ____
ROOT
ATOM      1  C   UNL     1       0.318   9.719  21.102  0.00  0.00    +0.000 A 
ATOM      2  C   UNL     1       0.981   8.503  20.902  0.00  0.00    +0.000 A 
ATOM      3  C   UNL     1       1.522   8.188  19.653  0.00  0.00    +0.000 A 
ATOM      4  C   UNL     1       1.329   9.074  18.595  0.00  0.00    +0.000 A 
ATOM      5  C   UNL     1       0.704  10.293  18.805  0.00  0.00    +0.000 A 
ATOM      6  C   UNL     1       0.217  10.681  20.067  0.00  0.00    +0.000 A 
ENDROOT
BRANCH   6   7
ATOM      7  C   UNL     1      -0.280  12.074  20.256  0.00  0.00    +0.000 A 
ATOM      8  C   UNL     1      -1.680  12.294  20.309  0.00  0.00    +0.000 A 
ATOM      9  C   UNL     1      -2.250  13.553  20.383  0.00  0.00    +0.000 A 
ATOM     10  C   UNL     1      -1.426  14.652  20.540  0.00  0.00    +0.000 A 
ATOM     11  C   UNL     1      -0.042  14.491  20.573  0.00  0.00    +0.000 A 
ATOM     12  C   UNL     1       0.526  13.225  20.401  0.00  0.00    +0.000 A 
BRANCH  12  13
ATOM     13  N   UNL     1       1.981  13.181  20.350  0.00  0.00    +0.000 N 
ATOM     14  O   UNL     1       2.586  13.083  21.431  0.00  0.00    +0.000 OA
ATOM     15  O   UNL     1       2.516  13.281  19.238  0.00  0.00    +0.000 OA
ENDBRANCH  12  13
ENDBRANCH   6   7
BRANCH   3  16
ATOM     16  C   UNL     1       2.377   7.025  19.435  0.00  0.00    +0.000 A 
ATOM     17  N   UNL     1       3.285   6.974  18.481  0.00  0.00    +0.000 NA
ATOM     18  C   UNL     1       3.967   5.780  18.546  0.00  0.00    +0.000 A 
ATOM     19  C   UNL     1       3.562   4.931  19.554  0.00  0.00    +0.000 A 
ATOM     20  S   UNL     1       2.294   5.640  20.446  0.00  0.00    +0.000 S 
BRANCH  18  21
ATOM     21  C   UNL     1       5.066   5.485  17.645  0.00  0.00    +0.000 A 
ATOM     22  C   UNL     1       4.924   5.666  16.260  0.00  0.00    +0.000 A 
ATOM     23  C   UNL     1       5.950   5.299  15.389  0.00  0.00    +0.000 A 
ATOM     24  C   UNL     1       7.127   4.759  15.898  0.00  0.00    +0.000 A 
ATOM     25  C   UNL     1       7.281   4.614  17.273  0.00  0.00    +0.000 A 
ATOM     26  F   UNL     1       8.417   4.094  17.756  0.00  0.00    +0.000 F 
ATOM     27  C   UNL     1       6.269   4.981  18.151  0.00  0.00    +0.000 A 
ENDBRANCH  18  21
ENDBRANCH   3  16
BRANCH   1  29
ATOM     28  O   UNL     1      -0.027  10.957  23.104  0.00  0.00    +0.000 OA
ATOM     29  C   UNL     1      -0.174   9.924  22.503  0.00  0.00    +0.000 C 
BRANCH  29  30
ATOM     30  O   UNL     1      -0.844   8.860  22.992  0.00  0.00    +0.000 OA
ATOM     31  H   UNL     1      -1.569   9.075  23.604  0.00  0.00    +0.000 HD
ENDBRANCH  29  30
ENDBRANCH   1  29
TORSDOF 6
ENDMDL
MODEL 4
REMARK VINA RESULT:      -7.8      4.365      9.128
REMARK  Name = 
REMARK  6 active torsions:
REMARK  status: ('A' for Active; 'I' for Inactive)
REMARK    1  A    between atoms: C_2  and  O_3
REMARK    2  A    between atoms: C_2  and  C_4
REMARK    3  A    between atoms: C_6  and  C_7
REMARK    4  A    between atoms: C_9  and  C_10
REMARK    5  A    between atoms: C_21  and  C_22
REMARK    6  A    between atoms: C_27  and  N_28
REMARK                            x       y       z     vdW  Elec       q    Type
REMARK                         _______ _______ _______ _____ _____    ______ ____
ROOT
ATOM      1  C   UNL     1       0.713   9.886  20.739  0.00  0.00    +0.000 A 
ATOM      2  C   UNL     1       1.193   8.582  20.572  0.00  0.00    +0.000 A 
ATOM      3  C   UNL     1       1.799   8.200  19.373  0.00  0.00    +0.000 A 
ATOM      4  C   UNL     1       1.856   9.116  18.326  0.00  0.00    +0.000 A 
ATOM      5  C   UNL     1       1.414  10.418  18.508  0.00  0.00    +0.000 A 
ATOM      6  C   UNL     1       0.870  10.863  19.726  0.00  0.00    +0.000 A 
ENDROOT
BRANCH   6   7
ATOM      7  C   UNL     1       0.582  12.316  19.904  0.00  0.00    +0.000 A 
ATOM      8  C   UNL     1       1.576  13.136  20.494  0.00  0.00    +0.000 A 
ATOM      9  C   UNL     1       1.379  14.474  20.796  0.00  0.00    +0.000 A 
ATOM     10  C   UNL     1       0.205  15.083  20.393  0.00  0.00    +0.000 A 
ATOM     11  C   UNL     1      -0.779  14.346  19.740  0.00  0.00    +0.000 A 
ATOM     12  C   UNL     1      -0.610  12.974  19.526  0.00  0.00    +0.000 A 
BRANCH  12  13
ATOM     13  N   UNL     1      -1.739  12.277  18.926  0.00  0.00    +0.000 N 
ATOM     14  O   UNL     1      -1.701  12.081  17.699  0.00  0.00    +0.000 OA
ATOM     15  O   UNL     1      -2.675  11.961  19.672  0.00  0.00    +0.000 OA
ENDBRANCH  12  13
ENDBRANCH   6   7
BRANCH   3  16
ATOM     16  C   UNL     1       2.478   6.917  19.209  0.00  0.00    +0.000 A 
ATOM     17  N   UNL     1       3.429   6.720  18.316  0.00  0.00    +0.000 NA
ATOM     18  C   UNL     1       3.913   5.436  18.422  0.00  0.00    +0.000 A 
ATOM     19  C   UNL     1       3.315   4.666  19.397  0.00  0.00    +0.000 A 
ATOM     20  S   UNL     1       2.115   5.568  20.206  0.00  0.00    +0.000 S 
BRANCH  18  21
ATOM     21  C   UNL     1       5.010   4.970  17.595  0.00  0.00    +0.000 A 
ATOM     22  C   UNL     1       6.321   4.943  18.095  0.00  0.00    +0.000 A 
ATOM     23  C   UNL     1       7.386   4.579  17.271  0.00  0.00    +0.000 A 
ATOM     24  C   UNL     1       7.145   4.230  15.945  0.00  0.00    +0.000 A 
ATOM     25  C   UNL     1       5.841   4.223  15.461  0.00  0.00    +0.000 A 
ATOM     26  F   UNL     1       5.617   3.886  14.184  0.00  0.00    +0.000 F 
ATOM     27  C   UNL     1       4.772   4.578  16.273  0.00  0.00    +0.000 A 
ENDBRANCH  18  21
ENDBRANCH   3  16
BRANCH   1  29
ATOM     28  O   UNL     1       0.720   9.956  23.117  0.00  0.00    +0.000 OA
ATOM     29  C   UNL     1       0.121  10.151  22.091  0.00  0.00    +0.000 C 
BRANCH  29  30
ATOM     30  O   UNL     1      -1.118  10.681  22.034  0.00  0.00    +0.000 OA
ATOM     31  H   UNL     1      -1.304  11.367  22.698  0.00  0.00    +0.000 HD
ENDBRANCH  29  30
ENDBRANCH   1  29
TORSDOF 6
ENDMDL
MODEL 5
REMARK VINA RESULT:      -7.7      5.416      9.997
REMARK  Name = 
REMARK  6 active torsions:
REMARK  status: ('A' for Active; 'I' for Inactive)
REMARK    1  A    between atoms: C_2  and  O_3
REMARK    2  A    between atoms: C_2  and  C_4
REMARK    3  A    between atoms: C_6  and  C_7
REMARK    4  A    between atoms: C_9  and  C_10
REMARK    5  A    between atoms: C_21  and  C_22
REMARK    6  A    between atoms: C_27  and  N_28
REMARK                            x       y       z     vdW  Elec       q    Type
REMARK                         _______ _______ _______ _____ _____    ______ ____
ROOT
ATOM      1  C   UNL     1      -0.927  11.527  20.338  0.00  0.00    +0.000 A 
ATOM      2  C   UNL     1      -0.167  10.576  19.649  0.00  0.00    +0.000 A 
ATOM      3  C   UNL     1       0.775   9.796  20.325  0.00  0.00    +0.000 A 
ATOM      4  C   UNL     1       0.993  10.031  21.681  0.00  0.00    +0.000 A 
ATOM      5  C   UNL     1       0.212  10.948  22.368  0.00  0.00    +0.000 A 
ATOM      6  C   UNL     1      -0.800  11.694  21.739  0.00  0.00    +0.000 A 
ENDROOT
BRANCH   6   7
ATOM      7  C   UNL     1      -1.715  12.526  22.574  0.00  0.00    +0.000 A 
ATOM      8  C   UNL     1      -2.812  11.895  23.213  0.00  0.00    +0.000 A 
ATOM      9  C   UNL     1      -3.775  12.585  23.929  0.00  0.00    +0.000 A 
ATOM     10  C   UNL     1      -3.604  13.940  24.146  0.00  0.00    +0.000 A 
ATOM     11  C   UNL     1      -2.503  14.602  23.607  0.00  0.00    +0.000 A 
ATOM     12  C   UNL     1      -1.587  13.914  22.805  0.00  0.00    +0.000 A 
BRANCH  12  13
ATOM     13  N   UNL     1      -0.529  14.719  22.210  0.00  0.00    +0.000 N 
ATOM     14  O   UNL     1      -0.685  15.085  21.033  0.00  0.00    +0.000 OA
ATOM     15  O   UNL     1       0.469  14.951  22.905  0.00  0.00    +0.000 OA
ENDBRANCH  12  13
ENDBRANCH   6   7
BRANCH   3  16
ATOM     16  C   UNL     1       1.461   8.670  19.698  0.00  0.00    +0.000 A 
ATOM     17  N   UNL     1       1.699   7.537  20.329  0.00  0.00    +0.000 NA
ATOM     18  C   UNL     1       2.315   6.647  19.478  0.00  0.00    +0.000 A 
ATOM     19  C   UNL     1       2.544   7.121  18.204  0.00  0.00    +0.000 A 
ATOM     20  S   UNL     1       1.975   8.722  18.061  0.00  0.00    +0.000 S 
BRANCH  18  21
ATOM     21  C   UNL     1       2.638   5.296  19.899  0.00  0.00    +0.000 A 
ATOM     22  C   UNL     1       3.730   4.615  19.342  0.00  0.00    +0.000 A 
ATOM     23  C   UNL     1       3.986   3.287  19.683  0.00  0.00    +0.000 A 
ATOM     24  C   UNL     1       3.156   2.635  20.591  0.00  0.00    +0.000 A 
ATOM     25  C   UNL     1       2.094   3.323  21.170  0.00  0.00    +0.000 A 
ATOM     26  F   UNL     1       1.300   2.690  22.043  0.00  0.00    +0.000 F 
ATOM     27  C   UNL     1       1.833   4.648  20.843  0.00  0.00    +0.000 A 
ENDBRANCH  18  21
ENDBRANCH   3  16
BRANCH   1  29
ATOM     28  O   UNL     1      -3.064  11.910  19.368  0.00  0.00    +0.000 OA
ATOM     29  C   UNL     1      -1.917  12.256  19.481  0.00  0.00    +0.000 C 
BRANCH  29  30
ATOM     30  O   UNL     1      -1.406  13.364  18.905  0.00  0.00    +0.000 OA
ATOM     31  H   UNL     1      -0.643  13.753  19.364  0.00  0.00    +0.000 HD
ENDBRANCH  29  30
ENDBRANCH   1  29
TORSDOF 6
ENDMDL
MODEL 6
REMARK VINA RESULT:      -7.7      4.634      9.327
REMARK  Name = 
REMARK  6 active torsions:
REMARK  status: ('A' for Active; 'I' for Inactive)
REMARK    1  A    between atoms: C_2  and  O_3
REMARK    2  A    between atoms: C_2  and  C_4
REMARK    3  A    between atoms: C_6  and  C_7
REMARK    4  A    between atoms: C_9  and  C_10
REMARK    5  A    between atoms: C_21  and  C_22
REMARK    6  A    between atoms: C_27  and  N_28
REMARK                            x       y       z     vdW  Elec       q    Type
REMARK                         _______ _______ _______ _____ _____    ______ ____
ROOT
ATOM      1  C   UNL     1       0.560   9.926  20.976  0.00  0.00    +0.000 A 
ATOM      2  C   UNL     1       1.098   8.655  20.743  0.00  0.00    +0.000 A 
ATOM      3  C   UNL     1       1.684   8.349  19.512  0.00  0.00    +0.000 A 
ATOM      4  C   UNL     1       1.662   9.307  18.500  0.00  0.00    +0.000 A 
ATOM      5  C   UNL     1       1.161  10.576  18.747  0.00  0.00    +0.000 A 
ATOM      6  C   UNL     1       0.635  10.947  19.998  0.00  0.00    +0.000 A 
ENDROOT
BRANCH   6   7
ATOM      7  C   UNL     1       0.283  12.376  20.242  0.00  0.00    +0.000 A 
ATOM      8  C   UNL     1       1.201  13.190  20.950  0.00  0.00    +0.000 A 
ATOM      9  C   UNL     1       0.934  14.498  21.317  0.00  0.00    +0.000 A 
ATOM     10  C   UNL     1      -0.230  15.093  20.868  0.00  0.00    +0.000 A 
ATOM     11  C   UNL     1      -1.139  14.366  20.102  0.00  0.00    +0.000 A 
ATOM     12  C   UNL     1      -0.904  13.017  19.819  0.00  0.00    +0.000 A 
BRANCH  12  13
ATOM     13  N   UNL     1      -1.961  12.322  19.097  0.00  0.00    +0.000 N 
ATOM     14  O   UNL     1      -1.784  12.118  17.884  0.00  0.00    +0.000 OA
ATOM     15  O   UNL     1      -2.979  12.017  19.733  0.00  0.00    +0.000 OA
ENDBRANCH  12  13
ENDBRANCH   6   7
BRANCH   3  16
ATOM     16  C   UNL     1       2.420   7.110  19.276  0.00  0.00    +0.000 A 
ATOM     17  N   UNL     1       3.370   7.004  18.368  0.00  0.00    +0.000 NA
ATOM     18  C   UNL     1       3.914   5.740  18.404  0.00  0.00    +0.000 A 
ATOM     19  C   UNL     1       3.362   4.894  19.342  0.00  0.00    +0.000 A 
ATOM     20  S   UNL     1       2.129   5.696  20.205  0.00  0.00    +0.000 S 
BRANCH  18  21
ATOM     21  C   UNL     1       5.024   5.369  17.546  0.00  0.00    +0.000 A 
ATOM     22  C   UNL     1       4.879   5.365  16.150  0.00  0.00    +0.000 A 
ATOM     23  C   UNL     1       5.918   4.924  15.331  0.00  0.00    +0.000 A 
ATOM     24  C   UNL     1       7.112   4.493  15.903  0.00  0.00    +0.000 A 
ATOM     25  C   UNL     1       7.267   4.532  17.285  0.00  0.00    +0.000 A 
ATOM     26  F   UNL     1       8.419   4.117  17.828  0.00  0.00    +0.000 F 
ATOM     27  C   UNL     1       6.241   4.974  18.111  0.00  0.00    +0.000 A 
ENDBRANCH  18  21
ENDBRANCH   3  16
BRANCH   1  29
ATOM     28  O   UNL     1      -1.104  10.543  22.560  0.00  0.00    +0.000 OA
ATOM     29  C   UNL     1      -0.000  10.109  22.355  0.00  0.00    +0.000 C 
BRANCH  29  30
ATOM     30  O   UNL     1       0.833   9.684  23.327  0.00  0.00    +0.000 OA
ATOM     31  H   UNL     1       1.619   9.204  23.015  0.00  0.00    +0.000 HD
ENDBRANCH  29  30
ENDBRANCH   1  29
TORSDOF 6
ENDMDL
MODEL 7
REMARK VINA RESULT:      -7.7      4.115      8.737
REMARK  Name = 
REMARK  6 active torsions:
REMARK  status: ('A' for Active; 'I' for Inactive)
REMARK    1  A    between atoms: C_2  and  O_3
REMARK    2  A    between atoms: C_2  and  C_4
REMARK    3  A    between atoms: C_6  and  C_7
REMARK    4  A    between atoms: C_9  and  C_10
REMARK    5  A    between atoms: C_21  and  C_22
REMARK    6  A    between atoms: C_27  and  N_28
REMARK                            x       y       z     vdW  Elec       q    Type
REMARK                         _______ _______ _______ _____ _____    ______ ____
ROOT
ATOM      1  C   UNL     1       0.672   9.189  20.754  0.00  0.00    +0.000 A 
ATOM      2  C   UNL     1       1.422   8.037  20.498  0.00  0.00    +0.000 A 
ATOM      3  C   UNL     1       1.896   7.772  19.211  0.00  0.00    +0.000 A 
ATOM      4  C   UNL     1       1.551   8.639  18.176  0.00  0.00    +0.000 A 
ATOM      5  C   UNL     1       0.839   9.799  18.441  0.00  0.00    +0.000 A 
ATOM      6  C   UNL     1       0.413  10.141  19.737  0.00  0.00    +0.000 A 
ENDROOT
BRANCH   6   7
ATOM      7  C   UNL     1      -0.187  11.485  19.973  0.00  0.00    +0.000 A 
ATOM      8  C   UNL     1      -1.599  11.605  19.980  0.00  0.00    +0.000 A 
ATOM      9  C   UNL     1      -2.260  12.817  20.091  0.00  0.00    +0.000 A 
ATOM     10  C   UNL     1      -1.521  13.961  20.334  0.00  0.00    +0.000 A 
ATOM     11  C   UNL     1      -0.132  13.894  20.414  0.00  0.00    +0.000 A 
ATOM     12  C   UNL     1       0.530  12.680  20.204  0.00  0.00    +0.000 A 
BRANCH  12  13
ATOM     13  N   UNL     1       1.986  12.738  20.210  0.00  0.00    +0.000 N 
ATOM     14  O   UNL     1       2.551  12.752  21.317  0.00  0.00    +0.000 OA
ATOM     15  O   UNL     1       2.558  12.807  19.114  0.00  0.00    +0.000 OA
ENDBRANCH  12  13
ENDBRANCH   6   7
BRANCH   3  16
ATOM     16  C   UNL     1       2.831   6.688  18.923  0.00  0.00    +0.000 A 
ATOM     17  N   UNL     1       3.519   6.615  17.800  0.00  0.00    +0.000 NA
ATOM     18  C   UNL     1       4.348   5.517  17.828  0.00  0.00    +0.000 A 
ATOM     19  C   UNL     1       4.275   4.761  18.979  0.00  0.00    +0.000 A 
ATOM     20  S   UNL     1       3.140   5.436  20.057  0.00  0.00    +0.000 S 
BRANCH  18  21
ATOM     21  C   UNL     1       5.264   5.232  16.739  0.00  0.00    +0.000 A 
ATOM     22  C   UNL     1       6.605   5.638  16.807  0.00  0.00    +0.000 A 
ATOM     23  C   UNL     1       7.461   5.441  15.724  0.00  0.00    +0.000 A 
ATOM     24  C   UNL     1       6.983   4.828  14.569  0.00  0.00    +0.000 A 
ATOM     25  C   UNL     1       5.662   4.393  14.517  0.00  0.00    +0.000 A 
ATOM     26  F   UNL     1       5.210   3.804  13.403  0.00  0.00    +0.000 F 
ATOM     27  C   UNL     1       4.802   4.579  15.591  0.00  0.00    +0.000 A 
ENDBRANCH  18  21
ENDBRANCH   3  16
BRANCH   1  29
ATOM     28  O   UNL     1       0.847  10.073  22.956  0.00  0.00    +0.000 OA
ATOM     29  C   UNL     1       0.267   9.349  22.189  0.00  0.00    +0.000 C 
BRANCH  29  30
ATOM     30  O   UNL     1      -0.841   8.649  22.509  0.00  0.00    +0.000 OA
ATOM     31  H   UNL     1      -1.308   8.957  23.304  0.00  0.00    +0.000 HD
ENDBRANCH  29  30
ENDBRANCH   1  29
TORSDOF 6
ENDMDL
MODEL 8
REMARK VINA RESULT:      -7.6      4.822      9.434
REMARK  Name = 
REMARK  6 active torsions:
REMARK  status: ('A' for Active; 'I' for Inactive)
REMARK    1  A    between atoms: C_2  and  O_3
REMARK    2  A    between atoms: C_2  and  C_4
REMARK    3  A    between atoms: C_6  and  C_7
REMARK    4  A    between atoms: C_9  and  C_10
REMARK    5  A    between atoms: C_21  and  C_22
REMARK    6  A    between atoms: C_27  and  N_28
REMARK                            x       y       z     vdW  Elec       q    Type
REMARK                         _______ _______ _______ _____ _____    ______ ____
ROOT
ATOM      1  C   UNL     1       0.289  10.153  20.034  0.00  0.00    +0.000 A 
ATOM      2  C   UNL     1       0.949   9.030  19.524  0.00  0.00    +0.000 A 
ATOM      3  C   UNL     1       1.678   8.192  20.370  0.00  0.00    +0.000 A 
ATOM      4  C   UNL     1       1.792   8.531  21.717  0.00  0.00    +0.000 A 
ATOM      5  C   UNL     1       1.106   9.624  22.225  0.00  0.00    +0.000 A 
ATOM      6  C   UNL     1       0.298  10.446  21.420  0.00  0.00    +0.000 A 
ENDROOT
BRANCH   6   7
ATOM      7  C   UNL     1      -0.548  11.490  22.066  0.00  0.00    +0.000 A 
ATOM      8  C   UNL     1      -1.646  11.077  22.862  0.00  0.00    +0.000 A 
ATOM      9  C   UNL     1      -2.552  11.959  23.427  0.00  0.00    +0.000 A 
ATOM     10  C   UNL     1      -2.315  13.317  23.322  0.00  0.00    +0.000 A 
ATOM     11  C   UNL     1      -1.208  13.784  22.617  0.00  0.00    +0.000 A 
ATOM     12  C   UNL     1      -0.354  12.886  21.969  0.00  0.00    +0.000 A 
BRANCH  12  13
ATOM     13  N   UNL     1       0.715  13.481  21.176  0.00  0.00    +0.000 N 
ATOM     14  O   UNL     1       1.866  13.428  21.641  0.00  0.00    +0.000 OA
ATOM     15  O   UNL     1       0.396  14.030  20.113  0.00  0.00    +0.000 OA
ENDBRANCH  12  13
ENDBRANCH   6   7
BRANCH   3  16
ATOM     16  C   UNL     1       2.231   6.914  19.929  0.00  0.00    +0.000 A 
ATOM     17  N   UNL     1       3.173   6.821  19.012  0.00  0.00    +0.000 NA
ATOM     18  C   UNL     1       3.527   5.503  18.835  0.00  0.00    +0.000 A 
ATOM     19  C   UNL     1       2.840   4.604  19.623  0.00  0.00    +0.000 A 
ATOM     20  S   UNL     1       1.720   5.424  20.613  0.00  0.00    +0.000 S 
BRANCH  18  21
ATOM     21  C   UNL     1       4.588   5.119  17.922  0.00  0.00    +0.000 A 
ATOM     22  C   UNL     1       4.304   4.820  16.581  0.00  0.00    +0.000 A 
ATOM     23  C   UNL     1       5.310   4.368  15.727  0.00  0.00    +0.000 A 
ATOM     24  C   UNL     1       6.609   4.220  16.209  0.00  0.00    +0.000 A 
ATOM     25  C   UNL     1       6.896   4.552  17.529  0.00  0.00    +0.000 A 
ATOM     26  F   UNL     1       8.147   4.408  17.984  0.00  0.00    +0.000 F 
ATOM     27  C   UNL     1       5.903   5.009  18.387  0.00  0.00    +0.000 A 
ENDBRANCH  18  21
ENDBRANCH   3  16
BRANCH   1  29
ATOM     28  O   UNL     1      -1.674  10.867  18.896  0.00  0.00    +0.000 OA
ATOM     29  C   UNL     1      -0.478  10.931  19.006  0.00  0.00    +0.000 C 
BRANCH  29  30
ATOM     30  O   UNL     1       0.302  11.746  18.267  0.00  0.00    +0.000 OA
ATOM     31  H   UNL     1      -0.063  12.633  18.106  0.00  0.00    +0.000 HD
ENDBRANCH  29  30
ENDBRANCH   1  29
TORSDOF 6
ENDMDL
MODEL 9
REMARK VINA RESULT:      -7.6      5.192      9.856
REMARK  Name = 
REMARK  6 active torsions:
REMARK  status: ('A' for Active; 'I' for Inactive)
REMARK    1  A    between atoms: C_2  and  O_3
REMARK    2  A    between atoms: C_2  and  C_4
REMARK    3  A    between atoms: C_6  and  C_7
REMARK    4  A    between atoms: C_9  and  C_10
REMARK    5  A    between atoms: C_21  and  C_22
REMARK    6  A    between atoms: C_27  and  N_28
REMARK                            x       y       z     vdW  Elec       q    Type
REMARK                         _______ _______ _______ _____ _____    ______ ____
ROOT
ATOM      1  C   UNL     1      -0.266  11.894  19.368  0.00  0.00    +0.000 A 
ATOM      2  C   UNL     1       0.635  10.903  18.965  0.00  0.00    +0.000 A 
ATOM      3  C   UNL     1       0.866   9.785  19.770  0.00  0.00    +0.000 A 
ATOM      4  C   UNL     1       0.236   9.708  21.010  0.00  0.00    +0.000 A 
ATOM      5  C   UNL     1      -0.684  10.673  21.390  0.00  0.00    +0.000 A 
ATOM      6  C   UNL     1      -1.003  11.772  20.572  0.00  0.00    +0.000 A 
ENDROOT
BRANCH   6   7
ATOM      7  C   UNL     1      -2.129  12.668  20.965  0.00  0.00    +0.000 A 
ATOM      8  C   UNL     1      -3.407  12.441  20.396  0.00  0.00    +0.000 A 
ATOM      9  C   UNL     1      -4.495  13.269  20.614  0.00  0.00    +0.000 A 
ATOM     10  C   UNL     1      -4.379  14.299  21.529  0.00  0.00    +0.000 A 
ATOM     11  C   UNL     1      -3.167  14.525  22.180  0.00  0.00    +0.000 A 
ATOM     12  C   UNL     1      -2.048  13.742  21.880  0.00  0.00    +0.000 A 
BRANCH  12  13
ATOM     13  N   UNL     1      -0.807  14.124  22.540  0.00  0.00    +0.000 N 
ATOM     14  O   UNL     1      -0.618  13.694  23.691  0.00  0.00    +0.000 OA
ATOM     15  O   UNL     1      -0.044  14.880  21.925  0.00  0.00    +0.000 OA
ENDBRANCH  12  13
ENDBRANCH   6   7
BRANCH   3  16
ATOM     16  C   UNL     1       1.650   8.639  19.320  0.00  0.00    +0.000 A 
ATOM     17  N   UNL     1       1.759   7.527  20.021  0.00  0.00    +0.000 NA
ATOM     18  C   UNL     1       2.518   6.609  19.330  0.00  0.00    +0.000 A 
ATOM     19  C   UNL     1       2.984   7.041  18.107  0.00  0.00    +0.000 A 
ATOM     20  S   UNL     1       2.462   8.637  17.807  0.00  0.00    +0.000 S 
BRANCH  18  21
ATOM     21  C   UNL     1       2.747   5.273  19.848  0.00  0.00    +0.000 A 
ATOM     22  C   UNL     1       3.822   4.500  19.382  0.00  0.00    +0.000 A 
ATOM     23  C   UNL     1       3.989   3.185  19.815  0.00  0.00    +0.000 A 
ATOM     24  C   UNL     1       3.088   2.639  20.725  0.00  0.00    +0.000 A 
ATOM     25  C   UNL     1       2.044   3.418  21.214  0.00  0.00    +0.000 A 
ATOM     26  F   UNL     1       1.182   2.885  22.089  0.00  0.00    +0.000 F 
ATOM     27  C   UNL     1       1.870   4.730  20.794  0.00  0.00    +0.000 A 
ENDBRANCH  18  21
ENDBRANCH   3  16
BRANCH   1  29
ATOM     28  O   UNL     1       0.139  14.065  18.485  0.00  0.00    +0.000 OA
ATOM     29  C   UNL     1      -0.431  13.010  18.381  0.00  0.00    +0.000 C 
BRANCH  29  30
ATOM     30  O   UNL     1      -1.230  12.687  17.343  0.00  0.00    +0.000 OA
ATOM     31  H   UNL     1      -1.979  12.108  17.564  0.00  0.00    +0.000 HD
ENDBRANCH  29  30
ENDBRANCH   1  29
TORSDOF 6
ENDMDL
