MODEL 1
REMARK VINA RESULT:      -8.6      0.000      0.000
REMARK  Name = 
REMARK  6 active torsions:
REMARK  status: ('A' for Active; 'I' for Inactive)
REMARK    1  A    between atoms: C_1  and  O_2
REMARK    2  A    between atoms: O_2  and  C_3
REMARK    3  A    between atoms: C_6  and  N_7
REMARK    4  A    between atoms: N_7  and  C_8
REMARK    5  A    between atoms: C_13  and  C_14
REMARK    6  A    between atoms: C_16  and  C_17
REMARK                            x       y       z     vdW  Elec       q    Type
REMARK                         _______ _______ _______ _____ _____    ______ ____
ROOT
ATOM      1  C   UNL     1       2.978   4.497  19.416  0.00  0.00    +0.000 A 
ATOM      2  N   UNL     1       1.779   4.006  19.823  0.00  0.00    +0.000 NA
ATOM      3  C   UNL     1       1.424   2.749  19.507  0.00  0.00    +0.000 A 
ATOM      4  C   UNL     1       2.211   1.913  18.755  0.00  0.00    +0.000 A 
ATOM      5  C   UNL     1       3.431   2.409  18.313  0.00  0.00    +0.000 A 
ATOM      6  C   UNL     1       3.859   3.717  18.636  0.00  0.00    +0.000 A 
ENDROOT
BRANCH   6   7
ATOM      7  C   UNL     1       5.201   4.162  18.218  0.00  0.00    +0.000 A 
ATOM      8  N   UNL     1       5.481   4.169  16.909  0.00  0.00    +0.000 NA
ATOM      9  C   UNL     1       6.650   4.726  16.589  0.00  0.00    +0.000 A 
ATOM     10  C   UNL     1       6.995   4.858  15.136  0.00  0.00    +0.000 C 
ATOM     11  N   UNL     1       7.529   5.202  17.469  0.00  0.00    +0.000 NA
ATOM     12  C   UNL     1       7.157   5.137  18.738  0.00  0.00    +0.000 A 
ATOM     13  N   UNL     1       8.030   5.629  19.684  0.00  0.00    +0.000 N 
ATOM     14  N   UNL     1       6.017   4.627  19.167  0.00  0.00    +0.000 NA
ATOM     15  H   UNL     1       8.977   5.631  19.332  0.00  0.00    +0.000 HD
ATOM     16  H   UNL     1       7.868   5.193  20.580  0.00  0.00    +0.000 HD
ENDBRANCH   6   7
BRANCH   1  17
ATOM     17  N   UNL     1       3.299   5.841  19.734  0.00  0.00    +0.000 N 
ATOM     18  H   UNL     1       3.634   5.894  20.696  0.00  0.00    +0.000 HD
BRANCH  17  22
ATOM     19  C   UNL     1       1.298   9.376  18.781  0.00  0.00    +0.000 A 
ATOM     20  C   UNL     1       2.064   8.798  17.789  0.00  0.00    +0.000 A 
ATOM     21  C   UNL     1       2.758   7.627  18.089  0.00  0.00    +0.000 A 
ATOM     22  C   UNL     1       2.646   7.030  19.345  0.00  0.00    +0.000 A 
ATOM     23  C   UNL     1       1.881   7.737  20.278  0.00  0.00    +0.000 A 
ATOM     24  N   UNL     1       1.198   8.879  20.030  0.00  0.00    +0.000 NA
BRANCH  19  26
ATOM     25  C   UNL     1      -0.771  10.444  18.675  0.00  0.00    +0.000 C 
ATOM     26  O   UNL     1       0.628  10.534  18.438  0.00  0.00    +0.000 OA
ENDBRANCH  19  26
ENDBRANCH  17  22
ENDBRANCH   1  17
TORSDOF 4
ENDMDL
MODEL 2
REMARK VINA RESULT:      -8.3      2.466      5.908
REMARK  Name = 
REMARK  6 active torsions:
REMARK  status: ('A' for Active; 'I' for Inactive)
REMARK    1  A    between atoms: C_1  and  O_2
REMARK    2  A    between atoms: O_2  and  C_3
REMARK    3  A    between atoms: C_6  and  N_7
REMARK    4  A    between atoms: N_7  and  C_8
REMARK    5  A    between atoms: C_13  and  C_14
REMARK    6  A    between atoms: C_16  and  C_17
REMARK                            x       y       z     vdW  Elec       q    Type
REMARK                         _______ _______ _______ _____ _____    ______ ____
ROOT
ATOM      1  C   UNL     1       3.380   4.613  19.774  0.00  0.00    +0.000 A 
ATOM      2  N   UNL     1       3.516   3.263  19.782  0.00  0.00    +0.000 NA
ATOM      3  C   UNL     1       2.484   2.485  20.152  0.00  0.00    +0.000 A 
ATOM      4  C   UNL     1       1.273   2.987  20.557  0.00  0.00    +0.000 A 
ATOM      5  C   UNL     1       1.126   4.368  20.574  0.00  0.00    +0.000 A 
ATOM      6  C   UNL     1       2.174   5.228  20.175  0.00  0.00    +0.000 A 
ENDROOT
BRANCH   6   7
ATOM      7  C   UNL     1       1.937   6.682  20.126  0.00  0.00    +0.000 A 
ATOM      8  N   UNL     1       2.213   7.325  18.984  0.00  0.00    +0.000 NA
ATOM      9  C   UNL     1       1.832   8.604  18.955  0.00  0.00    +0.000 A 
ATOM     10  C   UNL     1       2.021   9.367  17.679  0.00  0.00    +0.000 C 
ATOM     11  N   UNL     1       1.268   9.250  19.974  0.00  0.00    +0.000 NA
ATOM     12  C   UNL     1       1.049   8.523  21.058  0.00  0.00    +0.000 A 
ATOM     13  N   UNL     1       0.455   9.148  22.135  0.00  0.00    +0.000 N 
ATOM     14  N   UNL     1       1.364   7.247  21.191  0.00  0.00    +0.000 NA
ATOM     15  H   UNL     1       0.604  10.145  22.097  0.00  0.00    +0.000 HD
ATOM     16  H   UNL     1       0.690   8.674  22.995  0.00  0.00    +0.000 HD
ENDBRANCH   6   7
BRANCH   1  17
ATOM     17  N   UNL     1       4.504   5.401  19.417  0.00  0.00    +0.000 N 
ATOM     18  H   UNL     1       4.389   6.346  19.782  0.00  0.00    +0.000 HD
BRANCH  17  22
ATOM     19  C   UNL     1       6.892   5.340  15.995  0.00  0.00    +0.000 A 
ATOM     20  C   UNL     1       5.534   5.510  15.814  0.00  0.00    +0.000 A 
ATOM     21  C   UNL     1       4.713   5.514  16.940  0.00  0.00    +0.000 A 
ATOM     22  C   UNL     1       5.254   5.395  18.221  0.00  0.00    +0.000 A 
ATOM     23  C   UNL     1       6.634   5.179  18.270  0.00  0.00    +0.000 A 
ATOM     24  N   UNL     1       7.466   5.161  17.202  0.00  0.00    +0.000 NA
BRANCH  19  26
ATOM     25  C   UNL     1       6.999   4.757  13.741  0.00  0.00    +0.000 C 
ATOM     26  O   UNL     1       7.665   5.343  14.852  0.00  0.00    +0.000 OA
ENDBRANCH  19  26
ENDBRANCH  17  22
ENDBRANCH   1  17
TORSDOF 4
ENDMDL
MODEL 3
REMARK VINA RESULT:      -8.2      0.864      1.797
REMARK  Name = 
REMARK  6 active torsions:
REMARK  status: ('A' for Active; 'I' for Inactive)
REMARK    1  A    between atoms: C_1  and  O_2
REMARK    2  A    between atoms: O_2  and  C_3
REMARK    3  A    between atoms: C_6  and  N_7
REMARK    4  A    between atoms: N_7  and  C_8
REMARK    5  A    between atoms: C_13  and  C_14
REMARK    6  A    between atoms: C_16  and  C_17
REMARK                            x       y       z     vdW  Elec       q    Type
REMARK                         _______ _______ _______ _____ _____    ______ ____
ROOT
ATOM      1  C   UNL     1       2.823   4.693  19.087  0.00  0.00    +0.000 A 
ATOM      2  N   UNL     1       1.707   4.024  19.474  0.00  0.00    +0.000 NA
ATOM      3  C   UNL     1       1.429   2.819  18.947  0.00  0.00    +0.000 A 
ATOM      4  C   UNL     1       2.214   2.215  17.997  0.00  0.00    +0.000 A 
ATOM      5  C   UNL     1       3.348   2.899  17.576  0.00  0.00    +0.000 A 
ATOM      6  C   UNL     1       3.695   4.159  18.114  0.00  0.00    +0.000 A 
ENDROOT
BRANCH   6   7
ATOM      7  C   UNL     1       4.956   4.800  17.699  0.00  0.00    +0.000 A 
ATOM      8  N   UNL     1       5.813   5.178  18.656  0.00  0.00    +0.000 NA
ATOM      9  C   UNL     1       6.995   5.607  18.212  0.00  0.00    +0.000 A 
ATOM     10  C   UNL     1       8.043   5.960  19.224  0.00  0.00    +0.000 C 
ATOM     11  N   UNL     1       7.327   5.721  16.927  0.00  0.00    +0.000 NA
ATOM     12  C   UNL     1       6.403   5.329  16.064  0.00  0.00    +0.000 A 
ATOM     13  N   UNL     1       6.706   5.417  14.722  0.00  0.00    +0.000 N 
ATOM     14  N   UNL     1       5.208   4.869  16.390  0.00  0.00    +0.000 NA
ATOM     15  H   UNL     1       7.428   6.104  14.562  0.00  0.00    +0.000 HD
ATOM     16  H   UNL     1       5.863   5.491  14.170  0.00  0.00    +0.000 HD
ENDBRANCH   6   7
BRANCH   1  17
ATOM     17  N   UNL     1       3.060   5.980  19.635  0.00  0.00    +0.000 N 
ATOM     18  H   UNL     1       3.251   5.897  20.633  0.00  0.00    +0.000 HD
BRANCH  17  22
ATOM     19  C   UNL     1       1.164   9.628  18.921  0.00  0.00    +0.000 A 
ATOM     20  C   UNL     1       1.868   9.067  17.874  0.00  0.00    +0.000 A 
ATOM     21  C   UNL     1       2.527   7.858  18.094  0.00  0.00    +0.000 A 
ATOM     22  C   UNL     1       2.439   7.209  19.326  0.00  0.00    +0.000 A 
ATOM     23  C   UNL     1       1.740   7.901  20.319  0.00  0.00    +0.000 A 
ATOM     24  N   UNL     1       1.092   9.078  20.149  0.00  0.00    +0.000 NA
BRANCH  19  26
ATOM     25  C   UNL     1      -0.827  10.828  19.091  0.00  0.00    +0.000 C 
ATOM     26  O   UNL     1       0.527  10.824  18.657  0.00  0.00    +0.000 OA
ENDBRANCH  19  26
ENDBRANCH  17  22
ENDBRANCH   1  17
TORSDOF 4
ENDMDL
MODEL 4
REMARK VINA RESULT:      -8.2      0.742      1.125
REMARK  Name = 
REMARK  6 active torsions:
REMARK  status: ('A' for Active; 'I' for Inactive)
REMARK    1  A    between atoms: C_1  and  O_2
REMARK    2  A    between atoms: O_2  and  C_3
REMARK    3  A    between atoms: C_6  and  N_7
REMARK    4  A    between atoms: N_7  and  C_8
REMARK    5  A    between atoms: C_13  and  C_14
REMARK    6  A    between atoms: C_16  and  C_17
REMARK                            x       y       z     vdW  Elec       q    Type
REMARK                         _______ _______ _______ _____ _____    ______ ____
ROOT
ATOM      1  C   UNL     1       2.777   4.814  19.802  0.00  0.00    +0.000 A 
ATOM      2  N   UNL     1       1.580   4.451  20.330  0.00  0.00    +0.000 NA
ATOM      3  C   UNL     1       1.160   3.177  20.235  0.00  0.00    +0.000 A 
ATOM      4  C   UNL     1       1.876   2.197  19.595  0.00  0.00    +0.000 A 
ATOM      5  C   UNL     1       3.093   2.558  19.031  0.00  0.00    +0.000 A 
ATOM      6  C   UNL     1       3.588   3.879  19.122  0.00  0.00    +0.000 A 
ENDROOT
BRANCH   6   7
ATOM      7  C   UNL     1       4.925   4.189  18.584  0.00  0.00    +0.000 A 
ATOM      8  N   UNL     1       5.117   4.060  17.265  0.00  0.00    +0.000 NA
ATOM      9  C   UNL     1       6.296   4.502  16.824  0.00  0.00    +0.000 A 
ATOM     10  C   UNL     1       6.551   4.479  15.348  0.00  0.00    +0.000 C 
ATOM     11  N   UNL     1       7.261   4.990  17.602  0.00  0.00    +0.000 NA
ATOM     12  C   UNL     1       6.971   5.064  18.891  0.00  0.00    +0.000 A 
ATOM     13  N   UNL     1       7.936   5.575  19.733  0.00  0.00    +0.000 N 
ATOM     14  N   UNL     1       5.831   4.677  19.434  0.00  0.00    +0.000 NA
ATOM     15  H   UNL     1       8.855   5.478  19.326  0.00  0.00    +0.000 HD
ATOM     16  H   UNL     1       7.806   5.232  20.674  0.00  0.00    +0.000 HD
ENDBRANCH   6   7
BRANCH   1  17
ATOM     17  N   UNL     1       3.166   6.174  19.887  0.00  0.00    +0.000 N 
ATOM     18  H   UNL     1       3.763   6.309  20.703  0.00  0.00    +0.000 HD
BRANCH  17  22
ATOM     19  C   UNL     1       1.017   9.587  18.815  0.00  0.00    +0.000 A 
ATOM     20  C   UNL     1       0.920   9.166  20.126  0.00  0.00    +0.000 A 
ATOM     21  C   UNL     1       1.613   8.017  20.504  0.00  0.00    +0.000 A 
ATOM     22  C   UNL     1       2.420   7.336  19.592  0.00  0.00    +0.000 A 
ATOM     23  C   UNL     1       2.397   7.831  18.285  0.00  0.00    +0.000 A 
ATOM     24  N   UNL     1       1.734   8.938  17.875  0.00  0.00    +0.000 NA
BRANCH  19  26
ATOM     25  C   UNL     1      -1.076  10.485  18.319  0.00  0.00    +0.000 C 
ATOM     26  O   UNL     1       0.315  10.729  18.487  0.00  0.00    +0.000 OA
ENDBRANCH  19  26
ENDBRANCH  17  22
ENDBRANCH   1  17
TORSDOF 4
ENDMDL
MODEL 5
REMARK VINA RESULT:      -8.1      1.151      1.216
REMARK  Name = 
REMARK  6 active torsions:
REMARK  status: ('A' for Active; 'I' for Inactive)
REMARK    1  A    between atoms: C_1  and  O_2
REMARK    2  A    between atoms: O_2  and  C_3
REMARK    3  A    between atoms: C_6  and  N_7
REMARK    4  A    between atoms: N_7  and  C_8
REMARK    5  A    between atoms: C_13  and  C_14
REMARK    6  A    between atoms: C_16  and  C_17
REMARK                            x       y       z     vdW  Elec       q    Type
REMARK                         _______ _______ _______ _____ _____    ______ ____
ROOT
ATOM      1  C   UNL     1       2.634   5.000  20.052  0.00  0.00    +0.000 A 
ATOM      2  N   UNL     1       1.636   4.558  20.860  0.00  0.00    +0.000 NA
ATOM      3  C   UNL     1       1.266   3.266  20.826  0.00  0.00    +0.000 A 
ATOM      4  C   UNL     1       1.834   2.344  19.984  0.00  0.00    +0.000 A 
ATOM      5  C   UNL     1       2.841   2.787  19.136  0.00  0.00    +0.000 A 
ATOM      6  C   UNL     1       3.281   4.130  19.148  0.00  0.00    +0.000 A 
ENDROOT
BRANCH   6   7
ATOM      7  C   UNL     1       4.414   4.527  18.293  0.00  0.00    +0.000 A 
ATOM      8  N   UNL     1       4.159   5.301  17.231  0.00  0.00    +0.000 NA
ATOM      9  C   UNL     1       5.240   5.750  16.592  0.00  0.00    +0.000 A 
ATOM     10  C   UNL     1       5.041   6.699  15.449  0.00  0.00    +0.000 C 
ATOM     11  N   UNL     1       6.495   5.437  16.912  0.00  0.00    +0.000 NA
ATOM     12  C   UNL     1       6.634   4.657  17.972  0.00  0.00    +0.000 A 
ATOM     13  N   UNL     1       7.916   4.317  18.349  0.00  0.00    +0.000 N 
ATOM     14  N   UNL     1       5.638   4.173  18.692  0.00  0.00    +0.000 NA
ATOM     15  H   UNL     1       8.551   4.392  17.568  0.00  0.00    +0.000 HD
ATOM     16  H   UNL     1       7.917   3.450  18.868  0.00  0.00    +0.000 HD
ENDBRANCH   6   7
BRANCH   1  17
ATOM     17  N   UNL     1       2.969   6.378  20.087  0.00  0.00    +0.000 N 
ATOM     18  H   UNL     1       3.486   6.583  20.942  0.00  0.00    +0.000 HD
BRANCH  17  22
ATOM     19  C   UNL     1       0.684   9.702  19.018  0.00  0.00    +0.000 A 
ATOM     20  C   UNL     1       1.389   9.070  18.012  0.00  0.00    +0.000 A 
ATOM     21  C   UNL     1       2.176   7.970  18.348  0.00  0.00    +0.000 A 
ATOM     22  C   UNL     1       2.213   7.490  19.658  0.00  0.00    +0.000 A 
ATOM     23  C   UNL     1       1.497   8.243  20.592  0.00  0.00    +0.000 A 
ATOM     24  N   UNL     1       0.727   9.321  20.310  0.00  0.00    +0.000 NA
BRANCH  19  26
ATOM     25  C   UNL     1      -1.176  10.417  17.808  0.00  0.00    +0.000 C 
ATOM     26  O   UNL     1      -0.081  10.786  18.639  0.00  0.00    +0.000 OA
ENDBRANCH  19  26
ENDBRANCH  17  22
ENDBRANCH   1  17
TORSDOF 4
ENDMDL
MODEL 6
REMARK VINA RESULT:      -8.1      2.530      6.092
REMARK  Name = 
REMARK  6 active torsions:
REMARK  status: ('A' for Active; 'I' for Inactive)
REMARK    1  A    between atoms: C_1  and  O_2
REMARK    2  A    between atoms: O_2  and  C_3
REMARK    3  A    between atoms: C_6  and  N_7
REMARK    4  A    between atoms: N_7  and  C_8
REMARK    5  A    between atoms: C_13  and  C_14
REMARK    6  A    between atoms: C_16  and  C_17
REMARK                            x       y       z     vdW  Elec       q    Type
REMARK                         _______ _______ _______ _____ _____    ______ ____
ROOT
ATOM      1  C   UNL     1       3.506   4.698  19.777  0.00  0.00    +0.000 A 
ATOM      2  N   UNL     1       3.789   3.374  19.885  0.00  0.00    +0.000 NA
ATOM      3  C   UNL     1       2.864   2.526  20.366  0.00  0.00    +0.000 A 
ATOM      4  C   UNL     1       1.623   2.930  20.791  0.00  0.00    +0.000 A 
ATOM      5  C   UNL     1       1.328   4.285  20.706  0.00  0.00    +0.000 A 
ATOM      6  C   UNL     1       2.259   5.214  20.189  0.00  0.00    +0.000 A 
ENDROOT
BRANCH   6   7
ATOM      7  C   UNL     1       1.863   6.626  20.037  0.00  0.00    +0.000 A 
ATOM      8  N   UNL     1       1.365   7.257  21.108  0.00  0.00    +0.000 NA
ATOM      9  C   UNL     1       1.172   8.567  20.947  0.00  0.00    +0.000 A 
ATOM     10  C   UNL     1       0.705   9.362  22.129  0.00  0.00    +0.000 C 
ATOM     11  N   UNL     1       1.391   9.232  19.814  0.00  0.00    +0.000 NA
ATOM     12  C   UNL     1       1.873   8.510  18.814  0.00  0.00    +0.000 A 
ATOM     13  N   UNL     1       2.127   9.159  17.624  0.00  0.00    +0.000 N 
ATOM     14  N   UNL     1       2.122   7.214  18.867  0.00  0.00    +0.000 NA
ATOM     15  H   UNL     1       1.572  10.000  17.549  0.00  0.00    +0.000 HD
ATOM     16  H   UNL     1       2.096   8.510  16.851  0.00  0.00    +0.000 HD
ENDBRANCH   6   7
BRANCH   1  17
ATOM     17  N   UNL     1       4.522   5.567  19.302  0.00  0.00    +0.000 N 
ATOM     18  H   UNL     1       4.290   6.529  19.546  0.00  0.00    +0.000 HD
BRANCH  17  22
ATOM     19  C   UNL     1       6.888   5.311  15.875  0.00  0.00    +0.000 A 
ATOM     20  C   UNL     1       5.548   5.592  15.697  0.00  0.00    +0.000 A 
ATOM     21  C   UNL     1       4.733   5.662  16.826  0.00  0.00    +0.000 A 
ATOM     22  C   UNL     1       5.266   5.499  18.105  0.00  0.00    +0.000 A 
ATOM     23  C   UNL     1       6.624   5.171  18.150  0.00  0.00    +0.000 A 
ATOM     24  N   UNL     1       7.449   5.086  17.080  0.00  0.00    +0.000 NA
BRANCH  19  26
ATOM     25  C   UNL     1       6.958   4.672  13.634  0.00  0.00    +0.000 C 
ATOM     26  O   UNL     1       7.656   5.251  14.730  0.00  0.00    +0.000 OA
ENDBRANCH  19  26
ENDBRANCH  17  22
ENDBRANCH   1  17
TORSDOF 4
ENDMDL
MODEL 7
REMARK VINA RESULT:      -8.0      1.277      1.382
REMARK  Name = 
REMARK  6 active torsions:
REMARK  status: ('A' for Active; 'I' for Inactive)
REMARK    1  A    between atoms: C_1  and  O_2
REMARK    2  A    between atoms: O_2  and  C_3
REMARK    3  A    between atoms: C_6  and  N_7
REMARK    4  A    between atoms: N_7  and  C_8
REMARK    5  A    between atoms: C_13  and  C_14
REMARK    6  A    between atoms: C_16  and  C_17
REMARK                            x       y       z     vdW  Elec       q    Type
REMARK                         _______ _______ _______ _____ _____    ______ ____
ROOT
ATOM      1  C   UNL     1       3.203   5.015  19.075  0.00  0.00    +0.000 A 
ATOM      2  N   UNL     1       2.034   4.328  19.015  0.00  0.00    +0.000 NA
ATOM      3  C   UNL     1       1.988   3.129  18.409  0.00  0.00    +0.000 A 
ATOM      4  C   UNL     1       3.077   2.550  17.807  0.00  0.00    +0.000 A 
ATOM      5  C   UNL     1       4.276   3.252  17.842  0.00  0.00    +0.000 A 
ATOM      6  C   UNL     1       4.380   4.506  18.484  0.00  0.00    +0.000 A 
ENDROOT
BRANCH   6   7
ATOM      7  C   UNL     1       5.695   5.166  18.570  0.00  0.00    +0.000 A 
ATOM      8  N   UNL     1       5.948   6.174  17.726  0.00  0.00    +0.000 NA
ATOM      9  C   UNL     1       7.089   6.827  17.958  0.00  0.00    +0.000 A 
ATOM     10  C   UNL     1       7.399   8.027  17.115  0.00  0.00    +0.000 C 
ATOM     11  N   UNL     1       7.966   6.506  18.907  0.00  0.00    +0.000 NA
ATOM     12  C   UNL     1       7.623   5.487  19.679  0.00  0.00    +0.000 A 
ATOM     13  N   UNL     1       8.496   5.126  20.684  0.00  0.00    +0.000 N 
ATOM     14  N   UNL     1       6.512   4.784  19.555  0.00  0.00    +0.000 NA
ATOM     15  H   UNL     1       9.434   5.432  20.470  0.00  0.00    +0.000 HD
ATOM     16  H   UNL     1       8.368   4.156  20.935  0.00  0.00    +0.000 HD
ENDBRANCH   6   7
BRANCH   1  17
ATOM     17  N   UNL     1       3.202   6.294  19.687  0.00  0.00    +0.000 N 
ATOM     18  H   UNL     1       3.312   6.191  20.695  0.00  0.00    +0.000 HD
BRANCH  17  22
ATOM     19  C   UNL     1       0.893   9.686  18.926  0.00  0.00    +0.000 A 
ATOM     20  C   UNL     1       1.648   9.189  17.882  0.00  0.00    +0.000 A 
ATOM     21  C   UNL     1       2.443   8.068  18.117  0.00  0.00    +0.000 A 
ATOM     22  C   UNL     1       2.441   7.438  19.361  0.00  0.00    +0.000 A 
ATOM     23  C   UNL     1       1.675   8.064  20.349  0.00  0.00    +0.000 A 
ATOM     24  N   UNL     1       0.895   9.156  20.165  0.00  0.00    +0.000 NA
BRANCH  19  26
ATOM     25  C   UNL     1      -1.194  10.453  18.227  0.00  0.00    +0.000 C 
ATOM     26  O   UNL     1       0.121  10.795  18.647  0.00  0.00    +0.000 OA
ENDBRANCH  19  26
ENDBRANCH  17  22
ENDBRANCH   1  17
TORSDOF 4
ENDMDL
MODEL 8
REMARK VINA RESULT:      -8.0      0.848      1.980
REMARK  Name = 
REMARK  6 active torsions:
REMARK  status: ('A' for Active; 'I' for Inactive)
REMARK    1  A    between atoms: C_1  and  O_2
REMARK    2  A    between atoms: O_2  and  C_3
REMARK    3  A    between atoms: C_6  and  N_7
REMARK    4  A    between atoms: N_7  and  C_8
REMARK    5  A    between atoms: C_13  and  C_14
REMARK    6  A    between atoms: C_16  and  C_17
REMARK                            x       y       z     vdW  Elec       q    Type
REMARK                         _______ _______ _______ _____ _____    ______ ____
ROOT
ATOM      1  C   UNL     1       2.952   4.401  19.433  0.00  0.00    +0.000 A 
ATOM      2  N   UNL     1       1.819   3.809  19.889  0.00  0.00    +0.000 NA
ATOM      3  C   UNL     1       1.489   2.575  19.469  0.00  0.00    +0.000 A 
ATOM      4  C   UNL     1       2.235   1.866  18.562  0.00  0.00    +0.000 A 
ATOM      5  C   UNL     1       3.386   2.468  18.070  0.00  0.00    +0.000 A 
ATOM      6  C   UNL     1       3.788   3.754  18.496  0.00  0.00    +0.000 A 
ENDROOT
BRANCH   6   7
ATOM      7  C   UNL     1       5.064   4.310  18.011  0.00  0.00    +0.000 A 
ATOM      8  N   UNL     1       5.898   4.846  18.912  0.00  0.00    +0.000 NA
ATOM      9  C   UNL     1       7.095   5.188  18.433  0.00  0.00    +0.000 A 
ATOM     10  C   UNL     1       8.118   5.708  19.397  0.00  0.00    +0.000 C 
ATOM     11  N   UNL     1       7.462   5.077  17.158  0.00  0.00    +0.000 NA
ATOM     12  C   UNL     1       6.558   4.544  16.350  0.00  0.00    +0.000 A 
ATOM     13  N   UNL     1       6.898   4.398  15.022  0.00  0.00    +0.000 N 
ATOM     14  N   UNL     1       5.352   4.151  16.718  0.00  0.00    +0.000 NA
ATOM     15  H   UNL     1       7.630   5.045  14.766  0.00  0.00    +0.000 HD
ATOM     16  H   UNL     1       6.071   4.377  14.443  0.00  0.00    +0.000 HD
ENDBRANCH   6   7
BRANCH   1  17
ATOM     17  N   UNL     1       3.246   5.718  19.867  0.00  0.00    +0.000 N 
ATOM     18  H   UNL     1       3.544   5.699  20.842  0.00  0.00    +0.000 HD
BRANCH  17  22
ATOM     19  C   UNL     1       1.383   9.274  18.727  0.00  0.00    +0.000 A 
ATOM     20  C   UNL     1       1.189   8.848  20.026  0.00  0.00    +0.000 A 
ATOM     21  C   UNL     1       1.784   7.652  20.425  0.00  0.00    +0.000 A 
ATOM     22  C   UNL     1       2.593   6.929  19.548  0.00  0.00    +0.000 A 
ATOM     23  C   UNL     1       2.673   7.437  18.249  0.00  0.00    +0.000 A 
ATOM     24  N   UNL     1       2.105   8.589  17.818  0.00  0.00    +0.000 NA
BRANCH  19  26
ATOM     25  C   UNL     1      -0.333  10.775  19.212  0.00  0.00    +0.000 C 
ATOM     26  O   UNL     1       0.775  10.463  18.377  0.00  0.00    +0.000 OA
ENDBRANCH  19  26
ENDBRANCH  17  22
ENDBRANCH   1  17
TORSDOF 4
ENDMDL
MODEL 9
REMARK VINA RESULT:      -7.9      1.556      2.231
REMARK  Name = 
REMARK  6 active torsions:
REMARK  status: ('A' for Active; 'I' for Inactive)
REMARK    1  A    between atoms: C_1  and  O_2
REMARK    2  A    between atoms: O_2  and  C_3
REMARK    3  A    between atoms: C_6  and  N_7
REMARK    4  A    between atoms: N_7  and  C_8
REMARK    5  A    between atoms: C_13  and  C_14
REMARK    6  A    between atoms: C_16  and  C_17
REMARK                            x       y       z     vdW  Elec       q    Type
REMARK                         _______ _______ _______ _____ _____    ______ ____
ROOT
ATOM      1  C   UNL     1       2.865   5.400  18.355  0.00  0.00    +0.000 A 
ATOM      2  N   UNL     1       1.743   4.837  18.872  0.00  0.00    +0.000 NA
ATOM      3  C   UNL     1       1.439   3.559  18.586  0.00  0.00    +0.000 A 
ATOM      4  C   UNL     1       2.202   2.772  17.761  0.00  0.00    +0.000 A 
ATOM      5  C   UNL     1       3.342   3.342  17.207  0.00  0.00    +0.000 A 
ATOM      6  C   UNL     1       3.715   4.675  17.493  0.00  0.00    +0.000 A 
ENDROOT
BRANCH   6   7
ATOM      7  C   UNL     1       4.981   5.202  16.952  0.00  0.00    +0.000 A 
ATOM      8  N   UNL     1       5.735   5.968  17.750  0.00  0.00    +0.000 NA
ATOM      9  C   UNL     1       6.934   6.284  17.257  0.00  0.00    +0.000 A 
ATOM     10  C   UNL     1       7.873   7.060  18.129  0.00  0.00    +0.000 C 
ATOM     11  N   UNL     1       7.372   5.933  16.049  0.00  0.00    +0.000 NA
ATOM     12  C   UNL     1       6.544   5.185  15.338  0.00  0.00    +0.000 A 
ATOM     13  N   UNL     1       6.961   4.788  14.085  0.00  0.00    +0.000 N 
ATOM     14  N   UNL     1       5.345   4.796  15.733  0.00  0.00    +0.000 NA
ATOM     15  H   UNL     1       7.666   5.415  13.726  0.00  0.00    +0.000 HD
ATOM     16  H   UNL     1       6.167   4.592  13.491  0.00  0.00    +0.000 HD
ENDBRANCH   6   7
BRANCH   1  17
ATOM     17  N   UNL     1       3.130   6.763  18.646  0.00  0.00    +0.000 N 
ATOM     18  H   UNL     1       3.937   6.829  19.265  0.00  0.00    +0.000 HD
BRANCH  17  22
ATOM     19  C   UNL     1       0.450   9.849  19.488  0.00  0.00    +0.000 A 
ATOM     20  C   UNL     1       0.874   9.720  18.180  0.00  0.00    +0.000 A 
ATOM     21  C   UNL     1       1.785   8.709  17.878  0.00  0.00    +0.000 A 
ATOM     22  C   UNL     1       2.222   7.822  18.861  0.00  0.00    +0.000 A 
ATOM     23  C   UNL     1       1.760   8.085  20.154  0.00  0.00    +0.000 A 
ATOM     24  N   UNL     1       0.881   9.059  20.492  0.00  0.00    +0.000 NA
BRANCH  19  26
ATOM     25  C   UNL     1      -0.619  11.110  21.131  0.00  0.00    +0.000 C 
ATOM     26  O   UNL     1      -0.451  10.863  19.740  0.00  0.00    +0.000 OA
ENDBRANCH  19  26
ENDBRANCH  17  22
ENDBRANCH   1  17
TORSDOF 4
ENDMDL
