MODEL 1
REMARK VINA RESULT:      -6.9      0.000      0.000
REMARK  Name = 
REMARK  7 active torsions:
REMARK  status: ('A' for Active; 'I' for Inactive)
REMARK    1  A    between atoms: C_1  and  C_2
REMARK    2  A    between atoms: C_2  and  C_3
REMARK    3  A    between atoms: C_2  and  C_4
REMARK    4  A    between atoms: C_2  and  N_5
REMARK    5  A    between atoms: C_13  and  O_14
REMARK    6  A    between atoms: C_13  and  C_15
REMARK    7  A    between atoms: C_18  and  N_19
REMARK                            x       y       z     vdW  Elec       q    Type
REMARK                         _______ _______ _______ _____ _____    ______ ____
ROOT
ATOM      1  N   UNL     1       3.317   4.483  18.534  0.00  0.00    +0.000 N 
ATOM      2  C   UNL     1       4.405   4.352  17.685  0.00  0.00    +0.000 A 
ATOM      3  N   UNL     1       4.457   3.552  16.611  0.00  0.00    +0.000 NA
ATOM      4  C   UNL     1       5.610   3.555  15.908  0.00  0.00    +0.000 A 
ATOM      5  C   UNL     1       6.703   4.333  16.239  0.00  0.00    +0.000 A 
ATOM      6  C   UNL     1       6.584   5.137  17.360  0.00  0.00    +0.000 A 
ATOM      7  N   UNL     1       5.437   5.120  18.051  0.00  0.00    +0.000 N 
ATOM      8  C   UNL     1       5.148   5.900  19.236  0.00  0.00    +0.000 C 
ATOM      9  C   UNL     1       3.668   5.498  19.518  0.00  0.00    +0.000 C 
ENDROOT
BRANCH   9  10
ATOM     10  C   UNL     1       2.786   6.745  19.453  0.00  0.00    +0.000 A 
ATOM     11  C   UNL     1       2.712   7.526  18.280  0.00  0.00    +0.000 A 
ATOM     12  C   UNL     1       1.913   8.674  18.223  0.00  0.00    +0.000 A 
ATOM     13  C   UNL     1       1.156   9.047  19.338  0.00  0.00    +0.000 A 
ATOM     14  C   UNL     1       1.206   8.287  20.511  0.00  0.00    +0.000 A 
ATOM     15  C   UNL     1       2.026   7.155  20.567  0.00  0.00    +0.000 A 
BRANCH  13  16
ATOM     16  N   UNL     1       0.300  10.239  19.274  0.00  0.00    +0.000 N 
ATOM     17  O   UNL     1       0.748  11.288  19.756  0.00  0.00    +0.000 OA
ATOM     18  O   UNL     1      -0.814  10.118  18.749  0.00  0.00    +0.000 OA
ENDBRANCH  13  16
ENDBRANCH   9  10
BRANCH   1  20
ATOM     19  C   UNL     1       2.262   2.302  17.998  0.00  0.00    +0.000 C 
ATOM     20  C   UNL     1       2.020   3.786  18.347  0.00  0.00    +0.000 C 
ATOM     21  C   UNL     1       1.192   4.455  17.233  0.00  0.00    +0.000 C 
ATOM     22  C   UNL     1       1.140   3.780  19.617  0.00  0.00    +0.000 C 
ENDBRANCH   1  20
BRANCH   9  23
ATOM     23  O   UNL     1       3.643   4.886  20.793  0.00  0.00    +0.000 OA
ATOM     24  H   UNL     1       3.463   3.943  20.632  0.00  0.00    +0.000 HD
ENDBRANCH   9  23
TORSDOF 4
ENDMDL
MODEL 2
REMARK VINA RESULT:      -6.9      0.158      1.192
REMARK  Name = 
REMARK  7 active torsions:
REMARK  status: ('A' for Active; 'I' for Inactive)
REMARK    1  A    between atoms: C_1  and  C_2
REMARK    2  A    between atoms: C_2  and  C_3
REMARK    3  A    between atoms: C_2  and  C_4
REMARK    4  A    between atoms: C_2  and  N_5
REMARK    5  A    between atoms: C_13  and  O_14
REMARK    6  A    between atoms: C_13  and  C_15
REMARK    7  A    between atoms: C_18  and  N_19
REMARK                            x       y       z     vdW  Elec       q    Type
REMARK                         _______ _______ _______ _____ _____    ______ ____
ROOT
ATOM      1  N   UNL     1       3.358   4.499  18.507  0.00  0.00    +0.000 N 
ATOM      2  C   UNL     1       4.445   4.369  17.659  0.00  0.00    +0.000 A 
ATOM      3  N   UNL     1       4.501   3.559  16.592  0.00  0.00    +0.000 NA
ATOM      4  C   UNL     1       5.652   3.564  15.886  0.00  0.00    +0.000 A 
ATOM      5  C   UNL     1       6.741   4.352  16.209  0.00  0.00    +0.000 A 
ATOM      6  C   UNL     1       6.619   5.165  17.322  0.00  0.00    +0.000 A 
ATOM      7  N   UNL     1       5.472   5.147  18.016  0.00  0.00    +0.000 N 
ATOM      8  C   UNL     1       5.180   5.936  19.193  0.00  0.00    +0.000 C 
ATOM      9  C   UNL     1       3.703   5.526  19.481  0.00  0.00    +0.000 C 
ENDROOT
BRANCH   9  10
ATOM     10  C   UNL     1       2.813   6.766  19.406  0.00  0.00    +0.000 A 
ATOM     11  C   UNL     1       2.047   7.184  20.516  0.00  0.00    +0.000 A 
ATOM     12  C   UNL     1       1.223   8.312  20.444  0.00  0.00    +0.000 A 
ATOM     13  C   UNL     1       1.170   9.058  19.262  0.00  0.00    +0.000 A 
ATOM     14  C   UNL     1       1.923   8.670  18.149  0.00  0.00    +0.000 A 
ATOM     15  C   UNL     1       2.725   7.526  18.222  0.00  0.00    +0.000 A 
BRANCH  13  16
ATOM     16  N   UNL     1       0.323  10.256  19.192  0.00  0.00    +0.000 N 
ATOM     17  O   UNL     1      -0.519  10.306  18.285  0.00  0.00    +0.000 OA
ATOM     18  O   UNL     1       0.507  11.139  20.038  0.00  0.00    +0.000 OA
ENDBRANCH  13  16
ENDBRANCH   9  10
BRANCH   1  20
ATOM     19  C   UNL     1       2.317   2.306  17.994  0.00  0.00    +0.000 C 
ATOM     20  C   UNL     1       2.065   3.792  18.330  0.00  0.00    +0.000 C 
ATOM     21  C   UNL     1       1.231   4.444  17.210  0.00  0.00    +0.000 C 
ATOM     22  C   UNL     1       1.187   3.792  19.600  0.00  0.00    +0.000 C 
ENDBRANCH   1  20
BRANCH   9  23
ATOM     23  O   UNL     1       3.685   4.926  20.762  0.00  0.00    +0.000 OA
ATOM     24  H   UNL     1       4.460   5.278  21.232  0.00  0.00    +0.000 HD
ENDBRANCH   9  23
TORSDOF 4
ENDMDL
MODEL 3
REMARK VINA RESULT:      -6.8      0.834      1.311
REMARK  Name = 
REMARK  7 active torsions:
REMARK  status: ('A' for Active; 'I' for Inactive)
REMARK    1  A    between atoms: C_1  and  C_2
REMARK    2  A    between atoms: C_2  and  C_3
REMARK    3  A    between atoms: C_2  and  C_4
REMARK    4  A    between atoms: C_2  and  N_5
REMARK    5  A    between atoms: C_13  and  O_14
REMARK    6  A    between atoms: C_13  and  C_15
REMARK    7  A    between atoms: C_18  and  N_19
REMARK                            x       y       z     vdW  Elec       q    Type
REMARK                         _______ _______ _______ _____ _____    ______ ____
ROOT
ATOM      1  N   UNL     1       3.907   4.583  18.059  0.00  0.00    +0.000 N 
ATOM      2  C   UNL     1       4.816   4.485  17.018  0.00  0.00    +0.000 A 
ATOM      3  N   UNL     1       4.765   3.581  16.029  0.00  0.00    +0.000 NA
ATOM      4  C   UNL     1       5.748   3.638  15.105  0.00  0.00    +0.000 A 
ATOM      5  C   UNL     1       6.769   4.568  15.134  0.00  0.00    +0.000 A 
ATOM      6  C   UNL     1       6.764   5.472  16.182  0.00  0.00    +0.000 A 
ATOM      7  N   UNL     1       5.786   5.402  17.095  0.00  0.00    +0.000 N 
ATOM      8  C   UNL     1       5.631   6.270  18.242  0.00  0.00    +0.000 C 
ATOM      9  C   UNL     1       4.302   5.735  18.858  0.00  0.00    +0.000 C 
ENDROOT
BRANCH   9  10
ATOM     10  C   UNL     1       3.265   6.858  18.870  0.00  0.00    +0.000 A 
ATOM     11  C   UNL     1       2.451   7.088  20.000  0.00  0.00    +0.000 A 
ATOM     12  C   UNL     1       1.494   8.109  20.008  0.00  0.00    +0.000 A 
ATOM     13  C   UNL     1       1.351   8.933  18.887  0.00  0.00    +0.000 A 
ATOM     14  C   UNL     1       2.149   8.731  17.756  0.00  0.00    +0.000 A 
ATOM     15  C   UNL     1       3.086   7.692  17.749  0.00  0.00    +0.000 A 
BRANCH  13  16
ATOM     16  N   UNL     1       0.362  10.019  18.902  0.00  0.00    +0.000 N 
ATOM     17  O   UNL     1       0.408  10.819  19.846  0.00  0.00    +0.000 OA
ATOM     18  O   UNL     1      -0.457  10.061  17.975  0.00  0.00    +0.000 OA
ENDBRANCH  13  16
ENDBRANCH   9  10
BRANCH   1  20
ATOM     19  C   UNL     1       3.008   2.298  17.706  0.00  0.00    +0.000 C 
ATOM     20  C   UNL     1       2.704   3.726  18.206  0.00  0.00    +0.000 C 
ATOM     21  C   UNL     1       1.514   4.311  17.421  0.00  0.00    +0.000 C 
ATOM     22  C   UNL     1       2.240   3.568  19.671  0.00  0.00    +0.000 C 
ENDBRANCH   1  20
BRANCH   9  23
ATOM     23  O   UNL     1       4.609   5.270  20.159  0.00  0.00    +0.000 OA
ATOM     24  H   UNL     1       4.879   6.056  20.665  0.00  0.00    +0.000 HD
ENDBRANCH   9  23
TORSDOF 4
ENDMDL
MODEL 4
REMARK VINA RESULT:      -6.8      0.091      1.354
REMARK  Name = 
REMARK  7 active torsions:
REMARK  status: ('A' for Active; 'I' for Inactive)
REMARK    1  A    between atoms: C_1  and  C_2
REMARK    2  A    between atoms: C_2  and  C_3
REMARK    3  A    between atoms: C_2  and  C_4
REMARK    4  A    between atoms: C_2  and  N_5
REMARK    5  A    between atoms: C_13  and  O_14
REMARK    6  A    between atoms: C_13  and  C_15
REMARK    7  A    between atoms: C_18  and  N_19
REMARK                            x       y       z     vdW  Elec       q    Type
REMARK                         _______ _______ _______ _____ _____    ______ ____
ROOT
ATOM      1  N   UNL     1       3.350   4.491  18.524  0.00  0.00    +0.000 N 
ATOM      2  C   UNL     1       4.441   4.346  17.683  0.00  0.00    +0.000 A 
ATOM      3  N   UNL     1       4.498   3.525  16.624  0.00  0.00    +0.000 NA
ATOM      4  C   UNL     1       5.654   3.517  15.925  0.00  0.00    +0.000 A 
ATOM      5  C   UNL     1       6.745   4.303  16.246  0.00  0.00    +0.000 A 
ATOM      6  C   UNL     1       6.621   5.128  17.350  0.00  0.00    +0.000 A 
ATOM      7  N   UNL     1       5.470   5.123  18.037  0.00  0.00    +0.000 N 
ATOM      8  C   UNL     1       5.175   5.925  19.205  0.00  0.00    +0.000 C 
ATOM      9  C   UNL     1       3.695   5.526  19.489  0.00  0.00    +0.000 C 
ENDROOT
BRANCH   9  10
ATOM     10  C   UNL     1       2.811   6.769  19.396  0.00  0.00    +0.000 A 
ATOM     11  C   UNL     1       2.037   7.199  20.495  0.00  0.00    +0.000 A 
ATOM     12  C   UNL     1       1.220   8.331  20.408  0.00  0.00    +0.000 A 
ATOM     13  C   UNL     1       1.181   9.068  19.220  0.00  0.00    +0.000 A 
ATOM     14  C   UNL     1       1.943   8.668  18.117  0.00  0.00    +0.000 A 
ATOM     15  C   UNL     1       2.739   7.521  18.206  0.00  0.00    +0.000 A 
BRANCH  13  16
ATOM     16  N   UNL     1       0.341  10.269  19.133  0.00  0.00    +0.000 N 
ATOM     17  O   UNL     1       0.756  11.297  19.685  0.00  0.00    +0.000 OA
ATOM     18  O   UNL     1      -0.730  10.177  18.519  0.00  0.00    +0.000 OA
ENDBRANCH  13  16
ENDBRANCH   9  10
BRANCH   1  20
ATOM     19  C   UNL     1       1.250   4.444  17.203  0.00  0.00    +0.000 C 
ATOM     20  C   UNL     1       2.055   3.788  18.346  0.00  0.00    +0.000 C 
ATOM     21  C   UNL     1       1.229   3.819  19.647  0.00  0.00    +0.000 C 
ATOM     22  C   UNL     1       2.212   2.304  17.951  0.00  0.00    +0.000 C 
ENDBRANCH   1  20
BRANCH   9  23
ATOM     23  O   UNL     1       3.666   4.938  20.776  0.00  0.00    +0.000 OA
ATOM     24  H   UNL     1       3.722   3.978  20.632  0.00  0.00    +0.000 HD
ENDBRANCH   9  23
TORSDOF 4
ENDMDL
MODEL 5
REMARK VINA RESULT:      -6.8      0.835      1.261
REMARK  Name = 
REMARK  7 active torsions:
REMARK  status: ('A' for Active; 'I' for Inactive)
REMARK    1  A    between atoms: C_1  and  C_2
REMARK    2  A    between atoms: C_2  and  C_3
REMARK    3  A    between atoms: C_2  and  C_4
REMARK    4  A    between atoms: C_2  and  N_5
REMARK    5  A    between atoms: C_13  and  O_14
REMARK    6  A    between atoms: C_13  and  C_15
REMARK    7  A    between atoms: C_18  and  N_19
REMARK                            x       y       z     vdW  Elec       q    Type
REMARK                         _______ _______ _______ _____ _____    ______ ____
ROOT
ATOM      1  N   UNL     1       3.883   4.617  18.050  0.00  0.00    +0.000 N 
ATOM      2  C   UNL     1       4.801   4.508  17.017  0.00  0.00    +0.000 A 
ATOM      3  N   UNL     1       4.753   3.598  16.033  0.00  0.00    +0.000 NA
ATOM      4  C   UNL     1       5.744   3.645  15.116  0.00  0.00    +0.000 A 
ATOM      5  C   UNL     1       6.769   4.571  15.147  0.00  0.00    +0.000 A 
ATOM      6  C   UNL     1       6.759   5.483  16.189  0.00  0.00    +0.000 A 
ATOM      7  N   UNL     1       5.773   5.422  17.095  0.00  0.00    +0.000 N 
ATOM      8  C   UNL     1       5.613   6.298  18.235  0.00  0.00    +0.000 C 
ATOM      9  C   UNL     1       4.277   5.772  18.844  0.00  0.00    +0.000 C 
ENDROOT
BRANCH   9  10
ATOM     10  C   UNL     1       3.244   6.899  18.841  0.00  0.00    +0.000 A 
ATOM     11  C   UNL     1       3.091   7.746  17.723  0.00  0.00    +0.000 A 
ATOM     12  C   UNL     1       2.153   8.785  17.723  0.00  0.00    +0.000 A 
ATOM     13  C   UNL     1       1.334   8.978  18.840  0.00  0.00    +0.000 A 
ATOM     14  C   UNL     1       1.460   8.149  19.959  0.00  0.00    +0.000 A 
ATOM     15  C   UNL     1       2.418   7.129  19.959  0.00  0.00    +0.000 A 
BRANCH  13  16
ATOM     16  N   UNL     1       0.334  10.054  18.834  0.00  0.00    +0.000 N 
ATOM     17  O   UNL     1       0.418  10.915  19.720  0.00  0.00    +0.000 OA
ATOM     18  O   UNL     1      -0.532  10.027  17.951  0.00  0.00    +0.000 OA
ENDBRANCH  13  16
ENDBRANCH   9  10
BRANCH   1  20
ATOM     19  C   UNL     1       1.488   4.401  17.440  0.00  0.00    +0.000 C 
ATOM     20  C   UNL     1       2.676   3.765  18.193  0.00  0.00    +0.000 C 
ATOM     21  C   UNL     1       2.310   3.576  19.678  0.00  0.00    +0.000 C 
ATOM     22  C   UNL     1       2.847   2.353  17.590  0.00  0.00    +0.000 C 
ENDBRANCH   1  20
BRANCH   9  23
ATOM     23  O   UNL     1       4.572   5.315  20.150  0.00  0.00    +0.000 OA
ATOM     24  H   UNL     1       3.781   4.833  20.448  0.00  0.00    +0.000 HD
ENDBRANCH   9  23
TORSDOF 4
ENDMDL
MODEL 6
REMARK VINA RESULT:      -6.7      0.247      1.080
REMARK  Name = 
REMARK  7 active torsions:
REMARK  status: ('A' for Active; 'I' for Inactive)
REMARK    1  A    between atoms: C_1  and  C_2
REMARK    2  A    between atoms: C_2  and  C_3
REMARK    3  A    between atoms: C_2  and  C_4
REMARK    4  A    between atoms: C_2  and  N_5
REMARK    5  A    between atoms: C_13  and  O_14
REMARK    6  A    between atoms: C_13  and  C_15
REMARK    7  A    between atoms: C_18  and  N_19
REMARK                            x       y       z     vdW  Elec       q    Type
REMARK                         _______ _______ _______ _____ _____    ______ ____
ROOT
ATOM      1  N   UNL     1       3.371   4.488  18.488  0.00  0.00    +0.000 N 
ATOM      2  C   UNL     1       4.466   4.376  17.646  0.00  0.00    +0.000 A 
ATOM      3  N   UNL     1       4.531   3.589  16.562  0.00  0.00    +0.000 NA
ATOM      4  C   UNL     1       5.689   3.610  15.867  0.00  0.00    +0.000 A 
ATOM      5  C   UNL     1       6.774   4.392  16.215  0.00  0.00    +0.000 A 
ATOM      6  C   UNL     1       6.641   5.181  17.344  0.00  0.00    +0.000 A 
ATOM      7  N   UNL     1       5.489   5.148  18.028  0.00  0.00    +0.000 N 
ATOM      8  C   UNL     1       5.186   5.911  19.219  0.00  0.00    +0.000 C 
ATOM      9  C   UNL     1       3.708   5.494  19.486  0.00  0.00    +0.000 C 
ENDROOT
BRANCH   9  10
ATOM     10  C   UNL     1       2.817   6.735  19.430  0.00  0.00    +0.000 A 
ATOM     11  C   UNL     1       2.711   7.505  18.252  0.00  0.00    +0.000 A 
ATOM     12  C   UNL     1       1.904   8.647  18.203  0.00  0.00    +0.000 A 
ATOM     13  C   UNL     1       1.169   9.026  19.332  0.00  0.00    +0.000 A 
ATOM     14  C   UNL     1       1.251   8.277  20.510  0.00  0.00    +0.000 A 
ATOM     15  C   UNL     1       2.080   7.151  20.557  0.00  0.00    +0.000 A 
BRANCH  13  16
ATOM     16  N   UNL     1       0.305  10.212  19.276  0.00  0.00    +0.000 N 
ATOM     17  O   UNL     1      -0.306  10.423  18.219  0.00  0.00    +0.000 OA
ATOM     18  O   UNL     1       0.247  10.927  20.284  0.00  0.00    +0.000 OA
ENDBRANCH  13  16
ENDBRANCH   9  10
BRANCH   1  20
ATOM     19  C   UNL     1       1.244   3.827  19.581  0.00  0.00    +0.000 C 
ATOM     20  C   UNL     1       2.081   3.784  18.285  0.00  0.00    +0.000 C 
ATOM     21  C   UNL     1       2.314   2.319  17.865  0.00  0.00    +0.000 C 
ATOM     22  C   UNL     1       1.197   4.427  17.194  0.00  0.00    +0.000 C 
ENDBRANCH   1  20
BRANCH   9  23
ATOM     23  O   UNL     1       3.679   4.867  20.754  0.00  0.00    +0.000 OA
ATOM     24  H   UNL     1       2.795   4.470  20.835  0.00  0.00    +0.000 HD
ENDBRANCH   9  23
TORSDOF 4
ENDMDL
MODEL 7
REMARK VINA RESULT:      -6.7      0.839      1.660
REMARK  Name = 
REMARK  7 active torsions:
REMARK  status: ('A' for Active; 'I' for Inactive)
REMARK    1  A    between atoms: C_1  and  C_2
REMARK    2  A    between atoms: C_2  and  C_3
REMARK    3  A    between atoms: C_2  and  C_4
REMARK    4  A    between atoms: C_2  and  N_5
REMARK    5  A    between atoms: C_13  and  O_14
REMARK    6  A    between atoms: C_13  and  C_15
REMARK    7  A    between atoms: C_18  and  N_19
REMARK                            x       y       z     vdW  Elec       q    Type
REMARK                         _______ _______ _______ _____ _____    ______ ____
ROOT
ATOM      1  N   UNL     1       3.909   4.611  18.043  0.00  0.00    +0.000 N 
ATOM      2  C   UNL     1       4.836   4.511  17.018  0.00  0.00    +0.000 A 
ATOM      3  N   UNL     1       4.796   3.611  16.025  0.00  0.00    +0.000 NA
ATOM      4  C   UNL     1       5.796   3.665  15.118  0.00  0.00    +0.000 A 
ATOM      5  C   UNL     1       6.822   4.589  15.168  0.00  0.00    +0.000 A 
ATOM      6  C   UNL     1       6.804   5.490  16.218  0.00  0.00    +0.000 A 
ATOM      7  N   UNL     1       5.809   5.422  17.114  0.00  0.00    +0.000 N 
ATOM      8  C   UNL     1       5.639   6.288  18.261  0.00  0.00    +0.000 C 
ATOM      9  C   UNL     1       4.297   5.759  18.852  0.00  0.00    +0.000 C 
ENDROOT
BRANCH   9  10
ATOM     10  C   UNL     1       3.266   6.887  18.850  0.00  0.00    +0.000 A 
ATOM     11  C   UNL     1       2.434   7.118  19.966  0.00  0.00    +0.000 A 
ATOM     12  C   UNL     1       1.482   8.144  19.960  0.00  0.00    +0.000 A 
ATOM     13  C   UNL     1       1.363   8.973  18.840  0.00  0.00    +0.000 A 
ATOM     14  C   UNL     1       2.179   8.770  17.723  0.00  0.00    +0.000 A 
ATOM     15  C   UNL     1       3.111   7.726  17.728  0.00  0.00    +0.000 A 
BRANCH  13  16
ATOM     16  N   UNL     1       0.380  10.064  18.841  0.00  0.00    +0.000 N 
ATOM     17  O   UNL     1      -0.515  10.026  17.985  0.00  0.00    +0.000 OA
ATOM     18  O   UNL     1       0.511  10.955  19.690  0.00  0.00    +0.000 OA
ENDBRANCH  13  16
ENDBRANCH   9  10
BRANCH   1  20
ATOM     19  C   UNL     1       2.302   3.618  19.651  0.00  0.00    +0.000 C 
ATOM     20  C   UNL     1       2.699   3.761  18.166  0.00  0.00    +0.000 C 
ATOM     21  C   UNL     1       2.943   2.367  17.557  0.00  0.00    +0.000 C 
ATOM     22  C   UNL     1       1.461   4.350  17.456  0.00  0.00    +0.000 C 
ENDBRANCH   1  20
BRANCH   9  23
ATOM     23  O   UNL     1       4.578   5.288  20.157  0.00  0.00    +0.000 OA
ATOM     24  H   UNL     1       4.164   4.410  20.218  0.00  0.00    +0.000 HD
ENDBRANCH   9  23
TORSDOF 4
ENDMDL
MODEL 8
REMARK VINA RESULT:      -6.7      3.067      6.146
REMARK  Name = 
REMARK  7 active torsions:
REMARK  status: ('A' for Active; 'I' for Inactive)
REMARK    1  A    between atoms: C_1  and  C_2
REMARK    2  A    between atoms: C_2  and  C_3
REMARK    3  A    between atoms: C_2  and  C_4
REMARK    4  A    between atoms: C_2  and  N_5
REMARK    5  A    between atoms: C_13  and  O_14
REMARK    6  A    between atoms: C_13  and  C_15
REMARK    7  A    between atoms: C_18  and  N_19
REMARK                            x       y       z     vdW  Elec       q    Type
REMARK                         _______ _______ _______ _____ _____    ______ ____
ROOT
ATOM      1  N   UNL     1       3.512   5.346  18.893  0.00  0.00    +0.000 N 
ATOM      2  C   UNL     1       2.726   4.313  19.379  0.00  0.00    +0.000 A 
ATOM      3  N   UNL     1       1.396   4.362  19.538  0.00  0.00    +0.000 NA
ATOM      4  C   UNL     1       0.804   3.254  20.033  0.00  0.00    +0.000 A 
ATOM      5  C   UNL     1       1.494   2.103  20.365  0.00  0.00    +0.000 A 
ATOM      6  C   UNL     1       2.865   2.118  20.176  0.00  0.00    +0.000 A 
ATOM      7  N   UNL     1       3.441   3.226  19.689  0.00  0.00    +0.000 N 
ATOM      8  C   UNL     1       4.853   3.404  19.427  0.00  0.00    +0.000 C 
ATOM      9  C   UNL     1       4.876   4.842  18.822  0.00  0.00    +0.000 C 
ENDROOT
BRANCH   9  10
ATOM     10  C   UNL     1       5.435   4.781  17.401  0.00  0.00    +0.000 A 
ATOM     11  C   UNL     1       4.670   4.257  16.337  0.00  0.00    +0.000 A 
ATOM     12  C   UNL     1       5.184   4.191  15.038  0.00  0.00    +0.000 A 
ATOM     13  C   UNL     1       6.471   4.671  14.777  0.00  0.00    +0.000 A 
ATOM     14  C   UNL     1       7.249   5.201  15.811  0.00  0.00    +0.000 A 
ATOM     15  C   UNL     1       6.735   5.241  17.112  0.00  0.00    +0.000 A 
BRANCH  13  16
ATOM     16  N   UNL     1       7.005   4.623  13.409  0.00  0.00    +0.000 N 
ATOM     17  O   UNL     1       6.583   3.729  12.664  0.00  0.00    +0.000 OA
ATOM     18  O   UNL     1       7.847   5.473  13.092  0.00  0.00    +0.000 OA
ENDBRANCH  13  16
ENDBRANCH   9  10
BRANCH   1  20
ATOM     19  C   UNL     1       2.476   7.476  19.631  0.00  0.00    +0.000 C 
ATOM     20  C   UNL     1       2.985   6.653  18.428  0.00  0.00    +0.000 C 
ATOM     21  C   UNL     1       1.843   6.456  17.412  0.00  0.00    +0.000 C 
ATOM     22  C   UNL     1       4.051   7.533  17.738  0.00  0.00    +0.000 C 
ENDBRANCH   1  20
BRANCH   9  23
ATOM     23  O   UNL     1       5.672   5.636  19.681  0.00  0.00    +0.000 OA
ATOM     24  H   UNL     1       6.482   5.839  19.181  0.00  0.00    +0.000 HD
ENDBRANCH   9  23
TORSDOF 4
ENDMDL
MODEL 9
REMARK VINA RESULT:      -6.7      3.068      6.138
REMARK  Name = 
REMARK  7 active torsions:
REMARK  status: ('A' for Active; 'I' for Inactive)
REMARK    1  A    between atoms: C_1  and  C_2
REMARK    2  A    between atoms: C_2  and  C_3
REMARK    3  A    between atoms: C_2  and  C_4
REMARK    4  A    between atoms: C_2  and  N_5
REMARK    5  A    between atoms: C_13  and  O_14
REMARK    6  A    between atoms: C_13  and  C_15
REMARK    7  A    between atoms: C_18  and  N_19
REMARK                            x       y       z     vdW  Elec       q    Type
REMARK                         _______ _______ _______ _____ _____    ______ ____
ROOT
ATOM      1  N   UNL     1       3.506   5.333  18.884  0.00  0.00    +0.000 N 
ATOM      2  C   UNL     1       2.719   4.293  19.352  0.00  0.00    +0.000 A 
ATOM      3  N   UNL     1       1.389   4.338  19.506  0.00  0.00    +0.000 NA
ATOM      4  C   UNL     1       0.795   3.223  19.984  0.00  0.00    +0.000 A 
ATOM      5  C   UNL     1       1.485   2.069  20.304  0.00  0.00    +0.000 A 
ATOM      6  C   UNL     1       2.857   2.088  20.122  0.00  0.00    +0.000 A 
ATOM      7  N   UNL     1       3.434   3.203  19.652  0.00  0.00    +0.000 N 
ATOM      8  C   UNL     1       4.847   3.386  19.399  0.00  0.00    +0.000 C 
ATOM      9  C   UNL     1       4.872   4.831  18.813  0.00  0.00    +0.000 C 
ENDROOT
BRANCH   9  10
ATOM     10  C   UNL     1       5.437   4.790  17.394  0.00  0.00    +0.000 A 
ATOM     11  C   UNL     1       6.716   5.310  17.102  0.00  0.00    +0.000 A 
ATOM     12  C   UNL     1       7.230   5.282  15.801  0.00  0.00    +0.000 A 
ATOM     13  C   UNL     1       6.477   4.710  14.770  0.00  0.00    +0.000 A 
ATOM     14  C   UNL     1       5.208   4.182  15.033  0.00  0.00    +0.000 A 
ATOM     15  C   UNL     1       4.693   4.237  16.333  0.00  0.00    +0.000 A 
BRANCH  13  16
ATOM     16  N   UNL     1       7.023   4.660  13.408  0.00  0.00    +0.000 N 
ATOM     17  O   UNL     1       6.594   3.776  12.654  0.00  0.00    +0.000 OA
ATOM     18  O   UNL     1       7.880   5.499  13.102  0.00  0.00    +0.000 OA
ENDBRANCH  13  16
ENDBRANCH   9  10
BRANCH   1  20
ATOM     19  C   UNL     1       2.475   7.458  19.645  0.00  0.00    +0.000 C 
ATOM     20  C   UNL     1       2.979   6.645  18.433  0.00  0.00    +0.000 C 
ATOM     21  C   UNL     1       1.834   6.459  17.419  0.00  0.00    +0.000 C 
ATOM     22  C   UNL     1       4.045   7.530  17.749  0.00  0.00    +0.000 C 
ENDBRANCH   1  20
BRANCH   9  23
ATOM     23  O   UNL     1       5.662   5.616  19.686  0.00  0.00    +0.000 OA
ATOM     24  H   UNL     1       5.887   5.037  20.434  0.00  0.00    +0.000 HD
ENDBRANCH   9  23
TORSDOF 4
ENDMDL
