MODEL 1
REMARK VINA RESULT:      -7.3      0.000      0.000
REMARK  Name = 
REMARK  3 active torsions:
REMARK  status: ('A' for Active; 'I' for Inactive)
REMARK    1  A    between atoms: C_2  and  C_3
REMARK    2  A    between atoms: C_3  and  N_4
REMARK    3  A    between atoms: C_6  and  C_7
REMARK                            x       y       z     vdW  Elec       q    Type
REMARK                         _______ _______ _______ _____ _____    ______ ____
ROOT
ATOM      1  N   UNL     1       7.690   6.757  18.177  0.00  0.00    +0.000 N 
ATOM      2  C   UNL     1       8.471   7.652  18.847  0.00  0.00    +0.000 A 
ATOM      3  C   UNL     1       8.248   8.848  18.203  0.00  0.00    +0.000 A 
ATOM      4  N   UNL     1       7.385   8.631  17.157  0.00  0.00    +0.000 NA
ATOM      5  N   UNL     1       7.079   7.340  17.130  0.00  0.00    +0.000 NA
ENDROOT
BRANCH   3   6
ATOM      6  C   UNL     1       8.817  10.135  18.542  0.00  0.00    +0.000 A 
ATOM      7  C   UNL     1       8.664  11.247  17.708  0.00  0.00    +0.000 A 
ATOM      8  C   UNL     1       9.237  12.448  18.084  0.00  0.00    +0.000 A 
ATOM      9  N   UNL     1       9.945  12.616  19.222  0.00  0.00    +0.000 NA
ATOM     10  C   UNL     1      10.081  11.534  20.015  0.00  0.00    +0.000 A 
ATOM     11  C   UNL     1       9.542  10.289  19.725  0.00  0.00    +0.000 A 
ENDBRANCH   3   6
BRANCH   1  12
ATOM     12  C   UNL     1       7.585   5.337  18.416  0.00  0.00    +0.000 C 
BRANCH  12  14
ATOM     13  O   UNL     1       7.978   4.357  16.273  0.00  0.00    +0.000 OA
ATOM     14  C   UNL     1       7.156   4.586  17.170  0.00  0.00    +0.000 C 
ATOM     15  N   UNL     1       5.874   4.167  16.976  0.00  0.00    +0.000 N 
ATOM     16  C   UNL     1       4.875   4.234  17.898  0.00  0.00    +0.000 A 
ATOM     17  N   UNL     1       4.955   4.631  19.137  0.00  0.00    +0.000 NA
ATOM     18  C   UNL     1       3.720   4.525  19.737  0.00  0.00    +0.000 A 
ATOM     19  C   UNL     1       2.702   4.096  18.912  0.00  0.00    +0.000 A 
ATOM     20  S   UNL     1       3.338   3.739  17.355  0.00  0.00    +0.000 S 
ATOM     21  H   UNL     1       5.667   3.730  16.089  0.00  0.00    +0.000 HD
ENDBRANCH  12  14
ENDBRANCH   1  12
TORSDOF 3
ENDMDL
MODEL 2
REMARK VINA RESULT:      -7.2      0.071      1.051
REMARK  Name = 
REMARK  3 active torsions:
REMARK  status: ('A' for Active; 'I' for Inactive)
REMARK    1  A    between atoms: C_2  and  C_3
REMARK    2  A    between atoms: C_3  and  N_4
REMARK    3  A    between atoms: C_6  and  C_7
REMARK                            x       y       z     vdW  Elec       q    Type
REMARK                         _______ _______ _______ _____ _____    ______ ____
ROOT
ATOM      1  N   UNL     1       7.688   6.765  18.166  0.00  0.00    +0.000 N 
ATOM      2  C   UNL     1       8.458   7.669  18.836  0.00  0.00    +0.000 A 
ATOM      3  C   UNL     1       8.239   8.858  18.178  0.00  0.00    +0.000 A 
ATOM      4  N   UNL     1       7.388   8.629  17.124  0.00  0.00    +0.000 NA
ATOM      5  N   UNL     1       7.086   7.336  17.106  0.00  0.00    +0.000 NA
ENDROOT
BRANCH   3   6
ATOM      6  C   UNL     1       8.800  10.150  18.511  0.00  0.00    +0.000 A 
ATOM      7  C   UNL     1       9.601  10.332  19.643  0.00  0.00    +0.000 A 
ATOM      8  C   UNL     1      10.100  11.593  19.912  0.00  0.00    +0.000 A 
ATOM      9  N   UNL     1       9.860  12.674  19.140  0.00  0.00    +0.000 NA
ATOM     10  C   UNL     1       9.087  12.480  18.051  0.00  0.00    +0.000 A 
ATOM     11  C   UNL     1       8.542  11.255  17.698  0.00  0.00    +0.000 A 
ENDBRANCH   3   6
BRANCH   1  12
ATOM     12  C   UNL     1       7.584   5.347  18.416  0.00  0.00    +0.000 C 
BRANCH  12  14
ATOM     13  O   UNL     1       7.987   4.337  16.289  0.00  0.00    +0.000 OA
ATOM     14  C   UNL     1       7.160   4.584  17.176  0.00  0.00    +0.000 C 
ATOM     15  N   UNL     1       5.877   4.173  16.976  0.00  0.00    +0.000 N 
ATOM     16  C   UNL     1       4.870   4.260  17.888  0.00  0.00    +0.000 A 
ATOM     17  N   UNL     1       4.943   4.671  19.123  0.00  0.00    +0.000 NA
ATOM     18  C   UNL     1       3.701   4.583  19.714  0.00  0.00    +0.000 A 
ATOM     19  C   UNL     1       2.687   4.152  18.885  0.00  0.00    +0.000 A 
ATOM     20  S   UNL     1       3.334   3.771  17.338  0.00  0.00    +0.000 S 
ATOM     21  H   UNL     1       5.674   3.727  16.093  0.00  0.00    +0.000 HD
ENDBRANCH  12  14
ENDBRANCH   1  12
TORSDOF 3
ENDMDL
MODEL 3
REMARK VINA RESULT:      -6.9      0.930      1.597
REMARK  Name = 
REMARK  3 active torsions:
REMARK  status: ('A' for Active; 'I' for Inactive)
REMARK    1  A    between atoms: C_2  and  C_3
REMARK    2  A    between atoms: C_3  and  N_4
REMARK    3  A    between atoms: C_6  and  C_7
REMARK                            x       y       z     vdW  Elec       q    Type
REMARK                         _______ _______ _______ _____ _____    ______ ____
ROOT
ATOM      1  N   UNL     1       7.371   7.183  17.549  0.00  0.00    +0.000 N 
ATOM      2  C   UNL     1       7.538   8.530  17.416  0.00  0.00    +0.000 A 
ATOM      3  C   UNL     1       8.405   8.867  18.429  0.00  0.00    +0.000 A 
ATOM      4  N   UNL     1       8.697   7.738  19.155  0.00  0.00    +0.000 NA
ATOM      5  N   UNL     1       8.029   6.720  18.628  0.00  0.00    +0.000 NA
ENDROOT
BRANCH   3   6
ATOM      6  C   UNL     1       8.937  10.184  18.714  0.00  0.00    +0.000 A 
ATOM      7  C   UNL     1       9.578  10.469  19.924  0.00  0.00    +0.000 A 
ATOM      8  C   UNL     1      10.057  11.748  20.139  0.00  0.00    +0.000 A 
ATOM      9  N   UNL     1       9.945  12.751  19.243  0.00  0.00    +0.000 NA
ATOM     10  C   UNL     1       9.326  12.457  18.081  0.00  0.00    +0.000 A 
ATOM     11  C   UNL     1       8.814  11.206  17.772  0.00  0.00    +0.000 A 
ENDBRANCH   3   6
BRANCH   1  12
ATOM     12  C   UNL     1       6.515   6.326  16.763  0.00  0.00    +0.000 C 
BRANCH  12  14
ATOM     13  O   UNL     1       7.860   4.392  16.362  0.00  0.00    +0.000 OA
ATOM     14  C   UNL     1       6.870   4.862  16.938  0.00  0.00    +0.000 C 
ATOM     15  N   UNL     1       6.117   4.014  17.694  0.00  0.00    +0.000 N 
ATOM     16  C   UNL     1       5.067   4.380  18.480  0.00  0.00    +0.000 A 
ATOM     17  N   UNL     1       4.630   5.584  18.721  0.00  0.00    +0.000 NA
ATOM     18  C   UNL     1       3.560   5.523  19.586  0.00  0.00    +0.000 A 
ATOM     19  C   UNL     1       3.168   4.251  19.945  0.00  0.00    +0.000 A 
ATOM     20  S   UNL     1       4.231   3.101  19.233  0.00  0.00    +0.000 S 
ATOM     21  H   UNL     1       6.393   3.043  17.702  0.00  0.00    +0.000 HD
ENDBRANCH  12  14
ENDBRANCH   1  12
TORSDOF 3
ENDMDL
MODEL 4
REMARK VINA RESULT:      -6.9      4.169      6.985
REMARK  Name = 
REMARK  3 active torsions:
REMARK  status: ('A' for Active; 'I' for Inactive)
REMARK    1  A    between atoms: C_2  and  C_3
REMARK    2  A    between atoms: C_3  and  N_4
REMARK    3  A    between atoms: C_6  and  C_7
REMARK                            x       y       z     vdW  Elec       q    Type
REMARK                         _______ _______ _______ _____ _____    ______ ____
ROOT
ATOM      1  N   UNL     1       6.433   5.358  16.111  0.00  0.00    +0.000 N 
ATOM      2  C   UNL     1       5.648   4.551  15.342  0.00  0.00    +0.000 A 
ATOM      3  C   UNL     1       6.336   4.439  14.155  0.00  0.00    +0.000 A 
ATOM      4  N   UNL     1       7.475   5.203  14.231  0.00  0.00    +0.000 NA
ATOM      5  N   UNL     1       7.504   5.790  15.421  0.00  0.00    +0.000 NA
ENDROOT
BRANCH   3   6
ATOM      6  C   UNL     1       5.949   3.659  12.998  0.00  0.00    +0.000 A 
ATOM      7  C   UNL     1       4.649   3.704  12.486  0.00  0.00    +0.000 A 
ATOM      8  C   UNL     1       4.339   2.930  11.383  0.00  0.00    +0.000 A 
ATOM      9  N   UNL     1       5.225   2.123  10.761  0.00  0.00    +0.000 NA
ATOM     10  C   UNL     1       6.475   2.094  11.268  0.00  0.00    +0.000 A 
ATOM     11  C   UNL     1       6.881   2.834  12.368  0.00  0.00    +0.000 A 
ENDBRANCH   3   6
BRANCH   1  12
ATOM     12  C   UNL     1       6.152   5.838  17.444  0.00  0.00    +0.000 C 
BRANCH  12  14
ATOM     13  O   UNL     1       7.886   4.933  18.817  0.00  0.00    +0.000 OA
ATOM     14  C   UNL     1       6.688   4.898  18.507  0.00  0.00    +0.000 C 
ATOM     15  N   UNL     1       5.900   3.978  19.130  0.00  0.00    +0.000 N 
ATOM     16  C   UNL     1       4.549   3.876  18.995  0.00  0.00    +0.000 A 
ATOM     17  N   UNL     1       3.751   4.658  18.324  0.00  0.00    +0.000 NA
ATOM     18  C   UNL     1       2.452   4.220  18.461  0.00  0.00    +0.000 A 
ATOM     19  C   UNL     1       2.297   3.066  19.199  0.00  0.00    +0.000 A 
ATOM     20  S   UNL     1       3.826   2.563  19.805  0.00  0.00    +0.000 S 
ATOM     21  H   UNL     1       6.356   3.352  19.779  0.00  0.00    +0.000 HD
ENDBRANCH  12  14
ENDBRANCH   1  12
TORSDOF 3
ENDMDL
MODEL 5
REMARK VINA RESULT:      -6.9      4.147      6.988
REMARK  Name = 
REMARK  3 active torsions:
REMARK  status: ('A' for Active; 'I' for Inactive)
REMARK    1  A    between atoms: C_2  and  C_3
REMARK    2  A    between atoms: C_3  and  N_4
REMARK    3  A    between atoms: C_6  and  C_7
REMARK                            x       y       z     vdW  Elec       q    Type
REMARK                         _______ _______ _______ _____ _____    ______ ____
ROOT
ATOM      1  N   UNL     1       6.458   5.373  16.154  0.00  0.00    +0.000 N 
ATOM      2  C   UNL     1       5.675   4.562  15.387  0.00  0.00    +0.000 A 
ATOM      3  C   UNL     1       6.358   4.456  14.197  0.00  0.00    +0.000 A 
ATOM      4  N   UNL     1       7.493   5.226  14.269  0.00  0.00    +0.000 NA
ATOM      5  N   UNL     1       7.524   5.811  15.460  0.00  0.00    +0.000 NA
ENDROOT
BRANCH   3   6
ATOM      6  C   UNL     1       5.970   3.675  13.041  0.00  0.00    +0.000 A 
ATOM      7  C   UNL     1       6.881   2.848  12.376  0.00  0.00    +0.000 A 
ATOM      8  C   UNL     1       6.452   2.134  11.273  0.00  0.00    +0.000 A 
ATOM      9  N   UNL     1       5.192   2.184  10.791  0.00  0.00    +0.000 NA
ATOM     10  C   UNL     1       4.326   2.986  11.446  0.00  0.00    +0.000 A 
ATOM     11  C   UNL     1       4.661   3.739  12.561  0.00  0.00    +0.000 A 
ENDBRANCH   3   6
BRANCH   1  12
ATOM     12  C   UNL     1       6.181   5.849  17.489  0.00  0.00    +0.000 C 
BRANCH  12  14
ATOM     13  O   UNL     1       7.898   4.906  18.856  0.00  0.00    +0.000 OA
ATOM     14  C   UNL     1       6.699   4.896  18.547  0.00  0.00    +0.000 C 
ATOM     15  N   UNL     1       5.894   3.989  19.169  0.00  0.00    +0.000 N 
ATOM     16  C   UNL     1       4.542   3.914  19.036  0.00  0.00    +0.000 A 
ATOM     17  N   UNL     1       3.758   4.713  18.369  0.00  0.00    +0.000 NA
ATOM     18  C   UNL     1       2.451   4.300  18.506  0.00  0.00    +0.000 A 
ATOM     19  C   UNL     1       2.274   3.148  19.241  0.00  0.00    +0.000 A 
ATOM     20  S   UNL     1       3.794   2.613  19.843  0.00  0.00    +0.000 S 
ATOM     21  H   UNL     1       6.339   3.352  19.815  0.00  0.00    +0.000 HD
ENDBRANCH  12  14
ENDBRANCH   1  12
TORSDOF 3
ENDMDL
MODEL 6
REMARK VINA RESULT:      -6.9      0.954      1.225
REMARK  Name = 
REMARK  3 active torsions:
REMARK  status: ('A' for Active; 'I' for Inactive)
REMARK    1  A    between atoms: C_2  and  C_3
REMARK    2  A    between atoms: C_3  and  N_4
REMARK    3  A    between atoms: C_6  and  C_7
REMARK                            x       y       z     vdW  Elec       q    Type
REMARK                         _______ _______ _______ _____ _____    ______ ____
ROOT
ATOM      1  N   UNL     1       7.394   7.216  17.576  0.00  0.00    +0.000 N 
ATOM      2  C   UNL     1       7.586   8.560  17.457  0.00  0.00    +0.000 A 
ATOM      3  C   UNL     1       8.461   8.871  18.473  0.00  0.00    +0.000 A 
ATOM      4  N   UNL     1       8.733   7.729  19.186  0.00  0.00    +0.000 NA
ATOM      5  N   UNL     1       8.046   6.729  18.649  0.00  0.00    +0.000 NA
ENDROOT
BRANCH   3   6
ATOM      6  C   UNL     1       9.017  10.174  18.772  0.00  0.00    +0.000 A 
ATOM      7  C   UNL     1       9.209  11.135  17.774  0.00  0.00    +0.000 A 
ATOM      8  C   UNL     1       9.751  12.358  18.121  0.00  0.00    +0.000 A 
ATOM      9  N   UNL     1      10.111  12.688  19.380  0.00  0.00    +0.000 NA
ATOM     10  C   UNL     1       9.917  11.750  20.330  0.00  0.00    +0.000 A 
ATOM     11  C   UNL     1       9.379  10.497  20.080  0.00  0.00    +0.000 A 
ENDBRANCH   3   6
BRANCH   1  12
ATOM     12  C   UNL     1       6.522   6.382  16.783  0.00  0.00    +0.000 C 
BRANCH  12  14
ATOM     13  O   UNL     1       7.851   4.450  16.326  0.00  0.00    +0.000 OA
ATOM     14  C   UNL     1       6.868   4.912  16.920  0.00  0.00    +0.000 C 
ATOM     15  N   UNL     1       6.114   4.052  17.660  0.00  0.00    +0.000 N 
ATOM     16  C   UNL     1       5.072   4.405  18.462  0.00  0.00    +0.000 A 
ATOM     17  N   UNL     1       4.646   5.606  18.735  0.00  0.00    +0.000 NA
ATOM     18  C   UNL     1       3.581   5.531  19.606  0.00  0.00    +0.000 A 
ATOM     19  C   UNL     1       3.184   4.253  19.938  0.00  0.00    +0.000 A 
ATOM     20  S   UNL     1       4.233   3.114  19.190  0.00  0.00    +0.000 S 
ATOM     21  H   UNL     1       6.385   3.078  17.642  0.00  0.00    +0.000 HD
ENDBRANCH  12  14
ENDBRANCH   1  12
TORSDOF 3
ENDMDL
MODEL 7
REMARK VINA RESULT:      -6.8      4.680      6.244
REMARK  Name = 
REMARK  3 active torsions:
REMARK  status: ('A' for Active; 'I' for Inactive)
REMARK    1  A    between atoms: C_2  and  C_3
REMARK    2  A    between atoms: C_3  and  N_4
REMARK    3  A    between atoms: C_6  and  C_7
REMARK                            x       y       z     vdW  Elec       q    Type
REMARK                         _______ _______ _______ _____ _____    ______ ____
ROOT
ATOM      1  N   UNL     1       4.740   5.072  17.740  0.00  0.00    +0.000 N 
ATOM      2  C   UNL     1       4.091   6.245  17.491  0.00  0.00    +0.000 A 
ATOM      3  C   UNL     1       3.296   6.435  18.598  0.00  0.00    +0.000 A 
ATOM      4  N   UNL     1       3.458   5.369  19.447  0.00  0.00    +0.000 NA
ATOM      5  N   UNL     1       4.318   4.523  18.894  0.00  0.00    +0.000 NA
ENDROOT
BRANCH   3   6
ATOM      6  C   UNL     1       2.419   7.559  18.853  0.00  0.00    +0.000 A 
ATOM      7  C   UNL     1       1.898   7.808  20.126  0.00  0.00    +0.000 A 
ATOM      8  C   UNL     1       1.060   8.893  20.304  0.00  0.00    +0.000 A 
ATOM      9  N   UNL     1       0.710   9.740  19.312  0.00  0.00    +0.000 NA
ATOM     10  C   UNL     1       1.224   9.486  18.091  0.00  0.00    +0.000 A 
ATOM     11  C   UNL     1       2.072   8.425  17.814  0.00  0.00    +0.000 A 
ENDBRANCH   3   6
BRANCH   1  12
ATOM     12  C   UNL     1       5.666   4.382  16.872  0.00  0.00    +0.000 C 
BRANCH  12  14
ATOM     13  O   UNL     1       7.497   5.724  17.619  0.00  0.00    +0.000 OA
ATOM     14  C   UNL     1       6.939   5.179  16.658  0.00  0.00    +0.000 C 
ATOM     15  N   UNL     1       7.493   5.349  15.425  0.00  0.00    +0.000 N 
ATOM     16  C   UNL     1       7.080   4.734  14.283  0.00  0.00    +0.000 A 
ATOM     17  N   UNL     1       6.149   3.831  14.153  0.00  0.00    +0.000 NA
ATOM     18  C   UNL     1       6.055   3.451  12.832  0.00  0.00    +0.000 A 
ATOM     19  C   UNL     1       6.892   4.124  11.967  0.00  0.00    +0.000 A 
ATOM     20  S   UNL     1       7.882   5.212  12.858  0.00  0.00    +0.000 S 
ATOM     21  H   UNL     1       8.305   5.947  15.369  0.00  0.00    +0.000 HD
ENDBRANCH  12  14
ENDBRANCH   1  12
TORSDOF 3
ENDMDL
MODEL 8
REMARK VINA RESULT:      -6.8      4.671      6.169
REMARK  Name = 
REMARK  3 active torsions:
REMARK  status: ('A' for Active; 'I' for Inactive)
REMARK    1  A    between atoms: C_2  and  C_3
REMARK    2  A    between atoms: C_3  and  N_4
REMARK    3  A    between atoms: C_6  and  C_7
REMARK                            x       y       z     vdW  Elec       q    Type
REMARK                         _______ _______ _______ _____ _____    ______ ____
ROOT
ATOM      1  N   UNL     1       4.692   5.069  17.697  0.00  0.00    +0.000 N 
ATOM      2  C   UNL     1       4.108   6.281  17.476  0.00  0.00    +0.000 A 
ATOM      3  C   UNL     1       3.246   6.442  18.536  0.00  0.00    +0.000 A 
ATOM      4  N   UNL     1       3.307   5.323  19.329  0.00  0.00    +0.000 NA
ATOM      5  N   UNL     1       4.170   4.473  18.785  0.00  0.00    +0.000 NA
ENDROOT
BRANCH   3   6
ATOM      6  C   UNL     1       2.398   7.586  18.799  0.00  0.00    +0.000 A 
ATOM      7  C   UNL     1       2.056   8.492  17.790  0.00  0.00    +0.000 A 
ATOM      8  C   UNL     1       1.249   9.569  18.106  0.00  0.00    +0.000 A 
ATOM      9  N   UNL     1       0.764   9.804  19.343  0.00  0.00    +0.000 NA
ATOM     10  C   UNL     1       1.103   8.919  20.304  0.00  0.00    +0.000 A 
ATOM     11  C   UNL     1       1.904   7.809  20.085  0.00  0.00    +0.000 A 
ENDBRANCH   3   6
BRANCH   1  12
ATOM     12  C   UNL     1       5.648   4.391  16.854  0.00  0.00    +0.000 C 
BRANCH  12  14
ATOM     13  O   UNL     1       7.444   5.758  17.638  0.00  0.00    +0.000 OA
ATOM     14  C   UNL     1       6.913   5.206  16.665  0.00  0.00    +0.000 C 
ATOM     15  N   UNL     1       7.489   5.387  15.444  0.00  0.00    +0.000 N 
ATOM     16  C   UNL     1       7.107   4.768  14.293  0.00  0.00    +0.000 A 
ATOM     17  N   UNL     1       6.192   3.852  14.143  0.00  0.00    +0.000 NA
ATOM     18  C   UNL     1       6.130   3.473  12.820  0.00  0.00    +0.000 A 
ATOM     19  C   UNL     1       6.973   4.160  11.973  0.00  0.00    +0.000 A 
ATOM     20  S   UNL     1       7.929   5.261  12.885  0.00  0.00    +0.000 S 
ATOM     21  H   UNL     1       8.293   5.997  15.405  0.00  0.00    +0.000 HD
ENDBRANCH  12  14
ENDBRANCH   1  12
TORSDOF 3
ENDMDL
MODEL 9
REMARK VINA RESULT:      -6.6      4.523      6.135
REMARK  Name = 
REMARK  3 active torsions:
REMARK  status: ('A' for Active; 'I' for Inactive)
REMARK    1  A    between atoms: C_2  and  C_3
REMARK    2  A    between atoms: C_3  and  N_4
REMARK    3  A    between atoms: C_6  and  C_7
REMARK                            x       y       z     vdW  Elec       q    Type
REMARK                         _______ _______ _______ _____ _____    ______ ____
ROOT
ATOM      1  N   UNL     1       5.785   5.649  17.638  0.00  0.00    +0.000 N 
ATOM      2  C   UNL     1       5.441   5.016  16.480  0.00  0.00    +0.000 A 
ATOM      3  C   UNL     1       6.502   5.250  15.636  0.00  0.00    +0.000 A 
ATOM      4  N   UNL     1       7.419   6.037  16.287  0.00  0.00    +0.000 NA
ATOM      5  N   UNL     1       6.952   6.305  17.500  0.00  0.00    +0.000 NA
ENDROOT
BRANCH   3   6
ATOM      6  C   UNL     1       6.655   4.765  14.280  0.00  0.00    +0.000 A 
ATOM      7  C   UNL     1       7.641   5.272  13.427  0.00  0.00    +0.000 A 
ATOM      8  C   UNL     1       7.731   4.774  12.141  0.00  0.00    +0.000 A 
ATOM      9  N   UNL     1       6.918   3.814  11.650  0.00  0.00    +0.000 NA
ATOM     10  C   UNL     1       5.974   3.336  12.487  0.00  0.00    +0.000 A 
ATOM     11  C   UNL     1       5.806   3.771  13.793  0.00  0.00    +0.000 A 
ENDBRANCH   3   6
BRANCH   1  12
ATOM     12  C   UNL     1       4.997   5.759  18.843  0.00  0.00    +0.000 C 
BRANCH  12  14
ATOM     13  O   UNL     1       3.418   7.255  17.855  0.00  0.00    +0.000 OA
ATOM     14  C   UNL     1       3.591   6.249  18.555  0.00  0.00    +0.000 C 
ATOM     15  N   UNL     1       2.487   5.636  19.066  0.00  0.00    +0.000 N 
ATOM     16  C   UNL     1       2.484   4.464  19.758  0.00  0.00    +0.000 A 
ATOM     17  N   UNL     1       3.494   3.676  20.000  0.00  0.00    +0.000 NA
ATOM     18  C   UNL     1       3.065   2.580  20.715  0.00  0.00    +0.000 A 
ATOM     19  C   UNL     1       1.728   2.586  21.051  0.00  0.00    +0.000 A 
ATOM     20  S   UNL     1       0.974   3.978  20.378  0.00  0.00    +0.000 S 
ATOM     21  H   UNL     1       1.595   6.069  18.873  0.00  0.00    +0.000 HD
ENDBRANCH  12  14
ENDBRANCH   1  12
TORSDOF 3
ENDMDL
