MODEL 1
REMARK VINA RESULT:      -7.6      0.000      0.000
REMARK  Name = 
REMARK  11 active torsions:
REMARK  status: ('A' for Active; 'I' for Inactive)
REMARK    1  A    between atoms: C_1  and  C_2
REMARK    2  A    between atoms: C_2  and  S_3
REMARK    3  A    between atoms: S_3  and  N_6
REMARK    4  A    between atoms: N_6  and  C_7
REMARK    5  A    between atoms: C_12  and  C_13
REMARK    6  A    between atoms: C_15  and  C_16
REMARK    7  A    between atoms: C_16  and  O_17
REMARK    8  A    between atoms: O_17  and  C_18
REMARK    9  A    between atoms: C_21  and  C_22
REMARK   10  A    between atoms: C_22  and  C_23
REMARK   11  A    between atoms: C_22  and  C_24
REMARK                            x       y       z     vdW  Elec       q    Type
REMARK                         _______ _______ _______ _____ _____    ______ ____
ROOT
ATOM      1  C   UNL     1       4.602   4.247  18.219  0.00  0.00    +0.000 C 
ATOM      2  C   UNL     1       4.002   3.854  16.863  0.00  0.00    +0.000 C 
ATOM      3  C   UNL     1       4.947   4.204  15.709  0.00  0.00    +0.000 C 
ATOM      4  C   UNL     1       5.514   5.623  15.765  0.00  0.00    +0.000 C 
ATOM      5  N   UNL     1       5.995   5.964  17.104  0.00  0.00    +0.000 N 
ATOM      6  C   UNL     1       7.265   6.511  17.226  0.00  0.00    +0.000 C 
ATOM      7  C   UNL     1       7.833   6.830  18.587  0.00  0.00    +0.000 C 
ATOM      8  O   UNL     1       7.988   6.697  16.242  0.00  0.00    +0.000 OA
ATOM      9  C   UNL     1       5.017   5.751  18.193  0.00  0.00    +0.000 C 
ENDROOT
BRANCH   1  10
ATOM     10  N   UNL     1       3.659   4.015  19.373  0.00  0.00    +0.000 NA
ATOM     11  H   UNL     1       3.910   4.634  20.146  0.00  0.00    +0.000 HD
BRANCH  10  12
ATOM     12  S   UNL     1       3.569   2.425  19.985  0.00  0.00    +0.000 S 
ATOM     13  O   UNL     1       4.930   2.051  20.278  0.00  0.00    +0.000 OA
ATOM     14  O   UNL     1       2.725   1.654  19.106  0.00  0.00    +0.000 OA
BRANCH  12  16
ATOM     15  C   UNL     1       1.208   2.832  21.288  0.00  0.00    +0.000 C 
ATOM     16  C   UNL     1       2.701   2.712  21.518  0.00  0.00    +0.000 C 
ENDBRANCH  12  16
ENDBRANCH  10  12
ENDBRANCH   1  10
BRANCH   9  17
ATOM     17  C   UNL     1       3.768   6.656  18.058  0.00  0.00    +0.000 C 
BRANCH  17  18
ATOM     18  O   UNL     1       3.202   7.010  19.324  0.00  0.00    +0.000 OA
BRANCH  18  19
ATOM     19  C   UNL     1       1.935   7.678  19.164  0.00  0.00    +0.000 C 
ATOM     20  C   UNL     1       1.527   8.387  20.467  0.00  0.00    +0.000 C 
ATOM     21  C   UNL     1       0.331   9.313  20.287  0.00  0.00    +0.000 C 
ATOM     22  C   UNL     1       0.563  10.342  19.170  0.00  0.00    +0.000 C 
ATOM     23  C   UNL     1       0.822   9.552  17.870  0.00  0.00    +0.000 C 
ATOM     24  C   UNL     1       2.048   8.646  17.982  0.00  0.00    +0.000 C 
BRANCH  22  25
ATOM     25  C   UNL     1       1.695  11.365  19.499  0.00  0.00    +0.000 C 
ATOM     26  C   UNL     1       2.049  12.228  18.284  0.00  0.00    +0.000 C 
ATOM     27  C   UNL     1       1.330  12.285  20.670  0.00  0.00    +0.000 C 
ENDBRANCH  22  25
ENDBRANCH  18  19
ENDBRANCH  17  18
ENDBRANCH   9  17
TORSDOF 7
ENDMDL
MODEL 2
REMARK VINA RESULT:      -6.8      3.207      7.929
REMARK  Name = 
REMARK  11 active torsions:
REMARK  status: ('A' for Active; 'I' for Inactive)
REMARK    1  A    between atoms: C_1  and  C_2
REMARK    2  A    between atoms: C_2  and  S_3
REMARK    3  A    between atoms: S_3  and  N_6
REMARK    4  A    between atoms: N_6  and  C_7
REMARK    5  A    between atoms: C_12  and  C_13
REMARK    6  A    between atoms: C_15  and  C_16
REMARK    7  A    between atoms: C_16  and  O_17
REMARK    8  A    between atoms: O_17  and  C_18
REMARK    9  A    between atoms: C_21  and  C_22
REMARK   10  A    between atoms: C_22  and  C_23
REMARK   11  A    between atoms: C_22  and  C_24
REMARK                            x       y       z     vdW  Elec       q    Type
REMARK                         _______ _______ _______ _____ _____    ______ ____
ROOT
ATOM      1  C   UNL     1       4.714   5.701  18.275  0.00  0.00    +0.000 C 
ATOM      2  C   UNL     1       3.550   6.575  17.794  0.00  0.00    +0.000 C 
ATOM      3  C   UNL     1       2.207   6.059  18.320  0.00  0.00    +0.000 C 
ATOM      4  C   UNL     1       1.991   4.556  18.136  0.00  0.00    +0.000 C 
ATOM      5  N   UNL     1       3.167   3.785  18.539  0.00  0.00    +0.000 N 
ATOM      6  C   UNL     1       2.985   2.707  19.393  0.00  0.00    +0.000 C 
ATOM      7  C   UNL     1       4.169   1.910  19.884  0.00  0.00    +0.000 C 
ATOM      8  O   UNL     1       1.868   2.402  19.824  0.00  0.00    +0.000 OA
ATOM      9  C   UNL     1       4.438   4.209  17.910  0.00  0.00    +0.000 C 
ENDROOT
BRANCH   1  10
ATOM     10  N   UNL     1       6.044   6.113  17.695  0.00  0.00    +0.000 NA
ATOM     11  H   UNL     1       6.143   5.717  16.758  0.00  0.00    +0.000 HD
BRANCH  10  12
ATOM     12  S   UNL     1       7.436   5.697  18.588  0.00  0.00    +0.000 S 
ATOM     13  O   UNL     1       8.135   4.731  17.778  0.00  0.00    +0.000 OA
ATOM     14  O   UNL     1       7.033   5.425  19.945  0.00  0.00    +0.000 OA
BRANCH  12  16
ATOM     15  C   UNL     1       7.679   8.223  17.587  0.00  0.00    +0.000 C 
ATOM     16  C   UNL     1       8.326   7.244  18.547  0.00  0.00    +0.000 C 
ENDBRANCH  12  16
ENDBRANCH  10  12
ENDBRANCH   1  10
BRANCH   9  17
ATOM     17  C   UNL     1       4.436   4.018  16.373  0.00  0.00    +0.000 C 
BRANCH  17  18
ATOM     18  O   UNL     1       5.754   3.944  15.823  0.00  0.00    +0.000 OA
BRANCH  18  19
ATOM     19  C   UNL     1       5.787   4.434  14.469  0.00  0.00    +0.000 C 
ATOM     20  C   UNL     1       7.216   4.376  13.904  0.00  0.00    +0.000 C 
ATOM     21  C   UNL     1       7.272   4.640  12.405  0.00  0.00    +0.000 C 
ATOM     22  C   UNL     1       6.350   3.695  11.620  0.00  0.00    +0.000 C 
ATOM     23  C   UNL     1       4.916   3.918  12.145  0.00  0.00    +0.000 C 
ATOM     24  C   UNL     1       4.796   3.613  13.637  0.00  0.00    +0.000 C 
BRANCH  22  25
ATOM     25  C   UNL     1       6.798   2.202  11.684  0.00  0.00    +0.000 C 
ATOM     26  C   UNL     1       5.676   1.254  11.246  0.00  0.00    +0.000 C 
ATOM     27  C   UNL     1       8.041   1.925  10.828  0.00  0.00    +0.000 C 
ENDBRANCH  22  25
ENDBRANCH  18  19
ENDBRANCH  17  18
ENDBRANCH   9  17
TORSDOF 7
ENDMDL
MODEL 3
REMARK VINA RESULT:      -6.6      1.233      2.027
REMARK  Name = 
REMARK  11 active torsions:
REMARK  status: ('A' for Active; 'I' for Inactive)
REMARK    1  A    between atoms: C_1  and  C_2
REMARK    2  A    between atoms: C_2  and  S_3
REMARK    3  A    between atoms: S_3  and  N_6
REMARK    4  A    between atoms: N_6  and  C_7
REMARK    5  A    between atoms: C_12  and  C_13
REMARK    6  A    between atoms: C_15  and  C_16
REMARK    7  A    between atoms: C_16  and  O_17
REMARK    8  A    between atoms: O_17  and  C_18
REMARK    9  A    between atoms: C_21  and  C_22
REMARK   10  A    between atoms: C_22  and  C_23
REMARK   11  A    between atoms: C_22  and  C_24
REMARK                            x       y       z     vdW  Elec       q    Type
REMARK                         _______ _______ _______ _____ _____    ______ ____
ROOT
ATOM      1  C   UNL     1       4.284   4.241  18.580  0.00  0.00    +0.000 C 
ATOM      2  C   UNL     1       3.765   3.434  17.384  0.00  0.00    +0.000 C 
ATOM      3  C   UNL     1       4.729   3.511  16.195  0.00  0.00    +0.000 C 
ATOM      4  C   UNL     1       5.198   4.925  15.852  0.00  0.00    +0.000 C 
ATOM      5  N   UNL     1       5.604   5.668  17.046  0.00  0.00    +0.000 N 
ATOM      6  C   UNL     1       6.829   6.320  17.028  0.00  0.00    +0.000 C 
ATOM      7  C   UNL     1       7.322   7.055  18.251  0.00  0.00    +0.000 C 
ATOM      8  O   UNL     1       7.576   6.272  16.046  0.00  0.00    +0.000 OA
ATOM      9  C   UNL     1       4.600   5.702  18.132  0.00  0.00    +0.000 C 
ENDROOT
BRANCH   1  10
ATOM     10  N   UNL     1       3.315   4.278  19.736  0.00  0.00    +0.000 NA
ATOM     11  H   UNL     1       3.600   5.004  20.394  0.00  0.00    +0.000 HD
BRANCH  10  12
ATOM     12  S   UNL     1       3.107   2.829  20.611  0.00  0.00    +0.000 S 
ATOM     13  O   UNL     1       2.513   3.223  21.864  0.00  0.00    +0.000 OA
ATOM     14  O   UNL     1       4.337   2.080  20.537  0.00  0.00    +0.000 OA
BRANCH  12  16
ATOM     15  C   UNL     1       0.651   2.895  19.427  0.00  0.00    +0.000 C 
ATOM     16  C   UNL     1       1.872   2.016  19.611  0.00  0.00    +0.000 C 
ENDBRANCH  12  16
ENDBRANCH  10  12
ENDBRANCH   1  10
BRANCH   9  17
ATOM     17  C   UNL     1       3.300   6.436  17.720  0.00  0.00    +0.000 C 
BRANCH  17  18
ATOM     18  O   UNL     1       2.453   6.727  18.835  0.00  0.00    +0.000 OA
BRANCH  18  19
ATOM     19  C   UNL     1       2.408   8.142  19.106  0.00  0.00    +0.000 C 
ATOM     20  C   UNL     1       1.972   8.921  17.854  0.00  0.00    +0.000 C 
ATOM     21  C   UNL     1       1.664  10.384  18.145  0.00  0.00    +0.000 C 
ATOM     22  C   UNL     1       0.621  10.541  19.261  0.00  0.00    +0.000 C 
ATOM     23  C   UNL     1       1.196   9.860  20.521  0.00  0.00    +0.000 C 
ATOM     24  C   UNL     1       1.471   8.374  20.296  0.00  0.00    +0.000 C 
BRANCH  22  25
ATOM     25  C   UNL     1      -0.791  10.005  18.867  0.00  0.00    +0.000 C 
ATOM     26  C   UNL     1      -1.907  10.756  19.599  0.00  0.00    +0.000 C 
ATOM     27  C   UNL     1      -1.048  10.086  17.357  0.00  0.00    +0.000 C 
ENDBRANCH  22  25
ENDBRANCH  18  19
ENDBRANCH  17  18
ENDBRANCH   9  17
TORSDOF 7
ENDMDL
MODEL 4
REMARK VINA RESULT:      -6.5      2.018      4.485
REMARK  Name = 
REMARK  11 active torsions:
REMARK  status: ('A' for Active; 'I' for Inactive)
REMARK    1  A    between atoms: C_1  and  C_2
REMARK    2  A    between atoms: C_2  and  S_3
REMARK    3  A    between atoms: S_3  and  N_6
REMARK    4  A    between atoms: N_6  and  C_7
REMARK    5  A    between atoms: C_12  and  C_13
REMARK    6  A    between atoms: C_15  and  C_16
REMARK    7  A    between atoms: C_16  and  O_17
REMARK    8  A    between atoms: O_17  and  C_18
REMARK    9  A    between atoms: C_21  and  C_22
REMARK   10  A    between atoms: C_22  and  C_23
REMARK   11  A    between atoms: C_22  and  C_24
REMARK                            x       y       z     vdW  Elec       q    Type
REMARK                         _______ _______ _______ _____ _____    ______ ____
ROOT
ATOM      1  C   UNL     1       4.710   4.674  18.130  0.00  0.00    +0.000 C 
ATOM      2  C   UNL     1       5.386   3.981  19.319  0.00  0.00    +0.000 C 
ATOM      3  C   UNL     1       4.555   2.796  19.823  0.00  0.00    +0.000 C 
ATOM      4  C   UNL     1       3.072   3.105  20.028  0.00  0.00    +0.000 C 
ATOM      5  N   UNL     1       2.508   3.838  18.893  0.00  0.00    +0.000 N 
ATOM      6  C   UNL     1       1.322   3.377  18.339  0.00  0.00    +0.000 C 
ATOM      7  C   UNL     1       0.725   4.061  17.133  0.00  0.00    +0.000 C 
ATOM      8  O   UNL     1       0.754   2.368  18.769  0.00  0.00    +0.000 OA
ATOM      9  C   UNL     1       3.246   5.061  18.509  0.00  0.00    +0.000 C 
ENDROOT
BRANCH   1  10
ATOM     10  N   UNL     1       5.443   5.910  17.670  0.00  0.00    +0.000 NA
ATOM     11  H   UNL     1       4.835   6.723  17.773  0.00  0.00    +0.000 HD
BRANCH  10  12
ATOM     12  S   UNL     1       6.039   5.900  16.072  0.00  0.00    +0.000 S 
ATOM     13  O   UNL     1       7.460   6.110  16.193  0.00  0.00    +0.000 OA
ATOM     14  O   UNL     1       5.194   6.753  15.273  0.00  0.00    +0.000 OA
BRANCH  12  16
ATOM     15  C   UNL     1       6.149   3.933  14.186  0.00  0.00    +0.000 C 
ATOM     16  C   UNL     1       5.738   4.200  15.620  0.00  0.00    +0.000 C 
ENDBRANCH  12  16
ENDBRANCH  10  12
ENDBRANCH   1  10
BRANCH   9  17
ATOM     17  C   UNL     1       3.241   6.136  19.624  0.00  0.00    +0.000 C 
BRANCH  17  18
ATOM     18  O   UNL     1       3.186   7.468  19.107  0.00  0.00    +0.000 OA
BRANCH  18  19
ATOM     19  C   UNL     1       1.837   7.975  19.103  0.00  0.00    +0.000 C 
ATOM     20  C   UNL     1       1.458   8.525  20.488  0.00  0.00    +0.000 C 
ATOM     21  C   UNL     1       0.146   9.298  20.480  0.00  0.00    +0.000 C 
ATOM     22  C   UNL     1       0.151  10.429  19.441  0.00  0.00    +0.000 C 
ATOM     23  C   UNL     1       0.392   9.779  18.062  0.00  0.00    +0.000 C 
ATOM     24  C   UNL     1       1.725   9.035  18.002  0.00  0.00    +0.000 C 
BRANCH  22  25
ATOM     25  C   UNL     1       1.172  11.563  19.768  0.00  0.00    +0.000 C 
ATOM     26  C   UNL     1       1.325  12.542  18.598  0.00  0.00    +0.000 C 
ATOM     27  C   UNL     1       0.788  12.352  21.025  0.00  0.00    +0.000 C 
ENDBRANCH  22  25
ENDBRANCH  18  19
ENDBRANCH  17  18
ENDBRANCH   9  17
TORSDOF 7
ENDMDL
MODEL 5
REMARK VINA RESULT:      -6.5      0.946      1.260
REMARK  Name = 
REMARK  11 active torsions:
REMARK  status: ('A' for Active; 'I' for Inactive)
REMARK    1  A    between atoms: C_1  and  C_2
REMARK    2  A    between atoms: C_2  and  S_3
REMARK    3  A    between atoms: S_3  and  N_6
REMARK    4  A    between atoms: N_6  and  C_7
REMARK    5  A    between atoms: C_12  and  C_13
REMARK    6  A    between atoms: C_15  and  C_16
REMARK    7  A    between atoms: C_16  and  O_17
REMARK    8  A    between atoms: O_17  and  C_18
REMARK    9  A    between atoms: C_21  and  C_22
REMARK   10  A    between atoms: C_22  and  C_23
REMARK   11  A    between atoms: C_22  and  C_24
REMARK                            x       y       z     vdW  Elec       q    Type
REMARK                         _______ _______ _______ _____ _____    ______ ____
ROOT
ATOM      1  C   UNL     1       4.557   4.254  18.457  0.00  0.00    +0.000 C 
ATOM      2  C   UNL     1       3.847   3.834  17.164  0.00  0.00    +0.000 C 
ATOM      3  C   UNL     1       4.713   4.119  15.932  0.00  0.00    +0.000 C 
ATOM      4  C   UNL     1       5.321   5.521  15.896  0.00  0.00    +0.000 C 
ATOM      5  N   UNL     1       5.910   5.891  17.184  0.00  0.00    +0.000 N 
ATOM      6  C   UNL     1       7.200   6.403  17.192  0.00  0.00    +0.000 C 
ATOM      7  C   UNL     1       7.876   6.750  18.496  0.00  0.00    +0.000 C 
ATOM      8  O   UNL     1       7.852   6.536  16.152  0.00  0.00    +0.000 OA
ATOM      9  C   UNL     1       5.010   5.743  18.349  0.00  0.00    +0.000 C 
ENDROOT
BRANCH   1  10
ATOM     10  N   UNL     1       3.697   4.088  19.685  0.00  0.00    +0.000 NA
ATOM     11  H   UNL     1       4.124   4.585  20.468  0.00  0.00    +0.000 HD
BRANCH  10  12
ATOM     12  S   UNL     1       3.378   2.491  20.190  0.00  0.00    +0.000 S 
ATOM     13  O   UNL     1       4.497   2.122  21.021  0.00  0.00    +0.000 OA
ATOM     14  O   UNL     1       2.984   1.725  19.034  0.00  0.00    +0.000 OA
BRANCH  12  16
ATOM     15  C   UNL     1       0.948   3.674  20.554  0.00  0.00    +0.000 C 
ATOM     16  C   UNL     1       1.948   2.754  21.225  0.00  0.00    +0.000 C 
ENDBRANCH  12  16
ENDBRANCH  10  12
ENDBRANCH   1  10
BRANCH   9  17
ATOM     17  C   UNL     1       3.780   6.681  18.274  0.00  0.00    +0.000 C 
BRANCH  17  18
ATOM     18  O   UNL     1       3.264   7.020  19.565  0.00  0.00    +0.000 OA
BRANCH  18  19
ATOM     19  C   UNL     1       1.882   7.422  19.489  0.00  0.00    +0.000 C 
ATOM     20  C   UNL     1       1.195   7.264  20.856  0.00  0.00    +0.000 C 
ATOM     21  C   UNL     1      -0.185   7.906  20.903  0.00  0.00    +0.000 C 
ATOM     22  C   UNL     1      -0.144   9.387  20.494  0.00  0.00    +0.000 C 
ATOM     23  C   UNL     1       0.421   9.448  19.060  0.00  0.00    +0.000 C 
ATOM     24  C   UNL     1       1.830   8.863  18.972  0.00  0.00    +0.000 C 
BRANCH  22  25
ATOM     25  C   UNL     1       0.643  10.283  21.500  0.00  0.00    +0.000 C 
ATOM     26  C   UNL     1       0.609  11.759  21.091  0.00  0.00    +0.000 C 
ATOM     27  C   UNL     1       0.118  10.155  22.935  0.00  0.00    +0.000 C 
ENDBRANCH  22  25
ENDBRANCH  18  19
ENDBRANCH  17  18
ENDBRANCH   9  17
TORSDOF 7
ENDMDL
MODEL 6
REMARK VINA RESULT:      -6.5      1.172      1.402
REMARK  Name = 
REMARK  11 active torsions:
REMARK  status: ('A' for Active; 'I' for Inactive)
REMARK    1  A    between atoms: C_1  and  C_2
REMARK    2  A    between atoms: C_2  and  S_3
REMARK    3  A    between atoms: S_3  and  N_6
REMARK    4  A    between atoms: N_6  and  C_7
REMARK    5  A    between atoms: C_12  and  C_13
REMARK    6  A    between atoms: C_15  and  C_16
REMARK    7  A    between atoms: C_16  and  O_17
REMARK    8  A    between atoms: O_17  and  C_18
REMARK    9  A    between atoms: C_21  and  C_22
REMARK   10  A    between atoms: C_22  and  C_23
REMARK   11  A    between atoms: C_22  and  C_24
REMARK                            x       y       z     vdW  Elec       q    Type
REMARK                         _______ _______ _______ _____ _____    ______ ____
ROOT
ATOM      1  C   UNL     1       3.866   4.332  18.612  0.00  0.00    +0.000 C 
ATOM      2  C   UNL     1       3.203   4.068  17.255  0.00  0.00    +0.000 C 
ATOM      3  C   UNL     1       4.212   4.177  16.107  0.00  0.00    +0.000 C 
ATOM      4  C   UNL     1       5.087   5.430  16.152  0.00  0.00    +0.000 C 
ATOM      5  N   UNL     1       5.624   5.669  17.492  0.00  0.00    +0.000 N 
ATOM      6  C   UNL     1       6.984   5.914  17.621  0.00  0.00    +0.000 C 
ATOM      7  C   UNL     1       7.600   6.113  18.984  0.00  0.00    +0.000 C 
ATOM      8  O   UNL     1       7.738   5.917  16.642  0.00  0.00    +0.000 OA
ATOM      9  C   UNL     1       4.615   5.701  18.574  0.00  0.00    +0.000 C 
ENDROOT
BRANCH   1  10
ATOM     10  N   UNL     1       2.887   4.337  19.759  0.00  0.00    +0.000 NA
ATOM     11  H   UNL     1       3.194   5.010  20.464  0.00  0.00    +0.000 HD
BRANCH  10  12
ATOM     12  S   UNL     1       2.612   2.847  20.542  0.00  0.00    +0.000 S 
ATOM     13  O   UNL     1       1.583   2.195  19.771  0.00  0.00    +0.000 OA
ATOM     14  O   UNL     1       2.480   3.100  21.955  0.00  0.00    +0.000 OA
BRANCH  12  16
ATOM     15  C   UNL     1       4.063   1.055  19.085  0.00  0.00    +0.000 C 
ATOM     16  C   UNL     1       4.169   2.027  20.243  0.00  0.00    +0.000 C 
ENDBRANCH  12  16
ENDBRANCH  10  12
ENDBRANCH   1  10
BRANCH   9  17
ATOM     17  C   UNL     1       3.607   6.866  18.415  0.00  0.00    +0.000 C 
BRANCH  17  18
ATOM     18  O   UNL     1       2.925   7.177  19.634  0.00  0.00    +0.000 OA
BRANCH  18  19
ATOM     19  C   UNL     1       1.689   7.874  19.381  0.00  0.00    +0.000 C 
ATOM     20  C   UNL     1       1.238   8.650  20.630  0.00  0.00    +0.000 C 
ATOM     21  C   UNL     1       0.083   9.602  20.350  0.00  0.00    +0.000 C 
ATOM     22  C   UNL     1       0.403  10.574  19.205  0.00  0.00    +0.000 C 
ATOM     23  C   UNL     1       0.703   9.722  17.954  0.00  0.00    +0.000 C 
ATOM     24  C   UNL     1       1.892   8.786  18.167  0.00  0.00    +0.000 C 
BRANCH  22  25
ATOM     25  C   UNL     1       1.549  11.577  19.549  0.00  0.00    +0.000 C 
ATOM     26  C   UNL     1       1.921  12.448  18.344  0.00  0.00    +0.000 C 
ATOM     27  C   UNL     1       1.194  12.490  20.728  0.00  0.00    +0.000 C 
ENDBRANCH  22  25
ENDBRANCH  18  19
ENDBRANCH  17  18
ENDBRANCH   9  17
TORSDOF 7
ENDMDL
MODEL 7
REMARK VINA RESULT:      -6.4      2.121      4.763
REMARK  Name = 
REMARK  11 active torsions:
REMARK  status: ('A' for Active; 'I' for Inactive)
REMARK    1  A    between atoms: C_1  and  C_2
REMARK    2  A    between atoms: C_2  and  S_3
REMARK    3  A    between atoms: S_3  and  N_6
REMARK    4  A    between atoms: N_6  and  C_7
REMARK    5  A    between atoms: C_12  and  C_13
REMARK    6  A    between atoms: C_15  and  C_16
REMARK    7  A    between atoms: C_16  and  O_17
REMARK    8  A    between atoms: O_17  and  C_18
REMARK    9  A    between atoms: C_21  and  C_22
REMARK   10  A    between atoms: C_22  and  C_23
REMARK   11  A    between atoms: C_22  and  C_24
REMARK                            x       y       z     vdW  Elec       q    Type
REMARK                         _______ _______ _______ _____ _____    ______ ____
ROOT
ATOM      1  C   UNL     1       4.783   4.682  18.320  0.00  0.00    +0.000 C 
ATOM      2  C   UNL     1       5.364   3.859  19.476  0.00  0.00    +0.000 C 
ATOM      3  C   UNL     1       4.485   2.646  19.799  0.00  0.00    +0.000 C 
ATOM      4  C   UNL     1       2.995   2.964  19.932  0.00  0.00    +0.000 C 
ATOM      5  N   UNL     1       2.522   3.818  18.842  0.00  0.00    +0.000 N 
ATOM      6  C   UNL     1       1.372   3.439  18.164  0.00  0.00    +0.000 C 
ATOM      7  C   UNL     1       0.870   4.253  16.996  0.00  0.00    +0.000 C 
ATOM      8  O   UNL     1       0.761   2.404  18.449  0.00  0.00    +0.000 OA
ATOM      9  C   UNL     1       3.301   5.058  18.636  0.00  0.00    +0.000 C 
ENDROOT
BRANCH   1  10
ATOM     10  N   UNL     1       5.563   5.942  18.040  0.00  0.00    +0.000 NA
ATOM     11  H   UNL     1       4.915   6.698  17.811  0.00  0.00    +0.000 HD
BRANCH  10  12
ATOM     12  S   UNL     1       6.733   5.863  16.802  0.00  0.00    +0.000 S 
ATOM     13  O   UNL     1       7.553   4.722  17.124  0.00  0.00    +0.000 OA
ATOM     14  O   UNL     1       7.281   7.184  16.617  0.00  0.00    +0.000 OA
BRANCH  12  16
ATOM     15  C   UNL     1       6.128   4.154  14.764  0.00  0.00    +0.000 C 
ATOM     16  C   UNL     1       5.702   5.461  15.401  0.00  0.00    +0.000 C 
ENDBRANCH  12  16
ENDBRANCH  10  12
ENDBRANCH   1  10
BRANCH   9  17
ATOM     17  C   UNL     1       3.232   6.015  19.852  0.00  0.00    +0.000 C 
BRANCH  17  18
ATOM     18  O   UNL     1       1.963   6.665  19.972  0.00  0.00    +0.000 OA
BRANCH  18  19
ATOM     19  C   UNL     1       2.081   8.088  19.785  0.00  0.00    +0.000 C 
ATOM     20  C   UNL     1       1.758   8.474  18.332  0.00  0.00    +0.000 C 
ATOM     21  C   UNL     1       1.619   9.978  18.135  0.00  0.00    +0.000 C 
ATOM     22  C   UNL     1       0.586  10.591  19.092  0.00  0.00    +0.000 C 
ATOM     23  C   UNL     1       1.058  10.285  20.529  0.00  0.00    +0.000 C 
ATOM     24  C   UNL     1       1.161   8.783  20.793  0.00  0.00    +0.000 C 
BRANCH  22  25
ATOM     25  C   UNL     1      -0.873  10.111  18.814  0.00  0.00    +0.000 C 
ATOM     26  C   UNL     1      -1.908  11.114  19.334  0.00  0.00    +0.000 C 
ATOM     27  C   UNL     1      -1.133   9.860  17.323  0.00  0.00    +0.000 C 
ENDBRANCH  22  25
ENDBRANCH  18  19
ENDBRANCH  17  18
ENDBRANCH   9  17
TORSDOF 7
ENDMDL
MODEL 8
REMARK VINA RESULT:      -6.4      6.920      9.432
REMARK  Name = 
REMARK  11 active torsions:
REMARK  status: ('A' for Active; 'I' for Inactive)
REMARK    1  A    between atoms: C_1  and  C_2
REMARK    2  A    between atoms: C_2  and  S_3
REMARK    3  A    between atoms: S_3  and  N_6
REMARK    4  A    between atoms: N_6  and  C_7
REMARK    5  A    between atoms: C_12  and  C_13
REMARK    6  A    between atoms: C_15  and  C_16
REMARK    7  A    between atoms: C_16  and  O_17
REMARK    8  A    between atoms: O_17  and  C_18
REMARK    9  A    between atoms: C_21  and  C_22
REMARK   10  A    between atoms: C_22  and  C_23
REMARK   11  A    between atoms: C_22  and  C_24
REMARK                            x       y       z     vdW  Elec       q    Type
REMARK                         _______ _______ _______ _____ _____    ______ ____
ROOT
ATOM      1  C   UNL     1      -1.631  11.137  19.094  0.00  0.00    +0.000 C 
ATOM      2  C   UNL     1      -0.356  10.533  18.494  0.00  0.00    +0.000 C 
ATOM      3  C   UNL     1       0.488   9.830  19.562  0.00  0.00    +0.000 C 
ATOM      4  C   UNL     1       0.712  10.650  20.833  0.00  0.00    +0.000 C 
ATOM      5  N   UNL     1      -0.529  11.264  21.308  0.00  0.00    +0.000 N 
ATOM      6  C   UNL     1      -0.865  11.114  22.646  0.00  0.00    +0.000 C 
ATOM      7  C   UNL     1      -2.159  11.679  23.178  0.00  0.00    +0.000 C 
ATOM      8  O   UNL     1      -0.155  10.470  23.425  0.00  0.00    +0.000 OA
ATOM      9  C   UNL     1      -1.261  12.059  20.298  0.00  0.00    +0.000 C 
ENDROOT
BRANCH   1  10
ATOM     10  N   UNL     1      -2.439  11.928  18.096  0.00  0.00    +0.000 NA
ATOM     11  H   UNL     1      -2.923  12.688  18.577  0.00  0.00    +0.000 HD
BRANCH  10  12
ATOM     12  S   UNL     1      -3.594  11.065  17.185  0.00  0.00    +0.000 S 
ATOM     13  O   UNL     1      -4.715  11.961  17.044  0.00  0.00    +0.000 OA
ATOM     14  O   UNL     1      -3.721   9.747  17.754  0.00  0.00    +0.000 OA
BRANCH  12  16
ATOM     15  C   UNL     1      -3.546  10.115  14.629  0.00  0.00    +0.000 C 
ATOM     16  C   UNL     1      -2.748  10.941  15.618  0.00  0.00    +0.000 C 
ENDBRANCH  12  16
ENDBRANCH  10  12
ENDBRANCH   1  10
BRANCH   9  17
ATOM     17  C   UNL     1      -0.456  13.289  19.810  0.00  0.00    +0.000 C 
BRANCH  17  18
ATOM     18  O   UNL     1      -1.253  14.475  19.733  0.00  0.00    +0.000 OA
BRANCH  18  19
ATOM     19  C   UNL     1      -0.480  15.648  20.054  0.00  0.00    +0.000 C 
ATOM     20  C   UNL     1       1.008  15.423  19.738  0.00  0.00    +0.000 C 
ATOM     21  C   UNL     1       1.831  16.701  19.816  0.00  0.00    +0.000 C 
ATOM     22  C   UNL     1       1.258  17.810  18.921  0.00  0.00    +0.000 C 
ATOM     23  C   UNL     1      -0.186  18.079  19.396  0.00  0.00    +0.000 C 
ATOM     24  C   UNL     1      -1.068  16.836  19.284  0.00  0.00    +0.000 C 
BRANCH  22  25
ATOM     25  C   UNL     1       1.349  17.482  17.398  0.00  0.00    +0.000 C 
ATOM     26  C   UNL     1       0.811  18.631  16.537  0.00  0.00    +0.000 C 
ATOM     27  C   UNL     1       2.780  17.159  16.953  0.00  0.00    +0.000 C 
ENDBRANCH  22  25
ENDBRANCH  18  19
ENDBRANCH  17  18
ENDBRANCH   9  17
TORSDOF 7
ENDMDL
MODEL 9
REMARK VINA RESULT:      -6.4      1.090      1.997
REMARK  Name = 
REMARK  11 active torsions:
REMARK  status: ('A' for Active; 'I' for Inactive)
REMARK    1  A    between atoms: C_1  and  C_2
REMARK    2  A    between atoms: C_2  and  S_3
REMARK    3  A    between atoms: S_3  and  N_6
REMARK    4  A    between atoms: N_6  and  C_7
REMARK    5  A    between atoms: C_12  and  C_13
REMARK    6  A    between atoms: C_15  and  C_16
REMARK    7  A    between atoms: C_16  and  O_17
REMARK    8  A    between atoms: O_17  and  C_18
REMARK    9  A    between atoms: C_21  and  C_22
REMARK   10  A    between atoms: C_22  and  C_23
REMARK   11  A    between atoms: C_22  and  C_24
REMARK                            x       y       z     vdW  Elec       q    Type
REMARK                         _______ _______ _______ _____ _____    ______ ____
ROOT
ATOM      1  C   UNL     1       4.321   4.154  18.166  0.00  0.00    +0.000 C 
ATOM      2  C   UNL     1       3.884   3.505  16.846  0.00  0.00    +0.000 C 
ATOM      3  C   UNL     1       4.923   3.728  15.742  0.00  0.00    +0.000 C 
ATOM      4  C   UNL     1       5.405   5.172  15.609  0.00  0.00    +0.000 C 
ATOM      5  N   UNL     1       5.729   5.758  16.910  0.00  0.00    +0.000 N 
ATOM      6  C   UNL     1       6.950   6.404  17.054  0.00  0.00    +0.000 C 
ATOM      7  C   UNL     1       7.359   6.978  18.389  0.00  0.00    +0.000 C 
ATOM      8  O   UNL     1       7.759   6.476  16.124  0.00  0.00    +0.000 OA
ATOM      9  C   UNL     1       4.658   5.659  17.925  0.00  0.00    +0.000 C 
ENDROOT
BRANCH   1  10
ATOM     10  N   UNL     1       3.280   4.049  19.251  0.00  0.00    +0.000 NA
ATOM     11  H   UNL     1       3.729   3.778  20.127  0.00  0.00    +0.000 HD
BRANCH  10  12
ATOM     12  S   UNL     1       1.984   2.975  18.973  0.00  0.00    +0.000 S 
ATOM     13  O   UNL     1       2.585   1.667  18.884  0.00  0.00    +0.000 OA
ATOM     14  O   UNL     1       1.164   3.524  17.922  0.00  0.00    +0.000 OA
BRANCH  12  16
ATOM     15  C   UNL     1       2.070   3.212  21.689  0.00  0.00    +0.000 C 
ATOM     16  C   UNL     1       1.108   3.109  20.522  0.00  0.00    +0.000 C 
ENDBRANCH  12  16
ENDBRANCH  10  12
ENDBRANCH   1  10
BRANCH   9  17
ATOM     17  C   UNL     1       3.383   6.442  17.525  0.00  0.00    +0.000 C 
BRANCH  17  18
ATOM     18  O   UNL     1       2.498   6.659  18.628  0.00  0.00    +0.000 OA
BRANCH  18  19
ATOM     19  C   UNL     1       2.457   8.049  19.004  0.00  0.00    +0.000 C 
ATOM     20  C   UNL     1       2.019   8.921  17.816  0.00  0.00    +0.000 C 
ATOM     21  C   UNL     1       1.714  10.358  18.216  0.00  0.00    +0.000 C 
ATOM     22  C   UNL     1       0.674  10.433  19.345  0.00  0.00    +0.000 C 
ATOM     23  C   UNL     1       1.251   9.658  20.548  0.00  0.00    +0.000 C 
ATOM     24  C   UNL     1       1.524   8.192  20.211  0.00  0.00    +0.000 C 
BRANCH  22  25
ATOM     25  C   UNL     1      -0.739   9.929  18.915  0.00  0.00    +0.000 C 
ATOM     26  C   UNL     1      -1.856  10.718  19.608  0.00  0.00    +0.000 C 
ATOM     27  C   UNL     1      -0.951  10.001  17.398  0.00  0.00    +0.000 C 
ENDBRANCH  22  25
ENDBRANCH  18  19
ENDBRANCH  17  18
ENDBRANCH   9  17
TORSDOF 7
ENDMDL
