MODEL 1
REMARK VINA RESULT:      -7.8      0.000      0.000
REMARK  Name = 
REMARK  9 active torsions:
REMARK  status: ('A' for Active; 'I' for Inactive)
REMARK    1  A    between atoms: C_1  and  C_2
REMARK    2  A    between atoms: C_2  and  C_3
REMARK    3  A    between atoms: C_2  and  C_4
REMARK    4  A    between atoms: C_4  and  C_5
REMARK    5  A    between atoms: C_5  and  N_6
REMARK    6  A    between atoms: C_5  and  C_22
REMARK    7  A    between atoms: C_7  and  C_9
REMARK    8  A    between atoms: C_12  and  C_13
REMARK    9  A    between atoms: C_17  and  O_18
REMARK                            x       y       z     vdW  Elec       q    Type
REMARK                         _______ _______ _______ _____ _____    ______ ____
ROOT
ATOM      1  N   UNL     1       3.390   4.747  17.944  0.00  0.00    +0.000 N 
ATOM      2  C   UNL     1       3.726   5.664  18.912  0.00  0.00    +0.000 C 
ATOM      3  O   UNL     1       4.685   5.538  19.666  0.00  0.00    +0.000 OA
ATOM      4  H   UNL     1       2.548   4.883  17.403  0.00  0.00    +0.000 HD
ENDROOT
BRANCH   2   5
ATOM      5  C   UNL     1       2.872   6.875  19.008  0.00  0.00    +0.000 A 
ATOM      6  C   UNL     1       2.209   7.116  20.210  0.00  0.00    +0.000 A 
ATOM      7  C   UNL     1       1.357   8.216  20.329  0.00  0.00    +0.000 A 
ATOM      8  C   UNL     1       1.133   9.093  19.250  0.00  0.00    +0.000 A 
ATOM      9  C   UNL     1       1.867   8.866  18.071  0.00  0.00    +0.000 A 
ATOM     10  C   UNL     1       2.737   7.779  17.951  0.00  0.00    +0.000 A 
BRANCH   8  11
ATOM     11  C   UNL     1       0.133  10.179  19.348  0.00  0.00    +0.000 A 
ATOM     12  C   UNL     1      -0.253  10.736  20.580  0.00  0.00    +0.000 A 
ATOM     13  C   UNL     1      -1.177  11.787  20.646  0.00  0.00    +0.000 A 
ATOM     14  C   UNL     1      -1.747  12.295  19.481  0.00  0.00    +0.000 A 
ATOM     15  C   UNL     1      -1.378  11.753  18.258  0.00  0.00    +0.000 A 
ATOM     16  C   UNL     1      -0.451  10.720  18.188  0.00  0.00    +0.000 A 
BRANCH  15  17
ATOM     17  O   UNL     1      -1.898  12.211  17.084  0.00  0.00    +0.000 OA
ATOM     18  H   UNL     1      -2.865  12.155  17.131  0.00  0.00    +0.000 HD
ENDBRANCH  15  17
ENDBRANCH   8  11
ENDBRANCH   2   5
BRANCH   1  19
ATOM     19  C   UNL     1       4.179   3.552  17.633  0.00  0.00    +0.000 C 
BRANCH  19  20
ATOM     20  C   UNL     1       3.287   2.293  17.746  0.00  0.00    +0.000 C 
ATOM     21  N   UNL     1       3.872   1.168  18.256  0.00  0.00    +0.000 N 
ATOM     22  O   UNL     1       2.116   2.278  17.387  0.00  0.00    +0.000 OA
ATOM     23  H   UNL     1       4.893   1.103  18.276  0.00  0.00    +0.000 HD
ATOM     24  H   UNL     1       3.354   0.304  18.202  0.00  0.00    +0.000 HD
ENDBRANCH  19  20
BRANCH  19  25
ATOM     25  C   UNL     1       4.954   3.590  16.304  0.00  0.00    +0.000 C 
BRANCH  25  27
ATOM     26  C   UNL     1       7.165   4.590  17.153  0.00  0.00    +0.000 C 
ATOM     27  C   UNL     1       6.007   4.709  16.158  0.00  0.00    +0.000 C 
ATOM     28  C   UNL     1       6.587   4.703  14.735  0.00  0.00    +0.000 C 
ENDBRANCH  25  27
ENDBRANCH  19  25
ENDBRANCH   1  19
TORSDOF 7
ENDMDL
MODEL 2
REMARK VINA RESULT:      -7.7      0.758      1.044
REMARK  Name = 
REMARK  9 active torsions:
REMARK  status: ('A' for Active; 'I' for Inactive)
REMARK    1  A    between atoms: C_1  and  C_2
REMARK    2  A    between atoms: C_2  and  C_3
REMARK    3  A    between atoms: C_2  and  C_4
REMARK    4  A    between atoms: C_4  and  C_5
REMARK    5  A    between atoms: C_5  and  N_6
REMARK    6  A    between atoms: C_5  and  C_22
REMARK    7  A    between atoms: C_7  and  C_9
REMARK    8  A    between atoms: C_12  and  C_13
REMARK    9  A    between atoms: C_17  and  O_18
REMARK                            x       y       z     vdW  Elec       q    Type
REMARK                         _______ _______ _______ _____ _____    ______ ____
ROOT
ATOM      1  N   UNL     1       3.582   5.372  17.669  0.00  0.00    +0.000 N 
ATOM      2  C   UNL     1       3.524   5.994  18.895  0.00  0.00    +0.000 C 
ATOM      3  O   UNL     1       4.181   5.642  19.868  0.00  0.00    +0.000 OA
ATOM      4  H   UNL     1       2.963   5.673  16.930  0.00  0.00    +0.000 HD
ENDROOT
BRANCH   2   5
ATOM      5  C   UNL     1       2.621   7.167  19.004  0.00  0.00    +0.000 A 
ATOM      6  C   UNL     1       2.039   7.434  20.242  0.00  0.00    +0.000 A 
ATOM      7  C   UNL     1       1.146   8.498  20.379  0.00  0.00    +0.000 A 
ATOM      8  C   UNL     1       0.798   9.312  19.283  0.00  0.00    +0.000 A 
ATOM      9  C   UNL     1       1.451   9.065  18.062  0.00  0.00    +0.000 A 
ATOM     10  C   UNL     1       2.362   8.013  17.922  0.00  0.00    +0.000 A 
BRANCH   8  11
ATOM     11  C   UNL     1      -0.245  10.355  19.411  0.00  0.00    +0.000 A 
ATOM     12  C   UNL     1      -0.490  11.026  20.622  0.00  0.00    +0.000 A 
ATOM     13  C   UNL     1      -1.460  12.034  20.712  0.00  0.00    +0.000 A 
ATOM     14  C   UNL     1      -2.215  12.383  19.594  0.00  0.00    +0.000 A 
ATOM     15  C   UNL     1      -1.985  11.727  18.393  0.00  0.00    +0.000 A 
ATOM     16  C   UNL     1      -1.015  10.736  18.297  0.00  0.00    +0.000 A 
BRANCH  15  17
ATOM     17  O   UNL     1      -2.689  12.028  17.265  0.00  0.00    +0.000 OA
ATOM     18  H   UNL     1      -2.318  11.523  16.525  0.00  0.00    +0.000 HD
ENDBRANCH  15  17
ENDBRANCH   8  11
ENDBRANCH   2   5
BRANCH   1  19
ATOM     19  C   UNL     1       4.495   4.272  17.347  0.00  0.00    +0.000 C 
BRANCH  19  20
ATOM     20  C   UNL     1       4.041   2.986  18.079  0.00  0.00    +0.000 C 
ATOM     21  N   UNL     1       4.750   2.628  19.192  0.00  0.00    +0.000 N 
ATOM     22  O   UNL     1       3.106   2.298  17.689  0.00  0.00    +0.000 OA
ATOM     23  H   UNL     1       5.681   3.026  19.338  0.00  0.00    +0.000 HD
ATOM     24  H   UNL     1       4.565   1.722  19.595  0.00  0.00    +0.000 HD
ENDBRANCH  19  20
BRANCH  19  25
ATOM     25  C   UNL     1       4.741   4.024  15.850  0.00  0.00    +0.000 C 
BRANCH  25  27
ATOM     26  C   UNL     1       6.507   4.255  13.995  0.00  0.00    +0.000 C 
ATOM     27  C   UNL     1       6.210   3.801  15.426  0.00  0.00    +0.000 C 
ATOM     28  C   UNL     1       7.151   4.553  16.380  0.00  0.00    +0.000 C 
ENDBRANCH  25  27
ENDBRANCH  19  25
ENDBRANCH   1  19
TORSDOF 7
ENDMDL
MODEL 3
REMARK VINA RESULT:      -7.6      0.476      1.091
REMARK  Name = 
REMARK  9 active torsions:
REMARK  status: ('A' for Active; 'I' for Inactive)
REMARK    1  A    between atoms: C_1  and  C_2
REMARK    2  A    between atoms: C_2  and  C_3
REMARK    3  A    between atoms: C_2  and  C_4
REMARK    4  A    between atoms: C_4  and  C_5
REMARK    5  A    between atoms: C_5  and  N_6
REMARK    6  A    between atoms: C_5  and  C_22
REMARK    7  A    between atoms: C_7  and  C_9
REMARK    8  A    between atoms: C_12  and  C_13
REMARK    9  A    between atoms: C_17  and  O_18
REMARK                            x       y       z     vdW  Elec       q    Type
REMARK                         _______ _______ _______ _____ _____    ______ ____
ROOT
ATOM      1  N   UNL     1       3.343   4.613  18.066  0.00  0.00    +0.000 N 
ATOM      2  C   UNL     1       3.738   5.596  18.944  0.00  0.00    +0.000 C 
ATOM      3  O   UNL     1       4.780   5.552  19.589  0.00  0.00    +0.000 OA
ATOM      4  H   UNL     1       2.440   4.683  17.619  0.00  0.00    +0.000 HD
ENDROOT
BRANCH   2   5
ATOM      5  C   UNL     1       2.842   6.771  19.078  0.00  0.00    +0.000 A 
ATOM      6  C   UNL     1       2.668   7.593  17.966  0.00  0.00    +0.000 A 
ATOM      7  C   UNL     1       1.871   8.736  18.060  0.00  0.00    +0.000 A 
ATOM      8  C   UNL     1       1.243   9.097  19.268  0.00  0.00    +0.000 A 
ATOM      9  C   UNL     1       1.378   8.214  20.355  0.00  0.00    +0.000 A 
ATOM     10  C   UNL     1       2.157   7.057  20.262  0.00  0.00    +0.000 A 
BRANCH   8  11
ATOM     11  C   UNL     1       0.507  10.375  19.390  0.00  0.00    +0.000 A 
ATOM     12  C   UNL     1       0.733  11.273  20.449  0.00  0.00    +0.000 A 
ATOM     13  C   UNL     1       0.048  12.493  20.526  0.00  0.00    +0.000 A 
ATOM     14  C   UNL     1      -0.888  12.836  19.553  0.00  0.00    +0.000 A 
ATOM     15  C   UNL     1      -1.123  11.958  18.505  0.00  0.00    +0.000 A 
ATOM     16  C   UNL     1      -0.436  10.753  18.417  0.00  0.00    +0.000 A 
BRANCH  15  17
ATOM     17  O   UNL     1      -2.023  12.241  17.520  0.00  0.00    +0.000 OA
ATOM     18  H   UNL     1      -2.136  11.451  16.968  0.00  0.00    +0.000 HD
ENDBRANCH  15  17
ENDBRANCH   8  11
ENDBRANCH   2   5
BRANCH   1  19
ATOM     19  C   UNL     1       4.151   3.440  17.726  0.00  0.00    +0.000 C 
BRANCH  19  20
ATOM     20  C   UNL     1       3.283   2.163  17.823  0.00  0.00    +0.000 C 
ATOM     21  N   UNL     1       3.901   1.031  18.279  0.00  0.00    +0.000 N 
ATOM     22  O   UNL     1       2.103   2.139  17.497  0.00  0.00    +0.000 OA
ATOM     23  H   UNL     1       4.923   0.983  18.268  0.00  0.00    +0.000 HD
ATOM     24  H   UNL     1       3.395   0.161  18.211  0.00  0.00    +0.000 HD
ENDBRANCH  19  20
BRANCH  19  25
ATOM     25  C   UNL     1       4.913   3.516  16.392  0.00  0.00    +0.000 C 
BRANCH  25  27
ATOM     26  C   UNL     1       7.160   4.605  17.006  0.00  0.00    +0.000 C 
ATOM     27  C   UNL     1       5.857   4.726  16.212  0.00  0.00    +0.000 C 
ATOM     28  C   UNL     1       6.208   4.902  14.727  0.00  0.00    +0.000 C 
ENDBRANCH  25  27
ENDBRANCH  19  25
ENDBRANCH   1  19
TORSDOF 7
ENDMDL
MODEL 4
REMARK VINA RESULT:      -7.5      1.537      2.088
REMARK  Name = 
REMARK  9 active torsions:
REMARK  status: ('A' for Active; 'I' for Inactive)
REMARK    1  A    between atoms: C_1  and  C_2
REMARK    2  A    between atoms: C_2  and  C_3
REMARK    3  A    between atoms: C_2  and  C_4
REMARK    4  A    between atoms: C_4  and  C_5
REMARK    5  A    between atoms: C_5  and  N_6
REMARK    6  A    between atoms: C_5  and  C_22
REMARK    7  A    between atoms: C_7  and  C_9
REMARK    8  A    between atoms: C_12  and  C_13
REMARK    9  A    between atoms: C_17  and  O_18
REMARK                            x       y       z     vdW  Elec       q    Type
REMARK                         _______ _______ _______ _____ _____    ______ ____
ROOT
ATOM      1  N   UNL     1       4.496   6.370  17.823  0.00  0.00    +0.000 N 
ATOM      2  C   UNL     1       3.177   6.156  18.148  0.00  0.00    +0.000 C 
ATOM      3  O   UNL     1       2.620   5.068  18.052  0.00  0.00    +0.000 OA
ATOM      4  H   UNL     1       4.871   7.307  17.863  0.00  0.00    +0.000 HD
ENDROOT
BRANCH   2   5
ATOM      5  C   UNL     1       2.419   7.325  18.660  0.00  0.00    +0.000 A 
ATOM      6  C   UNL     1       2.089   7.351  20.014  0.00  0.00    +0.000 A 
ATOM      7  C   UNL     1       1.335   8.407  20.529  0.00  0.00    +0.000 A 
ATOM      8  C   UNL     1       0.878   9.455  19.706  0.00  0.00    +0.000 A 
ATOM      9  C   UNL     1       1.283   9.440  18.359  0.00  0.00    +0.000 A 
ATOM     10  C   UNL     1       2.055   8.396  17.840  0.00  0.00    +0.000 A 
BRANCH   8  11
ATOM     11  C   UNL     1      -0.025  10.500  20.236  0.00  0.00    +0.000 A 
ATOM     12  C   UNL     1       0.035  10.938  21.571  0.00  0.00    +0.000 A 
ATOM     13  C   UNL     1      -0.808  11.952  22.043  0.00  0.00    +0.000 A 
ATOM     14  C   UNL     1      -1.740  12.543  21.192  0.00  0.00    +0.000 A 
ATOM     15  C   UNL     1      -1.812  12.119  19.873  0.00  0.00    +0.000 A 
ATOM     16  C   UNL     1      -0.968  11.123  19.398  0.00  0.00    +0.000 A 
BRANCH  15  17
ATOM     17  O   UNL     1      -2.700  12.663  18.992  0.00  0.00    +0.000 OA
ATOM     18  H   UNL     1      -2.207  13.026  18.240  0.00  0.00    +0.000 HD
ENDBRANCH  15  17
ENDBRANCH   8  11
ENDBRANCH   2   5
BRANCH   1  19
ATOM     19  C   UNL     1       5.423   5.313  17.408  0.00  0.00    +0.000 C 
BRANCH  19  20
ATOM     20  C   UNL     1       5.868   4.495  18.643  0.00  0.00    +0.000 C 
ATOM     21  N   UNL     1       5.222   3.310  18.863  0.00  0.00    +0.000 N 
ATOM     22  O   UNL     1       6.743   4.878  19.411  0.00  0.00    +0.000 OA
ATOM     23  H   UNL     1       4.322   3.142  18.407  0.00  0.00    +0.000 HD
ATOM     24  H   UNL     1       5.395   2.837  19.736  0.00  0.00    +0.000 HD
ENDBRANCH  19  20
BRANCH  19  25
ATOM     25  C   UNL     1       4.935   4.408  16.265  0.00  0.00    +0.000 C 
BRANCH  25  27
ATOM     26  C   UNL     1       5.492   3.959  13.795  0.00  0.00    +0.000 C 
ATOM     27  C   UNL     1       6.002   3.969  15.238  0.00  0.00    +0.000 C 
ATOM     28  C   UNL     1       7.221   4.902  15.316  0.00  0.00    +0.000 C 
ENDBRANCH  25  27
ENDBRANCH  19  25
ENDBRANCH   1  19
TORSDOF 7
ENDMDL
MODEL 5
REMARK VINA RESULT:      -7.5      2.077      3.067
REMARK  Name = 
REMARK  9 active torsions:
REMARK  status: ('A' for Active; 'I' for Inactive)
REMARK    1  A    between atoms: C_1  and  C_2
REMARK    2  A    between atoms: C_2  and  C_3
REMARK    3  A    between atoms: C_2  and  C_4
REMARK    4  A    between atoms: C_4  and  C_5
REMARK    5  A    between atoms: C_5  and  N_6
REMARK    6  A    between atoms: C_5  and  C_22
REMARK    7  A    between atoms: C_7  and  C_9
REMARK    8  A    between atoms: C_12  and  C_13
REMARK    9  A    between atoms: C_17  and  O_18
REMARK                            x       y       z     vdW  Elec       q    Type
REMARK                         _______ _______ _______ _____ _____    ______ ____
ROOT
ATOM      1  N   UNL     1       3.588   5.526  19.308  0.00  0.00    +0.000 N 
ATOM      2  C   UNL     1       3.180   6.503  18.429  0.00  0.00    +0.000 C 
ATOM      3  O   UNL     1       3.455   6.501  17.234  0.00  0.00    +0.000 OA
ATOM      4  H   UNL     1       3.382   5.627  20.291  0.00  0.00    +0.000 HD
ENDROOT
BRANCH   2   5
ATOM      5  C   UNL     1       2.344   7.595  18.988  0.00  0.00    +0.000 A 
ATOM      6  C   UNL     1       1.969   7.514  20.327  0.00  0.00    +0.000 A 
ATOM      7  C   UNL     1       1.142   8.493  20.881  0.00  0.00    +0.000 A 
ATOM      8  C   UNL     1       0.656   9.568  20.111  0.00  0.00    +0.000 A 
ATOM      9  C   UNL     1       1.106   9.664  18.782  0.00  0.00    +0.000 A 
ATOM     10  C   UNL     1       1.950   8.698  18.225  0.00  0.00    +0.000 A 
BRANCH   8  11
ATOM     11  C   UNL     1      -0.319  10.528  20.674  0.00  0.00    +0.000 A 
ATOM     12  C   UNL     1      -0.466  10.723  22.059  0.00  0.00    +0.000 A 
ATOM     13  C   UNL     1      -1.373  11.662  22.569  0.00  0.00    +0.000 A 
ATOM     14  C   UNL     1      -2.163  12.416  21.704  0.00  0.00    +0.000 A 
ATOM     15  C   UNL     1      -2.030  12.231  20.336  0.00  0.00    +0.000 A 
ATOM     16  C   UNL     1      -1.122  11.311  19.826  0.00  0.00    +0.000 A 
BRANCH  15  17
ATOM     17  O   UNL     1      -2.773  12.943  19.440  0.00  0.00    +0.000 OA
ATOM     18  H   UNL     1      -3.698  12.938  19.731  0.00  0.00    +0.000 HD
ENDBRANCH  15  17
ENDBRANCH   8  11
ENDBRANCH   2   5
BRANCH   1  19
ATOM     19  C   UNL     1       4.323   4.321  18.915  0.00  0.00    +0.000 C 
BRANCH  19  20
ATOM     20  C   UNL     1       5.844   4.606  18.944  0.00  0.00    +0.000 C 
ATOM     21  N   UNL     1       6.580   4.127  17.895  0.00  0.00    +0.000 N 
ATOM     22  O   UNL     1       6.387   5.213  19.859  0.00  0.00    +0.000 OA
ATOM     23  H   UNL     1       6.185   3.391  17.305  0.00  0.00    +0.000 HD
ATOM     24  H   UNL     1       7.585   4.174  17.967  0.00  0.00    +0.000 HD
ENDBRANCH  19  20
BRANCH  19  25
ATOM     25  C   UNL     1       3.964   3.039  19.684  0.00  0.00    +0.000 C 
BRANCH  25  27
ATOM     26  C   UNL     1       1.410   2.947  19.956  0.00  0.00    +0.000 C 
ATOM     27  C   UNL     1       2.645   2.346  19.280  0.00  0.00    +0.000 C 
ATOM     28  C   UNL     1       2.453   2.428  17.757  0.00  0.00    +0.000 C 
ENDBRANCH  25  27
ENDBRANCH  19  25
ENDBRANCH   1  19
TORSDOF 7
ENDMDL
MODEL 6
REMARK VINA RESULT:      -7.5      4.756      7.028
REMARK  Name = 
REMARK  9 active torsions:
REMARK  status: ('A' for Active; 'I' for Inactive)
REMARK    1  A    between atoms: C_1  and  C_2
REMARK    2  A    between atoms: C_2  and  C_3
REMARK    3  A    between atoms: C_2  and  C_4
REMARK    4  A    between atoms: C_4  and  C_5
REMARK    5  A    between atoms: C_5  and  N_6
REMARK    6  A    between atoms: C_5  and  C_22
REMARK    7  A    between atoms: C_7  and  C_9
REMARK    8  A    between atoms: C_12  and  C_13
REMARK    9  A    between atoms: C_17  and  O_18
REMARK                            x       y       z     vdW  Elec       q    Type
REMARK                         _______ _______ _______ _____ _____    ______ ____
ROOT
ATOM      1  N   UNL     1       4.855   4.952  18.334  0.00  0.00    +0.000 N 
ATOM      2  C   UNL     1       6.026   5.078  17.622  0.00  0.00    +0.000 C 
ATOM      3  O   UNL     1       6.444   4.227  16.845  0.00  0.00    +0.000 OA
ATOM      4  H   UNL     1       4.606   5.662  19.007  0.00  0.00    +0.000 HD
ENDROOT
BRANCH   2   5
ATOM      5  C   UNL     1       6.789   6.337  17.811  0.00  0.00    +0.000 A 
ATOM      6  C   UNL     1       7.833   6.338  18.733  0.00  0.00    +0.000 A 
ATOM      7  C   UNL     1       8.546   7.514  18.979  0.00  0.00    +0.000 A 
ATOM      8  C   UNL     1       8.226   8.719  18.324  0.00  0.00    +0.000 A 
ATOM      9  C   UNL     1       7.214   8.674  17.349  0.00  0.00    +0.000 A 
ATOM     10  C   UNL     1       6.509   7.496  17.082  0.00  0.00    +0.000 A 
BRANCH   8  11
ATOM     11  C   UNL     1       8.904   9.984  18.685  0.00  0.00    +0.000 A 
ATOM     12  C   UNL     1       9.492  10.187  19.946  0.00  0.00    +0.000 A 
ATOM     13  C   UNL     1      10.158  11.381  20.255  0.00  0.00    +0.000 A 
ATOM     14  C   UNL     1      10.237  12.404  19.312  0.00  0.00    +0.000 A 
ATOM     15  C   UNL     1       9.658  12.218  18.065  0.00  0.00    +0.000 A 
ATOM     16  C   UNL     1       9.009  11.030  17.751  0.00  0.00    +0.000 A 
BRANCH  15  17
ATOM     17  O   UNL     1       9.707  13.181  17.101  0.00  0.00    +0.000 OA
ATOM     18  H   UNL     1       9.677  14.050  17.529  0.00  0.00    +0.000 HD
ENDBRANCH  15  17
ENDBRANCH   8  11
ENDBRANCH   2   5
BRANCH   1  19
ATOM     19  C   UNL     1       3.922   3.832  18.191  0.00  0.00    +0.000 C 
BRANCH  19  20
ATOM     20  C   UNL     1       4.426   2.623  19.015  0.00  0.00    +0.000 C 
ATOM     21  N   UNL     1       4.022   1.384  18.602  0.00  0.00    +0.000 N 
ATOM     22  O   UNL     1       5.139   2.748  20.004  0.00  0.00    +0.000 OA
ATOM     23  H   UNL     1       3.215   1.306  17.978  0.00  0.00    +0.000 HD
ATOM     24  H   UNL     1       4.219   0.601  19.207  0.00  0.00    +0.000 HD
ENDBRANCH  19  20
BRANCH  19  25
ATOM     25  C   UNL     1       2.446   4.150  18.483  0.00  0.00    +0.000 C 
BRANCH  25  27
ATOM     26  C   UNL     1       1.733   5.558  20.513  0.00  0.00    +0.000 C 
ATOM     27  C   UNL     1       2.030   4.158  19.971  0.00  0.00    +0.000 C 
ATOM     28  C   UNL     1       0.781   3.285  20.171  0.00  0.00    +0.000 C 
ENDBRANCH  25  27
ENDBRANCH  19  25
ENDBRANCH   1  19
TORSDOF 7
ENDMDL
MODEL 7
REMARK VINA RESULT:      -7.5      3.451      8.780
REMARK  Name = 
REMARK  9 active torsions:
REMARK  status: ('A' for Active; 'I' for Inactive)
REMARK    1  A    between atoms: C_1  and  C_2
REMARK    2  A    between atoms: C_2  and  C_3
REMARK    3  A    between atoms: C_2  and  C_4
REMARK    4  A    between atoms: C_4  and  C_5
REMARK    5  A    between atoms: C_5  and  N_6
REMARK    6  A    between atoms: C_5  and  C_22
REMARK    7  A    between atoms: C_7  and  C_9
REMARK    8  A    between atoms: C_12  and  C_13
REMARK    9  A    between atoms: C_17  and  O_18
REMARK                            x       y       z     vdW  Elec       q    Type
REMARK                         _______ _______ _______ _____ _____    ______ ____
ROOT
ATOM      1  N   UNL     1       0.421  10.542  18.867  0.00  0.00    +0.000 N 
ATOM      2  C   UNL     1       0.970   9.917  19.964  0.00  0.00    +0.000 C 
ATOM      3  O   UNL     1       1.044  10.433  21.074  0.00  0.00    +0.000 OA
ATOM      4  H   UNL     1       0.455  10.083  17.968  0.00  0.00    +0.000 HD
ENDROOT
BRANCH   2   5
ATOM      5  C   UNL     1       1.472   8.535  19.762  0.00  0.00    +0.000 A 
ATOM      6  C   UNL     1       2.052   8.221  18.534  0.00  0.00    +0.000 A 
ATOM      7  C   UNL     1       2.493   6.920  18.284  0.00  0.00    +0.000 A 
ATOM      8  C   UNL     1       2.354   5.898  19.243  0.00  0.00    +0.000 A 
ATOM      9  C   UNL     1       1.831   6.258  20.498  0.00  0.00    +0.000 A 
ATOM     10  C   UNL     1       1.405   7.563  20.763  0.00  0.00    +0.000 A 
BRANCH   8  11
ATOM     11  C   UNL     1       2.709   4.498  18.920  0.00  0.00    +0.000 A 
ATOM     12  C   UNL     1       2.049   3.769  17.915  0.00  0.00    +0.000 A 
ATOM     13  C   UNL     1       2.423   2.455  17.604  0.00  0.00    +0.000 A 
ATOM     14  C   UNL     1       3.459   1.837  18.301  0.00  0.00    +0.000 A 
ATOM     15  C   UNL     1       4.118   2.544  19.296  0.00  0.00    +0.000 A 
ATOM     16  C   UNL     1       3.758   3.851  19.599  0.00  0.00    +0.000 A 
BRANCH  15  17
ATOM     17  O   UNL     1       5.142   1.993  20.010  0.00  0.00    +0.000 OA
ATOM     18  H   UNL     1       5.977   2.202  19.563  0.00  0.00    +0.000 HD
ENDBRANCH  15  17
ENDBRANCH   8  11
ENDBRANCH   2   5
BRANCH   1  19
ATOM     19  C   UNL     1      -0.220  11.858  18.905  0.00  0.00    +0.000 C 
BRANCH  19  20
ATOM     20  C   UNL     1       0.836  12.961  18.656  0.00  0.00    +0.000 C 
ATOM     21  N   UNL     1       1.865  12.649  17.811  0.00  0.00    +0.000 N 
ATOM     22  O   UNL     1       0.783  14.061  19.193  0.00  0.00    +0.000 OA
ATOM     23  H   UNL     1       2.060  11.666  17.606  0.00  0.00    +0.000 HD
ATOM     24  H   UNL     1       2.635  13.297  17.751  0.00  0.00    +0.000 HD
ENDBRANCH  19  20
BRANCH  19  25
ATOM     25  C   UNL     1      -1.452  12.028  18.000  0.00  0.00    +0.000 C 
BRANCH  25  27
ATOM     26  C   UNL     1      -3.916  11.297  18.068  0.00  0.00    +0.000 C 
ATOM     27  C   UNL     1      -2.454  10.853  17.980  0.00  0.00    +0.000 C 
ATOM     28  C   UNL     1      -2.273  10.029  16.695  0.00  0.00    +0.000 C 
ENDBRANCH  25  27
ENDBRANCH  19  25
ENDBRANCH   1  19
TORSDOF 7
ENDMDL
MODEL 8
REMARK VINA RESULT:      -7.5      2.053      3.201
REMARK  Name = 
REMARK  9 active torsions:
REMARK  status: ('A' for Active; 'I' for Inactive)
REMARK    1  A    between atoms: C_1  and  C_2
REMARK    2  A    between atoms: C_2  and  C_3
REMARK    3  A    between atoms: C_2  and  C_4
REMARK    4  A    between atoms: C_4  and  C_5
REMARK    5  A    between atoms: C_5  and  N_6
REMARK    6  A    between atoms: C_5  and  C_22
REMARK    7  A    between atoms: C_7  and  C_9
REMARK    8  A    between atoms: C_12  and  C_13
REMARK    9  A    between atoms: C_17  and  O_18
REMARK                            x       y       z     vdW  Elec       q    Type
REMARK                         _______ _______ _______ _____ _____    ______ ____
ROOT
ATOM      1  N   UNL     1       3.507   5.524  19.071  0.00  0.00    +0.000 N 
ATOM      2  C   UNL     1       3.429   6.589  18.203  0.00  0.00    +0.000 C 
ATOM      3  O   UNL     1       4.050   6.651  17.147  0.00  0.00    +0.000 OA
ATOM      4  H   UNL     1       3.020   5.569  19.955  0.00  0.00    +0.000 HD
ENDROOT
BRANCH   2   5
ATOM      5  C   UNL     1       2.518   7.696  18.586  0.00  0.00    +0.000 A 
ATOM      6  C   UNL     1       2.015   7.712  19.885  0.00  0.00    +0.000 A 
ATOM      7  C   UNL     1       1.116   8.707  20.273  0.00  0.00    +0.000 A 
ATOM      8  C   UNL     1       0.686   9.702  19.374  0.00  0.00    +0.000 A 
ATOM      9  C   UNL     1       1.262   9.704  18.091  0.00  0.00    +0.000 A 
ATOM     10  C   UNL     1       2.178   8.722  17.701  0.00  0.00    +0.000 A 
BRANCH   8  11
ATOM     11  C   UNL     1      -0.362  10.674  19.759  0.00  0.00    +0.000 A 
ATOM     12  C   UNL     1      -0.357  11.329  21.003  0.00  0.00    +0.000 A 
ATOM     13  C   UNL     1      -1.340  12.271  21.333  0.00  0.00    +0.000 A 
ATOM     14  C   UNL     1      -2.358  12.569  20.430  0.00  0.00    +0.000 A 
ATOM     15  C   UNL     1      -2.377  11.928  19.199  0.00  0.00    +0.000 A 
ATOM     16  C   UNL     1      -1.396  11.003  18.863  0.00  0.00    +0.000 A 
BRANCH  15  17
ATOM     17  O   UNL     1      -3.345  12.181  18.273  0.00  0.00    +0.000 OA
ATOM     18  H   UNL     1      -3.452  13.141  18.191  0.00  0.00    +0.000 HD
ENDBRANCH  15  17
ENDBRANCH   8  11
ENDBRANCH   2   5
BRANCH   1  19
ATOM     19  C   UNL     1       4.266   4.299  18.806  0.00  0.00    +0.000 C 
BRANCH  19  20
ATOM     20  C   UNL     1       5.781   4.610  18.829  0.00  0.00    +0.000 C 
ATOM     21  N   UNL     1       6.484   4.335  17.688  0.00  0.00    +0.000 N 
ATOM     22  O   UNL     1       6.349   5.064  19.814  0.00  0.00    +0.000 OA
ATOM     23  H   UNL     1       6.078   3.702  16.994  0.00  0.00    +0.000 HD
ATOM     24  H   UNL     1       7.489   4.393  17.731  0.00  0.00    +0.000 HD
ENDBRANCH  19  20
BRANCH  19  25
ATOM     25  C   UNL     1       3.914   3.090  19.689  0.00  0.00    +0.000 C 
BRANCH  25  27
ATOM     26  C   UNL     1       1.630   1.968  19.328  0.00  0.00    +0.000 C 
ATOM     27  C   UNL     1       2.442   2.979  20.141  0.00  0.00    +0.000 C 
ATOM     28  C   UNL     1       2.376   2.574  21.622  0.00  0.00    +0.000 C 
ENDBRANCH  25  27
ENDBRANCH  19  25
ENDBRANCH   1  19
TORSDOF 7
ENDMDL
MODEL 9
REMARK VINA RESULT:      -7.5      1.166      1.713
REMARK  Name = 
REMARK  9 active torsions:
REMARK  status: ('A' for Active; 'I' for Inactive)
REMARK    1  A    between atoms: C_1  and  C_2
REMARK    2  A    between atoms: C_2  and  C_3
REMARK    3  A    between atoms: C_2  and  C_4
REMARK    4  A    between atoms: C_4  and  C_5
REMARK    5  A    between atoms: C_5  and  N_6
REMARK    6  A    between atoms: C_5  and  C_22
REMARK    7  A    between atoms: C_7  and  C_9
REMARK    8  A    between atoms: C_12  and  C_13
REMARK    9  A    between atoms: C_17  and  O_18
REMARK                            x       y       z     vdW  Elec       q    Type
REMARK                         _______ _______ _______ _____ _____    ______ ____
ROOT
ATOM      1  N   UNL     1       3.660   5.275  18.289  0.00  0.00    +0.000 N 
ATOM      2  C   UNL     1       3.813   6.615  18.019  0.00  0.00    +0.000 C 
ATOM      3  O   UNL     1       4.749   7.076  17.374  0.00  0.00    +0.000 OA
ATOM      4  H   UNL     1       2.901   4.973  18.884  0.00  0.00    +0.000 HD
ENDROOT
BRANCH   2   5
ATOM      5  C   UNL     1       2.758   7.524  18.533  0.00  0.00    +0.000 A 
ATOM      6  C   UNL     1       2.260   8.502  17.674  0.00  0.00    +0.000 A 
ATOM      7  C   UNL     1       1.302   9.410  18.131  0.00  0.00    +0.000 A 
ATOM      8  C   UNL     1       0.828   9.375  19.457  0.00  0.00    +0.000 A 
ATOM      9  C   UNL     1       1.295   8.335  20.281  0.00  0.00    +0.000 A 
ATOM     10  C   UNL     1       2.240   7.410  19.825  0.00  0.00    +0.000 A 
BRANCH   8  11
ATOM     11  C   UNL     1      -0.090  10.418  19.964  0.00  0.00    +0.000 A 
ATOM     12  C   UNL     1       0.009  10.936  21.268  0.00  0.00    +0.000 A 
ATOM     13  C   UNL     1      -0.851  11.948  21.716  0.00  0.00    +0.000 A 
ATOM     14  C   UNL     1      -1.838  12.454  20.874  0.00  0.00    +0.000 A 
ATOM     15  C   UNL     1      -1.949  11.950  19.586  0.00  0.00    +0.000 A 
ATOM     16  C   UNL     1      -1.090  10.956  19.133  0.00  0.00    +0.000 A 
BRANCH  15  17
ATOM     17  O   UNL     1      -2.893  12.409  18.715  0.00  0.00    +0.000 OA
ATOM     18  H   UNL     1      -2.628  12.165  17.815  0.00  0.00    +0.000 HD
ENDBRANCH  15  17
ENDBRANCH   8  11
ENDBRANCH   2   5
BRANCH   1  19
ATOM     19  C   UNL     1       4.540   4.225  17.771  0.00  0.00    +0.000 C 
BRANCH  19  20
ATOM     20  C   UNL     1       4.224   2.884  18.476  0.00  0.00    +0.000 C 
ATOM     21  N   UNL     1       4.986   2.567  19.566  0.00  0.00    +0.000 N 
ATOM     22  O   UNL     1       3.349   2.121  18.085  0.00  0.00    +0.000 OA
ATOM     23  H   UNL     1       5.879   3.047  19.706  0.00  0.00    +0.000 HD
ATOM     24  H   UNL     1       4.895   1.638  19.948  0.00  0.00    +0.000 HD
ENDBRANCH  19  20
BRANCH  19  25
ATOM     25  C   UNL     1       4.573   4.075  16.241  0.00  0.00    +0.000 C 
BRANCH  25  27
ATOM     26  C   UNL     1       6.057   4.242  14.148  0.00  0.00    +0.000 C 
ATOM     27  C   UNL     1       5.956   3.802  15.611  0.00  0.00    +0.000 C 
ATOM     28  C   UNL     1       7.050   4.526  16.411  0.00  0.00    +0.000 C 
ENDBRANCH  25  27
ENDBRANCH  19  25
ENDBRANCH   1  19
TORSDOF 7
ENDMDL
