MODEL 1
REMARK VINA RESULT:      -7.9      0.000      0.000
REMARK  Name = 
REMARK  6 active torsions:
REMARK  status: ('A' for Active; 'I' for Inactive)
REMARK    1  A    between atoms: O_1  and  C_2
REMARK    2  A    between atoms: C_5  and  N_6
REMARK    3  A    between atoms: C_9  and  C_10
REMARK    4  A    between atoms: C_14  and  N_15
REMARK    5  A    between atoms: N_15  and  C_16
REMARK    6  A    between atoms: C_16  and  C_17
REMARK                            x       y       z     vdW  Elec       q    Type
REMARK                         _______ _______ _______ _____ _____    ______ ____
ROOT
ATOM      1  N   UNL     1       3.221   6.736  17.758  0.00  0.00    +0.000 N 
ATOM      2  C   UNL     1       2.467   7.456  18.681  0.00  0.00    +0.000 A 
ATOM      3  C   UNL     1       1.816   8.644  18.306  0.00  0.00    +0.000 A 
ATOM      4  C   UNL     1       1.126   9.406  19.266  0.00  0.00    +0.000 A 
ATOM      5  C   UNL     1       0.997   8.857  20.555  0.00  0.00    +0.000 A 
ATOM      6 CL   UNL     1       0.177   9.574  21.888  0.00  0.00    +0.000 Cl
ATOM      7  C   UNL     1       1.599   7.631  20.800  0.00  0.00    +0.000 A 
ATOM      8  N   UNL     1       2.319   6.941  19.911  0.00  0.00    +0.000 NA
ATOM      9  H   UNL     1       2.551   6.077  17.357  0.00  0.00    +0.000 HD
ENDROOT
BRANCH   1  13
ATOM     10  C   UNL     1       5.430   4.545  15.954  0.00  0.00    +0.000 C 
ATOM     11  C   UNL     1       5.728   6.016  16.234  0.00  0.00    +0.000 C 
ATOM     12  C   UNL     1       5.708   6.291  17.736  0.00  0.00    +0.000 C 
ATOM     13  C   UNL     1       4.337   5.952  18.348  0.00  0.00    +0.000 C 
ATOM     14  C   UNL     1       4.066   4.455  18.103  0.00  0.00    +0.000 C 
ATOM     15  C   UNL     1       4.130   4.086  16.618  0.00  0.00    +0.000 C 
BRANCH  10  16
ATOM     16  O   UNL     1       5.329   4.328  14.550  0.00  0.00    +0.000 OA
ATOM     17  H   UNL     1       4.489   3.868  14.383  0.00  0.00    +0.000 HD
ENDBRANCH  10  16
ENDBRANCH   1  13
BRANCH   4  18
ATOM     18  C   UNL     1       0.609  10.741  18.904  0.00  0.00    +0.000 A 
ATOM     19  C   UNL     1       1.347  11.902  19.083  0.00  0.00    +0.000 A 
ATOM     20  C   UNL     1       0.817  13.117  18.735  0.00  0.00    +0.000 A 
ATOM     21  C   UNL     1      -0.481  13.159  18.257  0.00  0.00    +0.000 A 
ATOM     22  C   UNL     1      -1.187  11.974  18.058  0.00  0.00    +0.000 A 
ATOM     23  N   UNL     1      -0.651  10.780  18.368  0.00  0.00    +0.000 NA
BRANCH  22  24
ATOM     24  N   UNL     1      -2.493  11.957  17.597  0.00  0.00    +0.000 N 
ATOM     25  H   UNL     1      -2.810  12.883  17.340  0.00  0.00    +0.000 HD
BRANCH  24  26
ATOM     26  C   UNL     1      -3.422  10.907  17.957  0.00  0.00    +0.000 C 
BRANCH  26  27
ATOM     27  C   UNL     1      -4.834  11.422  18.272  0.00  0.00    +0.000 C 
ATOM     28  C   UNL     1      -5.492  12.127  17.077  0.00  0.00    +0.000 C 
ATOM     29  C   UNL     1      -6.792  12.803  17.491  0.00  0.00    +0.000 C 
ATOM     30  O   UNL     1      -6.565  13.722  18.557  0.00  0.00    +0.000 OA
ATOM     31  C   UNL     1      -6.093  13.069  19.732  0.00  0.00    +0.000 C 
ATOM     32  C   UNL     1      -4.754  12.396  19.464  0.00  0.00    +0.000 C 
ENDBRANCH  26  27
ENDBRANCH  24  26
ENDBRANCH  22  24
ENDBRANCH   4  18
TORSDOF 6
ENDMDL
MODEL 2
REMARK VINA RESULT:      -7.9      2.664      3.702
REMARK  Name = 
REMARK  6 active torsions:
REMARK  status: ('A' for Active; 'I' for Inactive)
REMARK    1  A    between atoms: O_1  and  C_2
REMARK    2  A    between atoms: C_5  and  N_6
REMARK    3  A    between atoms: C_9  and  C_10
REMARK    4  A    between atoms: C_14  and  N_15
REMARK    5  A    between atoms: N_15  and  C_16
REMARK    6  A    between atoms: C_16  and  C_17
REMARK                            x       y       z     vdW  Elec       q    Type
REMARK                         _______ _______ _______ _____ _____    ______ ____
ROOT
ATOM      1  N   UNL     1       2.879   6.057  19.213  0.00  0.00    +0.000 N 
ATOM      2  C   UNL     1       2.334   7.332  19.094  0.00  0.00    +0.000 A 
ATOM      3  C   UNL     1       1.742   7.965  20.200  0.00  0.00    +0.000 A 
ATOM      4  C   UNL     1       1.120   9.219  20.049  0.00  0.00    +0.000 A 
ATOM      5  C   UNL     1       1.248   9.856  18.802  0.00  0.00    +0.000 A 
ATOM      6 CL   UNL     1       0.609  11.398  18.378  0.00  0.00    +0.000 Cl
ATOM      7  C   UNL     1       1.933   9.186  17.798  0.00  0.00    +0.000 A 
ATOM      8  N   UNL     1       2.460   7.964  17.917  0.00  0.00    +0.000 NA
ATOM      9  H   UNL     1       3.856   6.232  19.458  0.00  0.00    +0.000 HD
ENDROOT
BRANCH   1  13
ATOM     10  C   UNL     1       4.297   2.779  18.795  0.00  0.00    +0.000 C 
ATOM     11  C   UNL     1       2.842   3.036  19.179  0.00  0.00    +0.000 C 
ATOM     12  C   UNL     1       2.154   3.897  18.122  0.00  0.00    +0.000 C 
ATOM     13  C   UNL     1       2.858   5.256  17.961  0.00  0.00    +0.000 C 
ATOM     14  C   UNL     1       4.312   4.987  17.527  0.00  0.00    +0.000 C 
ATOM     15  C   UNL     1       5.055   4.077  18.510  0.00  0.00    +0.000 C 
BRANCH  10  16
ATOM     16  O   UNL     1       4.962   2.082  19.845  0.00  0.00    +0.000 OA
ATOM     17  H   UNL     1       4.456   1.273  20.028  0.00  0.00    +0.000 HD
ENDBRANCH  10  16
ENDBRANCH   1  13
BRANCH   4  18
ATOM     18  C   UNL     1       0.340   9.786  21.168  0.00  0.00    +0.000 A 
ATOM     19  C   UNL     1       0.279   9.185  22.417  0.00  0.00    +0.000 A 
ATOM     20  C   UNL     1      -0.464   9.752  23.419  0.00  0.00    +0.000 A 
ATOM     21  C   UNL     1      -1.189  10.896  23.138  0.00  0.00    +0.000 A 
ATOM     22  C   UNL     1      -1.084  11.494  21.884  0.00  0.00    +0.000 A 
ATOM     23  N   UNL     1      -0.325  10.955  20.913  0.00  0.00    +0.000 NA
BRANCH  22  24
ATOM     24  N   UNL     1      -1.797  12.631  21.542  0.00  0.00    +0.000 N 
ATOM     25  H   UNL     1      -1.649  13.379  22.207  0.00  0.00    +0.000 HD
BRANCH  24  26
ATOM     26  C   UNL     1      -2.982  12.576  20.713  0.00  0.00    +0.000 C 
BRANCH  26  27
ATOM     27  C   UNL     1      -4.253  13.053  21.429  0.00  0.00    +0.000 C 
ATOM     28  C   UNL     1      -4.202  12.828  22.947  0.00  0.00    +0.000 C 
ATOM     29  C   UNL     1      -5.554  13.116  23.587  0.00  0.00    +0.000 C 
ATOM     30  O   UNL     1      -6.573  12.316  22.992  0.00  0.00    +0.000 OA
ATOM     31  C   UNL     1      -6.744  12.613  21.609  0.00  0.00    +0.000 C 
ATOM     32  C   UNL     1      -5.467  12.307  20.839  0.00  0.00    +0.000 C 
ENDBRANCH  26  27
ENDBRANCH  24  26
ENDBRANCH  22  24
ENDBRANCH   4  18
TORSDOF 6
ENDMDL
MODEL 3
REMARK VINA RESULT:      -7.8      0.788      1.126
REMARK  Name = 
REMARK  6 active torsions:
REMARK  status: ('A' for Active; 'I' for Inactive)
REMARK    1  A    between atoms: O_1  and  C_2
REMARK    2  A    between atoms: C_5  and  N_6
REMARK    3  A    between atoms: C_9  and  C_10
REMARK    4  A    between atoms: C_14  and  N_15
REMARK    5  A    between atoms: N_15  and  C_16
REMARK    6  A    between atoms: C_16  and  C_17
REMARK                            x       y       z     vdW  Elec       q    Type
REMARK                         _______ _______ _______ _____ _____    ______ ____
ROOT
ATOM      1  N   UNL     1       3.133   6.707  17.867  0.00  0.00    +0.000 N 
ATOM      2  C   UNL     1       2.399   7.471  18.771  0.00  0.00    +0.000 A 
ATOM      3  C   UNL     1       1.824   8.691  18.377  0.00  0.00    +0.000 A 
ATOM      4  C   UNL     1       1.155   9.496  19.319  0.00  0.00    +0.000 A 
ATOM      5  C   UNL     1       0.969   8.961  20.606  0.00  0.00    +0.000 A 
ATOM      6 CL   UNL     1       0.160   9.728  21.919  0.00  0.00    +0.000 Cl
ATOM      7  C   UNL     1       1.496   7.704  20.870  0.00  0.00    +0.000 A 
ATOM      8  N   UNL     1       2.196   6.971  19.999  0.00  0.00    +0.000 NA
ATOM      9  H   UNL     1       2.436   6.084  17.454  0.00  0.00    +0.000 HD
ENDROOT
BRANCH   1  13
ATOM     10  C   UNL     1       5.325   4.465  16.106  0.00  0.00    +0.000 C 
ATOM     11  C   UNL     1       5.670   5.917  16.431  0.00  0.00    +0.000 C 
ATOM     12  C   UNL     1       5.598   6.160  17.937  0.00  0.00    +0.000 C 
ATOM     13  C   UNL     1       4.190   5.865  18.485  0.00  0.00    +0.000 C 
ATOM     14  C   UNL     1       3.870   4.386  18.195  0.00  0.00    +0.000 C 
ATOM     15  C   UNL     1       3.981   4.046  16.705  0.00  0.00    +0.000 C 
BRANCH  10  16
ATOM     16  O   UNL     1       5.274   4.281  14.695  0.00  0.00    +0.000 OA
ATOM     17  H   UNL     1       4.475   3.768  14.493  0.00  0.00    +0.000 HD
ENDBRANCH  10  16
ENDBRANCH   1  13
BRANCH   4  18
ATOM     18  C   UNL     1       0.721  10.856  18.940  0.00  0.00    +0.000 A 
ATOM     19  C   UNL     1       1.548  11.963  19.057  0.00  0.00    +0.000 A 
ATOM     20  C   UNL     1       1.093  13.205  18.697  0.00  0.00    +0.000 A 
ATOM     21  C   UNL     1      -0.217  13.330  18.270  0.00  0.00    +0.000 A 
ATOM     22  C   UNL     1      -1.015  12.195  18.133  0.00  0.00    +0.000 A 
ATOM     23  N   UNL     1      -0.553  10.973  18.455  0.00  0.00    +0.000 NA
BRANCH  22  24
ATOM     24  N   UNL     1      -2.336  12.262  17.725  0.00  0.00    +0.000 N 
ATOM     25  H   UNL     1      -2.623  13.215  17.541  0.00  0.00    +0.000 HD
BRANCH  24  26
ATOM     26  C   UNL     1      -3.296  11.230  18.055  0.00  0.00    +0.000 C 
BRANCH  26  27
ATOM     27  C   UNL     1      -4.663  11.781  18.485  0.00  0.00    +0.000 C 
ATOM     28  C   UNL     1      -4.632  12.438  19.872  0.00  0.00    +0.000 C 
ATOM     29  C   UNL     1      -6.038  12.778  20.347  0.00  0.00    +0.000 C 
ATOM     30  O   UNL     1      -6.862  11.614  20.358  0.00  0.00    +0.000 OA
ATOM     31  C   UNL     1      -7.029  11.068  19.052  0.00  0.00    +0.000 C 
ATOM     32  C   UNL     1      -5.688  10.629  18.484  0.00  0.00    +0.000 C 
ENDBRANCH  26  27
ENDBRANCH  24  26
ENDBRANCH  22  24
ENDBRANCH   4  18
TORSDOF 6
ENDMDL
MODEL 4
REMARK VINA RESULT:      -7.7      2.319      3.368
REMARK  Name = 
REMARK  6 active torsions:
REMARK  status: ('A' for Active; 'I' for Inactive)
REMARK    1  A    between atoms: O_1  and  C_2
REMARK    2  A    between atoms: C_5  and  N_6
REMARK    3  A    between atoms: C_9  and  C_10
REMARK    4  A    between atoms: C_14  and  N_15
REMARK    5  A    between atoms: N_15  and  C_16
REMARK    6  A    between atoms: C_16  and  C_17
REMARK                            x       y       z     vdW  Elec       q    Type
REMARK                         _______ _______ _______ _____ _____    ______ ____
ROOT
ATOM      1  N   UNL     1       2.728   5.845  19.215  0.00  0.00    +0.000 N 
ATOM      2  C   UNL     1       2.281   7.160  19.116  0.00  0.00    +0.000 A 
ATOM      3  C   UNL     1       1.689   7.801  20.218  0.00  0.00    +0.000 A 
ATOM      4  C   UNL     1       1.166   9.100  20.084  0.00  0.00    +0.000 A 
ATOM      5  C   UNL     1       1.392   9.764  18.864  0.00  0.00    +0.000 A 
ATOM      6 CL   UNL     1       0.884  11.361  18.466  0.00  0.00    +0.000 Cl
ATOM      7  C   UNL     1       2.070   9.076  17.868  0.00  0.00    +0.000 A 
ATOM      8  N   UNL     1       2.501   7.816  17.967  0.00  0.00    +0.000 NA
ATOM      9  H   UNL     1       3.704   5.941  19.504  0.00  0.00    +0.000 HD
ENDROOT
BRANCH   1  13
ATOM     10  C   UNL     1       4.192   2.606  18.670  0.00  0.00    +0.000 C 
ATOM     11  C   UNL     1       2.739   2.827  19.081  0.00  0.00    +0.000 C 
ATOM     12  C   UNL     1       2.023   3.711  18.062  0.00  0.00    +0.000 C 
ATOM     13  C   UNL     1       2.703   5.086  17.937  0.00  0.00    +0.000 C 
ATOM     14  C   UNL     1       4.155   4.855  17.476  0.00  0.00    +0.000 C 
ATOM     15  C   UNL     1       4.925   3.925  18.418  0.00  0.00    +0.000 C 
BRANCH  10  16
ATOM     16  O   UNL     1       4.882   1.886  19.687  0.00  0.00    +0.000 OA
ATOM     17  H   UNL     1       5.784   2.243  19.741  0.00  0.00    +0.000 HD
ENDBRANCH  10  16
ENDBRANCH   1  13
BRANCH   4  18
ATOM     18  C   UNL     1       0.382   9.689  21.188  0.00  0.00    +0.000 A 
ATOM     19  C   UNL     1       0.440   9.205  22.487  0.00  0.00    +0.000 A 
ATOM     20  C   UNL     1      -0.313   9.785  23.474  0.00  0.00    +0.000 A 
ATOM     21  C   UNL     1      -1.165  10.821  23.133  0.00  0.00    +0.000 A 
ATOM     22  C   UNL     1      -1.179  11.307  21.826  0.00  0.00    +0.000 A 
ATOM     23  N   UNL     1      -0.412  10.757  20.867  0.00  0.00    +0.000 NA
BRANCH  22  24
ATOM     24  N   UNL     1      -2.021  12.330  21.424  0.00  0.00    +0.000 N 
ATOM     25  H   UNL     1      -2.872  12.351  21.972  0.00  0.00    +0.000 HD
BRANCH  24  26
ATOM     26  C   UNL     1      -1.959  12.900  20.095  0.00  0.00    +0.000 C 
BRANCH  26  27
ATOM     27  C   UNL     1      -3.228  12.657  19.266  0.00  0.00    +0.000 C 
ATOM     28  C   UNL     1      -4.480  12.465  20.134  0.00  0.00    +0.000 C 
ATOM     29  C   UNL     1      -5.666  12.019  19.289  0.00  0.00    +0.000 C 
ATOM     30  O   UNL     1      -5.357  10.823  18.577  0.00  0.00    +0.000 OA
ATOM     31  C   UNL     1      -4.289  11.015  17.652  0.00  0.00    +0.000 C 
ATOM     32  C   UNL     1      -3.015  11.409  18.385  0.00  0.00    +0.000 C 
ENDBRANCH  26  27
ENDBRANCH  24  26
ENDBRANCH  22  24
ENDBRANCH   4  18
TORSDOF 6
ENDMDL
MODEL 5
REMARK VINA RESULT:      -7.7      2.553      9.818
REMARK  Name = 
REMARK  6 active torsions:
REMARK  status: ('A' for Active; 'I' for Inactive)
REMARK    1  A    between atoms: O_1  and  C_2
REMARK    2  A    between atoms: C_5  and  N_6
REMARK    3  A    between atoms: C_9  and  C_10
REMARK    4  A    between atoms: C_14  and  N_15
REMARK    5  A    between atoms: N_15  and  C_16
REMARK    6  A    between atoms: C_16  and  C_17
REMARK                            x       y       z     vdW  Elec       q    Type
REMARK                         _______ _______ _______ _____ _____    ______ ____
ROOT
ATOM      1  N   UNL     1      -3.127  13.182  20.796  0.00  0.00    +0.000 N 
ATOM      2  C   UNL     1      -2.212  12.269  21.316  0.00  0.00    +0.000 A 
ATOM      3  C   UNL     1      -1.251  11.666  20.487  0.00  0.00    +0.000 A 
ATOM      4  C   UNL     1      -0.386  10.684  21.005  0.00  0.00    +0.000 A 
ATOM      5  C   UNL     1      -0.431  10.452  22.392  0.00  0.00    +0.000 A 
ATOM      6 CL   UNL     1       0.542   9.332  23.268  0.00  0.00    +0.000 Cl
ATOM      7  C   UNL     1      -1.354  11.168  23.140  0.00  0.00    +0.000 A 
ATOM      8  N   UNL     1      -2.228  12.046  22.639  0.00  0.00    +0.000 NA
ATOM      9  H   UNL     1      -2.663  14.085  20.913  0.00  0.00    +0.000 HD
ENDROOT
BRANCH   1  13
ATOM     10  C   UNL     1      -6.216  14.455  19.468  0.00  0.00    +0.000 C 
ATOM     11  C   UNL     1      -5.805  12.986  19.412  0.00  0.00    +0.000 C 
ATOM     12  C   UNL     1      -5.544  12.449  20.817  0.00  0.00    +0.000 C 
ATOM     13  C   UNL     1      -4.424  13.237  21.519  0.00  0.00    +0.000 C 
ATOM     14  C   UNL     1      -4.870  14.709  21.614  0.00  0.00    +0.000 C 
ATOM     15  C   UNL     1      -5.209  15.305  20.245  0.00  0.00    +0.000 C 
BRANCH  10  16
ATOM     16  O   UNL     1      -6.335  14.978  18.149  0.00  0.00    +0.000 OA
ATOM     17  H   UNL     1      -6.340  14.227  17.533  0.00  0.00    +0.000 HD
ENDBRANCH  10  16
ENDBRANCH   1  13
BRANCH   4  18
ATOM     18  C   UNL     1       0.488   9.924  20.089  0.00  0.00    +0.000 A 
ATOM     19  C   UNL     1       0.713  10.313  18.777  0.00  0.00    +0.000 A 
ATOM     20  C   UNL     1       1.530   9.568  17.967  0.00  0.00    +0.000 A 
ATOM     21  C   UNL     1       2.072   8.399  18.471  0.00  0.00    +0.000 A 
ATOM     22  C   UNL     1       1.853   8.050  19.802  0.00  0.00    +0.000 A 
ATOM     23  N   UNL     1       1.080   8.803  20.605  0.00  0.00    +0.000 NA
BRANCH  22  24
ATOM     24  N   UNL     1       2.359   6.886  20.356  0.00  0.00    +0.000 N 
ATOM     25  H   UNL     1       3.369   6.855  20.305  0.00  0.00    +0.000 HD
BRANCH  24  26
ATOM     26  C   UNL     1       1.567   5.679  20.466  0.00  0.00    +0.000 C 
BRANCH  26  27
ATOM     27  C   UNL     1       2.148   4.493  19.682  0.00  0.00    +0.000 C 
ATOM     28  C   UNL     1       2.083   4.694  18.162  0.00  0.00    +0.000 C 
ATOM     29  C   UNL     1       2.470   3.418  17.425  0.00  0.00    +0.000 C 
ATOM     30  O   UNL     1       1.638   2.332  17.827  0.00  0.00    +0.000 OA
ATOM     31  C   UNL     1       1.791   2.028  19.211  0.00  0.00    +0.000 C 
ATOM     32  C   UNL     1       1.374   3.216  20.066  0.00  0.00    +0.000 C 
ENDBRANCH  26  27
ENDBRANCH  24  26
ENDBRANCH  22  24
ENDBRANCH   4  18
TORSDOF 6
ENDMDL
MODEL 6
REMARK VINA RESULT:      -7.7      4.176      5.388
REMARK  Name = 
REMARK  6 active torsions:
REMARK  status: ('A' for Active; 'I' for Inactive)
REMARK    1  A    between atoms: O_1  and  C_2
REMARK    2  A    between atoms: C_5  and  N_6
REMARK    3  A    between atoms: C_9  and  C_10
REMARK    4  A    between atoms: C_14  and  N_15
REMARK    5  A    between atoms: N_15  and  C_16
REMARK    6  A    between atoms: C_16  and  C_17
REMARK                            x       y       z     vdW  Elec       q    Type
REMARK                         _______ _______ _______ _____ _____    ______ ____
ROOT
ATOM      1  N   UNL     1       2.967   5.919  20.122  0.00  0.00    +0.000 N 
ATOM      2  C   UNL     1       2.345   7.090  19.699  0.00  0.00    +0.000 A 
ATOM      3  C   UNL     1       1.802   7.991  20.632  0.00  0.00    +0.000 A 
ATOM      4  C   UNL     1       1.103   9.130  20.191  0.00  0.00    +0.000 A 
ATOM      5  C   UNL     1       1.102   9.392  18.809  0.00  0.00    +0.000 A 
ATOM      6 CL   UNL     1       0.350  10.729  18.027  0.00  0.00    +0.000 Cl
ATOM      7  C   UNL     1       1.748   8.487  17.977  0.00  0.00    +0.000 A 
ATOM      8  N   UNL     1       2.348   7.366  18.387  0.00  0.00    +0.000 NA
ATOM      9  H   UNL     1       3.948   6.188  20.223  0.00  0.00    +0.000 HD
ENDROOT
BRANCH   1  13
ATOM     10  C   UNL     1       1.812   2.591  20.843  0.00  0.00    +0.000 C 
ATOM     11  C   UNL     1       0.921   3.703  20.295  0.00  0.00    +0.000 C 
ATOM     12  C   UNL     1       1.477   4.233  18.975  0.00  0.00    +0.000 C 
ATOM     13  C   UNL     1       2.898   4.796  19.151  0.00  0.00    +0.000 C 
ATOM     14  C   UNL     1       3.800   3.654  19.658  0.00  0.00    +0.000 C 
ATOM     15  C   UNL     1       3.274   3.027  20.953  0.00  0.00    +0.000 C 
BRANCH  10  16
ATOM     16  O   UNL     1       1.355   2.191  22.131  0.00  0.00    +0.000 OA
ATOM     17  H   UNL     1       1.254   2.993  22.670  0.00  0.00    +0.000 HD
ENDBRANCH  10  16
ENDBRANCH   1  13
BRANCH   4  18
ATOM     18  C   UNL     1       0.377   9.965  21.169  0.00  0.00    +0.000 A 
ATOM     19  C   UNL     1      -0.253   9.433  22.284  0.00  0.00    +0.000 A 
ATOM     20  C   UNL     1      -0.917  10.253  23.158  0.00  0.00    +0.000 A 
ATOM     21  C   UNL     1      -0.989  11.605  22.872  0.00  0.00    +0.000 A 
ATOM     22  C   UNL     1      -0.320  12.116  21.760  0.00  0.00    +0.000 A 
ATOM     23  N   UNL     1       0.361  11.312  20.924  0.00  0.00    +0.000 NA
BRANCH  22  24
ATOM     24  N   UNL     1      -0.368  13.456  21.417  0.00  0.00    +0.000 N 
ATOM     25  H   UNL     1      -0.862  14.002  22.111  0.00  0.00    +0.000 HD
BRANCH  24  26
ATOM     26  C   UNL     1      -0.243  13.904  20.046  0.00  0.00    +0.000 C 
BRANCH  26  27
ATOM     27  C   UNL     1       1.053  14.680  19.772  0.00  0.00    +0.000 C 
ATOM     28  C   UNL     1       0.831  15.921  18.896  0.00  0.00    +0.000 C 
ATOM     29  C   UNL     1       2.159  16.536  18.475  0.00  0.00    +0.000 C 
ATOM     30  O   UNL     1       2.967  15.577  17.797  0.00  0.00    +0.000 OA
ATOM     31  C   UNL     1       3.313  14.480  18.640  0.00  0.00    +0.000 C 
ATOM     32  C   UNL     1       2.061  13.738  19.084  0.00  0.00    +0.000 C 
ENDBRANCH  26  27
ENDBRANCH  24  26
ENDBRANCH  22  24
ENDBRANCH   4  18
TORSDOF 6
ENDMDL
MODEL 7
REMARK VINA RESULT:      -7.7      3.061      4.159
REMARK  Name = 
REMARK  6 active torsions:
REMARK  status: ('A' for Active; 'I' for Inactive)
REMARK    1  A    between atoms: O_1  and  C_2
REMARK    2  A    between atoms: C_5  and  N_6
REMARK    3  A    between atoms: C_9  and  C_10
REMARK    4  A    between atoms: C_14  and  N_15
REMARK    5  A    between atoms: N_15  and  C_16
REMARK    6  A    between atoms: C_16  and  C_17
REMARK                            x       y       z     vdW  Elec       q    Type
REMARK                         _______ _______ _______ _____ _____    ______ ____
ROOT
ATOM      1  N   UNL     1       3.104   6.083  19.222  0.00  0.00    +0.000 N 
ATOM      2  C   UNL     1       2.476   7.320  19.096  0.00  0.00    +0.000 A 
ATOM      3  C   UNL     1       1.874   7.935  20.207  0.00  0.00    +0.000 A 
ATOM      4  C   UNL     1       1.171   9.144  20.052  0.00  0.00    +0.000 A 
ATOM      5  C   UNL     1       1.227   9.765  18.790  0.00  0.00    +0.000 A 
ATOM      6 CL   UNL     1       0.483  11.257  18.357  0.00  0.00    +0.000 Cl
ATOM      7  C   UNL     1       1.927   9.121  17.781  0.00  0.00    +0.000 A 
ATOM      8  N   UNL     1       2.532   7.936  17.906  0.00  0.00    +0.000 NA
ATOM      9  H   UNL     1       4.073   6.323  19.438  0.00  0.00    +0.000 HD
ENDROOT
BRANCH   1  13
ATOM     10  C   UNL     1       2.276   2.589  19.031  0.00  0.00    +0.000 C 
ATOM     11  C   UNL     1       1.271   3.717  18.812  0.00  0.00    +0.000 C 
ATOM     12  C   UNL     1       1.730   4.630  17.678  0.00  0.00    +0.000 C 
ATOM     13  C   UNL     1       3.100   5.259  17.985  0.00  0.00    +0.000 C 
ATOM     14  C   UNL     1       4.118   4.115  18.157  0.00  0.00    +0.000 C 
ATOM     15  C   UNL     1       3.697   3.117  19.240  0.00  0.00    +0.000 C 
BRANCH  10  16
ATOM     16  O   UNL     1       1.903   1.818  20.168  0.00  0.00    +0.000 OA
ATOM     17  H   UNL     1       1.762   0.903  19.871  0.00  0.00    +0.000 HD
ENDBRANCH  10  16
ENDBRANCH   1  13
BRANCH   4  18
ATOM     18  C   UNL     1       0.386   9.683  21.181  0.00  0.00    +0.000 A 
ATOM     19  C   UNL     1       0.108   8.940  22.319  0.00  0.00    +0.000 A 
ATOM     20  C   UNL     1      -0.630   9.487  23.335  0.00  0.00    +0.000 A 
ATOM     21  C   UNL     1      -1.132  10.766  23.174  0.00  0.00    +0.000 A 
ATOM     22  C   UNL     1      -0.810  11.500  22.034  0.00  0.00    +0.000 A 
ATOM     23  N   UNL     1      -0.055  10.972  21.053  0.00  0.00    +0.000 NA
BRANCH  22  24
ATOM     24  N   UNL     1      -1.295  12.778  21.812  0.00  0.00    +0.000 N 
ATOM     25  H   UNL     1      -0.896  13.190  20.978  0.00  0.00    +0.000 HD
BRANCH  24  26
ATOM     26  C   UNL     1      -1.829  13.594  22.882  0.00  0.00    +0.000 C 
BRANCH  26  27
ATOM     27  C   UNL     1      -3.362  13.679  22.879  0.00  0.00    +0.000 C 
ATOM     28  C   UNL     1      -4.001  12.975  24.085  0.00  0.00    +0.000 C 
ATOM     29  C   UNL     1      -5.515  12.899  23.933  0.00  0.00    +0.000 C 
ATOM     30  O   UNL     1      -5.867  12.240  22.719  0.00  0.00    +0.000 OA
ATOM     31  C   UNL     1      -5.412  12.955  21.573  0.00  0.00    +0.000 C 
ATOM     32  C   UNL     1      -3.893  13.049  21.575  0.00  0.00    +0.000 C 
ENDBRANCH  26  27
ENDBRANCH  24  26
ENDBRANCH  22  24
ENDBRANCH   4  18
TORSDOF 6
ENDMDL
MODEL 8
REMARK VINA RESULT:      -7.6      2.787      3.751
REMARK  Name = 
REMARK  6 active torsions:
REMARK  status: ('A' for Active; 'I' for Inactive)
REMARK    1  A    between atoms: O_1  and  C_2
REMARK    2  A    between atoms: C_5  and  N_6
REMARK    3  A    between atoms: C_9  and  C_10
REMARK    4  A    between atoms: C_14  and  N_15
REMARK    5  A    between atoms: N_15  and  C_16
REMARK    6  A    between atoms: C_16  and  C_17
REMARK                            x       y       z     vdW  Elec       q    Type
REMARK                         _______ _______ _______ _____ _____    ______ ____
ROOT
ATOM      1  N   UNL     1       2.937   6.170  19.202  0.00  0.00    +0.000 N 
ATOM      2  C   UNL     1       2.375   7.438  19.087  0.00  0.00    +0.000 A 
ATOM      3  C   UNL     1       1.760   8.053  20.191  0.00  0.00    +0.000 A 
ATOM      4  C   UNL     1       1.123   9.299  20.043  0.00  0.00    +0.000 A 
ATOM      5  C   UNL     1       1.257   9.949  18.803  0.00  0.00    +0.000 A 
ATOM      6 CL   UNL     1       0.603  11.486  18.383  0.00  0.00    +0.000 Cl
ATOM      7  C   UNL     1       1.965   9.297  17.802  0.00  0.00    +0.000 A 
ATOM      8  N   UNL     1       2.507   8.082  17.917  0.00  0.00    +0.000 NA
ATOM      9  H   UNL     1       3.908   6.356  19.461  0.00  0.00    +0.000 HD
ENDROOT
BRANCH   1  13
ATOM     10  C   UNL     1       4.342   2.884  18.795  0.00  0.00    +0.000 C 
ATOM     11  C   UNL     1       2.879   3.150  19.142  0.00  0.00    +0.000 C 
ATOM     12  C   UNL     1       2.225   4.024  18.074  0.00  0.00    +0.000 C 
ATOM     13  C   UNL     1       2.943   5.379  17.944  0.00  0.00    +0.000 C 
ATOM     14  C   UNL     1       4.406   5.103  17.546  0.00  0.00    +0.000 C 
ATOM     15  C   UNL     1       5.116   4.179  18.541  0.00  0.00    +0.000 C 
BRANCH  10  16
ATOM     16  O   UNL     1       4.973   2.174  19.856  0.00  0.00    +0.000 OA
ATOM     17  H   UNL     1       4.964   2.747  20.640  0.00  0.00    +0.000 HD
ENDBRANCH  10  16
ENDBRANCH   1  13
BRANCH   4  18
ATOM     18  C   UNL     1       0.321   9.846  21.156  0.00  0.00    +0.000 A 
ATOM     19  C   UNL     1       0.177   9.186  22.368  0.00  0.00    +0.000 A 
ATOM     20  C   UNL     1      -0.583   9.736  23.366  0.00  0.00    +0.000 A 
ATOM     21  C   UNL     1      -1.242  10.927  23.116  0.00  0.00    +0.000 A 
ATOM     22  C   UNL     1      -1.055  11.582  21.900  0.00  0.00    +0.000 A 
ATOM     23  N   UNL     1      -0.279  11.057  20.935  0.00  0.00    +0.000 NA
BRANCH  22  24
ATOM     24  N   UNL     1      -1.699  12.768  21.589  0.00  0.00    +0.000 N 
ATOM     25  H   UNL     1      -1.202  13.288  20.878  0.00  0.00    +0.000 HD
BRANCH  24  26
ATOM     26  C   UNL     1      -2.601  13.418  22.516  0.00  0.00    +0.000 C 
BRANCH  26  27
ATOM     27  C   UNL     1      -3.989  12.764  22.579  0.00  0.00    +0.000 C 
ATOM     28  C   UNL     1      -4.844  13.058  21.339  0.00  0.00    +0.000 C 
ATOM     29  C   UNL     1      -6.275  12.574  21.535  0.00  0.00    +0.000 C 
ATOM     30  O   UNL     1      -6.852  13.164  22.698  0.00  0.00    +0.000 OA
ATOM     31  C   UNL     1      -6.161  12.785  23.886  0.00  0.00    +0.000 C 
ATOM     32  C   UNL     1      -4.720  13.269  23.840  0.00  0.00    +0.000 C 
ENDBRANCH  26  27
ENDBRANCH  24  26
ENDBRANCH  22  24
ENDBRANCH   4  18
TORSDOF 6
ENDMDL
MODEL 9
REMARK VINA RESULT:      -7.6      2.891      3.832
REMARK  Name = 
REMARK  6 active torsions:
REMARK  status: ('A' for Active; 'I' for Inactive)
REMARK    1  A    between atoms: O_1  and  C_2
REMARK    2  A    between atoms: C_5  and  N_6
REMARK    3  A    between atoms: C_9  and  C_10
REMARK    4  A    between atoms: C_14  and  N_15
REMARK    5  A    between atoms: N_15  and  C_16
REMARK    6  A    between atoms: C_16  and  C_17
REMARK                            x       y       z     vdW  Elec       q    Type
REMARK                         _______ _______ _______ _____ _____    ______ ____
ROOT
ATOM      1  N   UNL     1       2.850   5.884  20.270  0.00  0.00    +0.000 N 
ATOM      2  C   UNL     1       2.287   7.070  19.807  0.00  0.00    +0.000 A 
ATOM      3  C   UNL     1       1.658   7.959  20.695  0.00  0.00    +0.000 A 
ATOM      4  C   UNL     1       1.020   9.114  20.205  0.00  0.00    +0.000 A 
ATOM      5  C   UNL     1       1.169   9.403  18.836  0.00  0.00    +0.000 A 
ATOM      6 CL   UNL     1       0.517  10.763  18.006  0.00  0.00    +0.000 Cl
ATOM      7  C   UNL     1       1.891   8.507  18.060  0.00  0.00    +0.000 A 
ATOM      8  N   UNL     1       2.433   7.371  18.508  0.00  0.00    +0.000 NA
ATOM      9  H   UNL     1       3.818   6.139  20.480  0.00  0.00    +0.000 HD
ENDROOT
BRANCH   1  13
ATOM     10  C   UNL     1       1.806   2.495  20.869  0.00  0.00    +0.000 C 
ATOM     11  C   UNL     1       0.895   3.581  20.303  0.00  0.00    +0.000 C 
ATOM     12  C   UNL     1       1.487   4.162  19.021  0.00  0.00    +0.000 C 
ATOM     13  C   UNL     1       2.874   4.780  19.275  0.00  0.00    +0.000 C 
ATOM     14  C   UNL     1       3.799   3.666  19.801  0.00  0.00    +0.000 C 
ATOM     15  C   UNL     1       3.242   2.990  21.057  0.00  0.00    +0.000 C 
BRANCH  10  16
ATOM     16  O   UNL     1       1.308   2.049  22.126  0.00  0.00    +0.000 OA
ATOM     17  H   UNL     1       1.597   1.129  22.248  0.00  0.00    +0.000 HD
ENDBRANCH  10  16
ENDBRANCH   1  13
BRANCH   4  18
ATOM     18  C   UNL     1       0.203   9.940  21.118  0.00  0.00    +0.000 A 
ATOM     19  C   UNL     1      -0.089   9.551  22.417  0.00  0.00    +0.000 A 
ATOM     20  C   UNL     1      -0.857  10.353  23.220  0.00  0.00    +0.000 A 
ATOM     21  C   UNL     1      -1.374  11.521  22.688  0.00  0.00    +0.000 A 
ATOM     22  C   UNL     1      -1.039  11.900  21.390  0.00  0.00    +0.000 A 
ATOM     23  N   UNL     1      -0.256  11.128  20.615  0.00  0.00    +0.000 NA
BRANCH  22  24
ATOM     24  N   UNL     1      -1.539  13.050  20.801  0.00  0.00    +0.000 N 
ATOM     25  H   UNL     1      -0.926  13.841  20.948  0.00  0.00    +0.000 HD
BRANCH  24  26
ATOM     26  C   UNL     1      -2.948  13.221  20.522  0.00  0.00    +0.000 C 
BRANCH  26  27
ATOM     27  C   UNL     1      -3.534  12.117  19.630  0.00  0.00    +0.000 C 
ATOM     28  C   UNL     1      -2.813  11.997  18.280  0.00  0.00    +0.000 C 
ATOM     29  C   UNL     1      -3.553  11.044  17.349  0.00  0.00    +0.000 C 
ATOM     30  O   UNL     1      -4.903  11.466  17.166  0.00  0.00    +0.000 OA
ATOM     31  C   UNL     1      -5.638  11.443  18.386  0.00  0.00    +0.000 C 
ATOM     32  C   UNL     1      -5.029  12.410  19.391  0.00  0.00    +0.000 C 
ENDBRANCH  26  27
ENDBRANCH  24  26
ENDBRANCH  22  24
ENDBRANCH   4  18
TORSDOF 6
ENDMDL
