MODEL 1
REMARK VINA RESULT:      -9.3      0.000      0.000
REMARK  Name = 
REMARK  4 active torsions:
REMARK  status: ('A' for Active; 'I' for Inactive)
REMARK    1  A    between atoms: C_1  and  O_2
REMARK    2  A    between atoms: O_2  and  C_3
REMARK    3  A    between atoms: C_10  and  C_11
REMARK    4  A    between atoms: C_11  and  O_12
REMARK                            x       y       z     vdW  Elec       q    Type
REMARK                         _______ _______ _______ _____ _____    ______ ____
ROOT
ATOM      1  C   UNL     1       8.611   9.750  18.390  0.00  0.00    +0.000 C 
ATOM      2  O   UNL     1       7.695  10.189  17.707  0.00  0.00    +0.000 OA
ATOM      3  N   UNL     1       8.915   8.436  18.596  0.00  0.00    +0.000 N 
ATOM      4  C   UNL     1       7.994   7.473  18.298  0.00  0.00    +0.000 A 
ATOM      5  N   UNL     1       7.732   6.451  19.074  0.00  0.00    +0.000 NA
ATOM      6  C   UNL     1       6.667   5.823  18.482  0.00  0.00    +0.000 A 
ATOM      7  C   UNL     1       5.916   4.734  18.935  0.00  0.00    +0.000 A 
ATOM      8  C   UNL     1       4.917   4.186  18.102  0.00  0.00    +0.000 A 
ATOM      9  C   UNL     1       4.683   4.769  16.838  0.00  0.00    +0.000 A 
ATOM     10  C   UNL     1       5.394   5.889  16.389  0.00  0.00    +0.000 A 
ATOM     11  C   UNL     1       6.367   6.393  17.250  0.00  0.00    +0.000 A 
ATOM     12  N   UNL     1       7.218   7.464  17.167  0.00  0.00    +0.000 N 
ATOM     13  H   UNL     1       9.505   8.252  19.394  0.00  0.00    +0.000 HD
ATOM     14  H   UNL     1       7.266   8.145  16.423  0.00  0.00    +0.000 HD
ENDROOT
BRANCH   8  15
ATOM     15  C   UNL     1       4.288   2.853  18.481  0.00  0.00    +0.000 C 
ATOM     16  N   UNL     1       5.096   2.055  19.357  0.00  0.00    +0.000 N 
ATOM     17  C   UNL     1       4.535   1.914  20.610  0.00  0.00    +0.000 C 
ATOM     18  O   UNL     1       5.045   1.378  21.574  0.00  0.00    +0.000 OA
ATOM     19  C   UNL     1       3.227   2.577  20.577  0.00  0.00    +0.000 A 
ATOM     20  C   UNL     1       2.329   2.816  21.598  0.00  0.00    +0.000 A 
ATOM     21  C   UNL     1       1.212   3.602  21.300  0.00  0.00    +0.000 A 
ATOM     22  C   UNL     1       1.007   4.101  19.999  0.00  0.00    +0.000 A 
ATOM     23  C   UNL     1       1.922   3.835  18.973  0.00  0.00    +0.000 A 
ATOM     24  C   UNL     1       3.048   3.091  19.295  0.00  0.00    +0.000 A 
ATOM     25  H   UNL     1       6.045   1.770  19.179  0.00  0.00    +0.000 HD
BRANCH  15  26
ATOM     26  O   UNL     1       4.011   2.056  17.354  0.00  0.00    +0.000 OA
ATOM     27  H   UNL     1       4.834   2.058  16.841  0.00  0.00    +0.000 HD
ENDBRANCH  15  26
ENDBRANCH   8  15
BRANCH   1  29
ATOM     28  C   UNL     1      10.147  11.523  18.451  0.00  0.00    +0.000 C 
ATOM     29  O   UNL     1       9.441  10.503  19.157  0.00  0.00    +0.000 OA
ENDBRANCH   1  29
TORSDOF 3
ENDMDL
MODEL 2
REMARK VINA RESULT:      -8.4      4.926      7.028
REMARK  Name = 
REMARK  4 active torsions:
REMARK  status: ('A' for Active; 'I' for Inactive)
REMARK    1  A    between atoms: C_1  and  O_2
REMARK    2  A    between atoms: O_2  and  C_3
REMARK    3  A    between atoms: C_10  and  C_11
REMARK    4  A    between atoms: C_11  and  O_12
REMARK                            x       y       z     vdW  Elec       q    Type
REMARK                         _______ _______ _______ _____ _____    ______ ____
ROOT
ATOM      1  C   UNL     1      -0.065  10.438  22.548  0.00  0.00    +0.000 C 
ATOM      2  O   UNL     1       0.204   9.690  23.479  0.00  0.00    +0.000 OA
ATOM      3  N   UNL     1      -0.036  10.128  21.220  0.00  0.00    +0.000 N 
ATOM      4  C   UNL     1       0.624   9.009  20.800  0.00  0.00    +0.000 A 
ATOM      5  N   UNL     1       1.410   8.977  19.753  0.00  0.00    +0.000 NA
ATOM      6  C   UNL     1       1.972   7.727  19.771  0.00  0.00    +0.000 A 
ATOM      7  C   UNL     1       2.961   7.186  18.944  0.00  0.00    +0.000 A 
ATOM      8  C   UNL     1       3.316   5.828  19.085  0.00  0.00    +0.000 A 
ATOM      9  C   UNL     1       2.681   5.052  20.078  0.00  0.00    +0.000 A 
ATOM     10  C   UNL     1       1.723   5.591  20.947  0.00  0.00    +0.000 A 
ATOM     11  C   UNL     1       1.409   6.937  20.767  0.00  0.00    +0.000 A 
ATOM     12  N   UNL     1       0.565   7.791  21.427  0.00  0.00    +0.000 N 
ATOM     13  H   UNL     1      -0.006  10.920  20.595  0.00  0.00    +0.000 HD
ATOM     14  H   UNL     1       0.005   7.582  22.242  0.00  0.00    +0.000 HD
ENDROOT
BRANCH   8  15
ATOM     15  C   UNL     1       4.192   5.179  18.022  0.00  0.00    +0.000 C 
ATOM     16  N   UNL     1       3.993   5.704  16.703  0.00  0.00    +0.000 N 
ATOM     17  C   UNL     1       5.096   6.390  16.236  0.00  0.00    +0.000 C 
ATOM     18  O   UNL     1       5.171   7.020  15.199  0.00  0.00    +0.000 OA
ATOM     19  C   UNL     1       6.148   6.260  17.250  0.00  0.00    +0.000 A 
ATOM     20  C   UNL     1       7.393   6.855  17.317  0.00  0.00    +0.000 A 
ATOM     21  C   UNL     1       8.138   6.656  18.482  0.00  0.00    +0.000 A 
ATOM     22  C   UNL     1       7.641   5.856  19.529  0.00  0.00    +0.000 A 
ATOM     23  C   UNL     1       6.382   5.250  19.437  0.00  0.00    +0.000 A 
ATOM     24  C   UNL     1       5.635   5.493  18.293  0.00  0.00    +0.000 A 
ATOM     25  H   UNL     1       3.112   5.749  16.217  0.00  0.00    +0.000 HD
BRANCH  15  26
ATOM     26  O   UNL     1       3.981   3.789  17.936  0.00  0.00    +0.000 OA
ATOM     27  H   UNL     1       3.193   3.692  17.379  0.00  0.00    +0.000 HD
ENDBRANCH  15  26
ENDBRANCH   8  15
BRANCH   1  29
ATOM     28  C   UNL     1      -1.660  12.049  23.153  0.00  0.00    +0.000 C 
ATOM     29  O   UNL     1      -0.349  11.760  22.669  0.00  0.00    +0.000 OA
ENDBRANCH   1  29
TORSDOF 3
ENDMDL
MODEL 3
REMARK VINA RESULT:      -8.1      4.418      6.556
REMARK  Name = 
REMARK  4 active torsions:
REMARK  status: ('A' for Active; 'I' for Inactive)
REMARK    1  A    between atoms: C_1  and  O_2
REMARK    2  A    between atoms: O_2  and  C_3
REMARK    3  A    between atoms: C_10  and  C_11
REMARK    4  A    between atoms: C_11  and  O_12
REMARK                            x       y       z     vdW  Elec       q    Type
REMARK                         _______ _______ _______ _____ _____    ______ ____
ROOT
ATOM      1  C   UNL     1       0.257   9.858  22.037  0.00  0.00    +0.000 C 
ATOM      2  O   UNL     1       0.242   9.137  23.027  0.00  0.00    +0.000 OA
ATOM      3  N   UNL     1       0.525   9.474  20.755  0.00  0.00    +0.000 N 
ATOM      4  C   UNL     1       1.127   8.273  20.519  0.00  0.00    +0.000 A 
ATOM      5  N   UNL     1       2.104   8.104  19.663  0.00  0.00    +0.000 NA
ATOM      6  C   UNL     1       2.507   6.805  19.838  0.00  0.00    +0.000 A 
ATOM      7  C   UNL     1       3.579   6.122  19.256  0.00  0.00    +0.000 A 
ATOM      8  C   UNL     1       3.743   4.744  19.511  0.00  0.00    +0.000 A 
ATOM      9  C   UNL     1       2.834   4.093  20.371  0.00  0.00    +0.000 A 
ATOM     10  C   UNL     1       1.784   4.773  21.001  0.00  0.00    +0.000 A 
ATOM     11  C   UNL     1       1.666   6.133  20.718  0.00  0.00    +0.000 A 
ATOM     12  N   UNL     1       0.804   7.103  21.157  0.00  0.00    +0.000 N 
ATOM     13  H   UNL     1       0.771  10.225  20.126  0.00  0.00    +0.000 HD
ATOM     14  H   UNL     1       0.069   6.997  21.842  0.00  0.00    +0.000 HD
ENDROOT
BRANCH   8  15
ATOM     15  C   UNL     1       4.741   3.952  18.677  0.00  0.00    +0.000 C 
ATOM     16  N   UNL     1       4.268   3.617  17.366  0.00  0.00    +0.000 N 
ATOM     17  C   UNL     1       4.970   4.266  16.370  0.00  0.00    +0.000 C 
ATOM     18  O   UNL     1       4.722   4.248  15.180  0.00  0.00    +0.000 OA
ATOM     19  C   UNL     1       6.043   5.026  17.020  0.00  0.00    +0.000 A 
ATOM     20  C   UNL     1       6.943   5.925  16.484  0.00  0.00    +0.000 A 
ATOM     21  C   UNL     1       7.774   6.612  17.373  0.00  0.00    +0.000 A 
ATOM     22  C   UNL     1       7.705   6.367  18.759  0.00  0.00    +0.000 A 
ATOM     23  C   UNL     1       6.796   5.440  19.283  0.00  0.00    +0.000 A 
ATOM     24  C   UNL     1       5.948   4.800  18.392  0.00  0.00    +0.000 A 
ATOM     25  H   UNL     1       3.417   3.121  17.159  0.00  0.00    +0.000 HD
BRANCH  15  26
ATOM     26  O   UNL     1       5.105   2.740  19.294  0.00  0.00    +0.000 OA
ATOM     27  H   UNL     1       5.342   2.151  18.560  0.00  0.00    +0.000 HD
ENDBRANCH  15  26
ENDBRANCH   8  15
BRANCH   1  29
ATOM     28  C   UNL     1      -1.056  11.669  22.746  0.00  0.00    +0.000 C 
ATOM     29  O   UNL     1       0.104  11.206  22.054  0.00  0.00    +0.000 OA
ENDBRANCH   1  29
TORSDOF 3
ENDMDL
MODEL 4
REMARK VINA RESULT:      -8.1      5.542      7.010
REMARK  Name = 
REMARK  4 active torsions:
REMARK  status: ('A' for Active; 'I' for Inactive)
REMARK    1  A    between atoms: C_1  and  O_2
REMARK    2  A    between atoms: O_2  and  C_3
REMARK    3  A    between atoms: C_10  and  C_11
REMARK    4  A    between atoms: C_11  and  O_12
REMARK                            x       y       z     vdW  Elec       q    Type
REMARK                         _______ _______ _______ _____ _____    ______ ____
ROOT
ATOM      1  C   UNL     1      -1.225  12.138  20.918  0.00  0.00    +0.000 C 
ATOM      2  O   UNL     1      -1.612  12.074  19.759  0.00  0.00    +0.000 OA
ATOM      3  N   UNL     1      -0.099  11.564  21.433  0.00  0.00    +0.000 N 
ATOM      4  C   UNL     1       0.536  10.577  20.737  0.00  0.00    +0.000 A 
ATOM      5  N   UNL     1       0.989   9.476  21.285  0.00  0.00    +0.000 NA
ATOM      6  C   UNL     1       1.417   8.709  20.232  0.00  0.00    +0.000 A 
ATOM      7  C   UNL     1       1.900   7.397  20.229  0.00  0.00    +0.000 A 
ATOM      8  C   UNL     1       2.383   6.838  19.027  0.00  0.00    +0.000 A 
ATOM      9  C   UNL     1       2.342   7.612  17.847  0.00  0.00    +0.000 A 
ATOM     10  C   UNL     1       1.818   8.910  17.823  0.00  0.00    +0.000 A 
ATOM     11  C   UNL     1       1.352   9.414  19.036  0.00  0.00    +0.000 A 
ATOM     12  N   UNL     1       0.762  10.601  19.385  0.00  0.00    +0.000 N 
ATOM     13  H   UNL     1      -0.084  11.478  22.439  0.00  0.00    +0.000 HD
ATOM     14  H   UNL     1       0.513  11.360  18.767  0.00  0.00    +0.000 HD
ENDROOT
BRANCH   8  15
ATOM     15  C   UNL     1       3.144   5.521  19.076  0.00  0.00    +0.000 C 
ATOM     16  N   UNL     1       2.364   4.382  18.691  0.00  0.00    +0.000 N 
ATOM     17  C   UNL     1       2.799   3.818  17.510  0.00  0.00    +0.000 C 
ATOM     18  O   UNL     1       2.266   2.911  16.901  0.00  0.00    +0.000 OA
ATOM     19  C   UNL     1       4.000   4.551  17.096  0.00  0.00    +0.000 A 
ATOM     20  C   UNL     1       4.741   4.456  15.935  0.00  0.00    +0.000 A 
ATOM     21  C   UNL     1       5.766   5.387  15.748  0.00  0.00    +0.000 A 
ATOM     22  C   UNL     1       6.040   6.364  16.724  0.00  0.00    +0.000 A 
ATOM     23  C   UNL     1       5.287   6.437  17.903  0.00  0.00    +0.000 A 
ATOM     24  C   UNL     1       4.245   5.533  18.054  0.00  0.00    +0.000 A 
ATOM     25  H   UNL     1       1.487   4.107  19.104  0.00  0.00    +0.000 HD
BRANCH  15  26
ATOM     26  O   UNL     1       3.648   5.246  20.362  0.00  0.00    +0.000 OA
ATOM     27  H   UNL     1       4.053   6.078  20.652  0.00  0.00    +0.000 HD
ENDBRANCH  15  26
ENDBRANCH   8  15
BRANCH   1  29
ATOM     28  C   UNL     1      -2.146  11.869  23.060  0.00  0.00    +0.000 C 
ATOM     29  O   UNL     1      -1.909  12.719  21.937  0.00  0.00    +0.000 OA
ENDBRANCH   1  29
TORSDOF 3
ENDMDL
MODEL 5
REMARK VINA RESULT:      -8.0      5.417      6.383
REMARK  Name = 
REMARK  4 active torsions:
REMARK  status: ('A' for Active; 'I' for Inactive)
REMARK    1  A    between atoms: C_1  and  O_2
REMARK    2  A    between atoms: O_2  and  C_3
REMARK    3  A    between atoms: C_10  and  C_11
REMARK    4  A    between atoms: C_11  and  O_12
REMARK                            x       y       z     vdW  Elec       q    Type
REMARK                         _______ _______ _______ _____ _____    ______ ____
ROOT
ATOM      1  C   UNL     1      -1.026  10.918  22.130  0.00  0.00    +0.000 C 
ATOM      2  O   UNL     1      -1.483  11.237  21.040  0.00  0.00    +0.000 OA
ATOM      3  N   UNL     1       0.166  10.296  22.363  0.00  0.00    +0.000 N 
ATOM      4  C   UNL     1       0.818   9.677  21.336  0.00  0.00    +0.000 A 
ATOM      5  N   UNL     1       1.378   8.497  21.435  0.00  0.00    +0.000 NA
ATOM      6  C   UNL     1       1.786   8.193  20.162  0.00  0.00    +0.000 A 
ATOM      7  C   UNL     1       2.353   7.013  19.670  0.00  0.00    +0.000 A 
ATOM      8  C   UNL     1       2.793   6.960  18.331  0.00  0.00    +0.000 A 
ATOM      9  C   UNL     1       2.624   8.096  17.509  0.00  0.00    +0.000 A 
ATOM     10  C   UNL     1       2.015   9.269  17.972  0.00  0.00    +0.000 A 
ATOM     11  C   UNL     1       1.597   9.268  19.302  0.00  0.00    +0.000 A 
ATOM     12  N   UNL     1       0.954  10.199  20.075  0.00  0.00    +0.000 N 
ATOM     13  H   UNL     1       0.253   9.860  23.270  0.00  0.00    +0.000 HD
ATOM     14  H   UNL     1       0.616  11.104  19.780  0.00  0.00    +0.000 HD
ENDROOT
BRANCH   8  15
ATOM     15  C   UNL     1       3.641   5.781  17.876  0.00  0.00    +0.000 C 
ATOM     16  N   UNL     1       4.876   5.641  18.591  0.00  0.00    +0.000 N 
ATOM     17  C   UNL     1       4.909   4.504  19.371  0.00  0.00    +0.000 C 
ATOM     18  O   UNL     1       5.784   4.188  20.154  0.00  0.00    +0.000 OA
ATOM     19  C   UNL     1       3.665   3.768  19.118  0.00  0.00    +0.000 A 
ATOM     20  C   UNL     1       3.165   2.636  19.731  0.00  0.00    +0.000 A 
ATOM     21  C   UNL     1       1.874   2.232  19.378  0.00  0.00    +0.000 A 
ATOM     22  C   UNL     1       1.133   2.943  18.414  0.00  0.00    +0.000 A 
ATOM     23  C   UNL     1       1.664   4.081  17.793  0.00  0.00    +0.000 A 
ATOM     24  C   UNL     1       2.928   4.496  18.186  0.00  0.00    +0.000 A 
ATOM     25  H   UNL     1       5.582   6.353  18.685  0.00  0.00    +0.000 HD
BRANCH  15  26
ATOM     26  O   UNL     1       3.975   5.860  16.510  0.00  0.00    +0.000 OA
ATOM     27  H   UNL     1       4.122   6.805  16.347  0.00  0.00    +0.000 HD
ENDBRANCH  15  26
ENDBRANCH   8  15
BRANCH   1  29
ATOM     28  C   UNL     1      -2.685  12.052  23.342  0.00  0.00    +0.000 C 
ATOM     29  O   UNL     1      -1.679  11.039  23.314  0.00  0.00    +0.000 OA
ENDBRANCH   1  29
TORSDOF 3
ENDMDL
MODEL 6
REMARK VINA RESULT:      -8.0      5.613      6.507
REMARK  Name = 
REMARK  4 active torsions:
REMARK  status: ('A' for Active; 'I' for Inactive)
REMARK    1  A    between atoms: C_1  and  O_2
REMARK    2  A    between atoms: O_2  and  C_3
REMARK    3  A    between atoms: C_10  and  C_11
REMARK    4  A    between atoms: C_11  and  O_12
REMARK                            x       y       z     vdW  Elec       q    Type
REMARK                         _______ _______ _______ _____ _____    ______ ____
ROOT
ATOM      1  C   UNL     1      -1.640  11.912  19.042  0.00  0.00    +0.000 C 
ATOM      2  O   UNL     1      -1.664  11.605  17.857  0.00  0.00    +0.000 OA
ATOM      3  N   UNL     1      -0.696  11.548  19.958  0.00  0.00    +0.000 N 
ATOM      4  C   UNL     1       0.155  10.517  19.681  0.00  0.00    +0.000 A 
ATOM      5  N   UNL     1       0.467   9.580  20.541  0.00  0.00    +0.000 NA
ATOM      6  C   UNL     1       1.218   8.682  19.826  0.00  0.00    +0.000 A 
ATOM      7  C   UNL     1       1.731   7.442  20.220  0.00  0.00    +0.000 A 
ATOM      8  C   UNL     1       2.570   6.728  19.340  0.00  0.00    +0.000 A 
ATOM      9  C   UNL     1       2.851   7.271  18.068  0.00  0.00    +0.000 A 
ATOM     10  C   UNL     1       2.307   8.489  17.640  0.00  0.00    +0.000 A 
ATOM     11  C   UNL     1       1.483   9.154  18.546  0.00  0.00    +0.000 A 
ATOM     12  N   UNL     1       0.770  10.322  18.471  0.00  0.00    +0.000 N 
ATOM     13  H   UNL     1      -0.977  11.644  20.923  0.00  0.00    +0.000 HD
ATOM     14  H   UNL     1       0.687  10.932  17.670  0.00  0.00    +0.000 HD
ENDROOT
BRANCH   8  15
ATOM     15  C   UNL     1       3.333   5.519  19.864  0.00  0.00    +0.000 C 
ATOM     16  N   UNL     1       2.909   5.080  21.161  0.00  0.00    +0.000 N 
ATOM     17  C   UNL     1       2.301   3.842  21.128  0.00  0.00    +0.000 C 
ATOM     18  O   UNL     1       1.761   3.275  22.057  0.00  0.00    +0.000 OA
ATOM     19  C   UNL     1       2.384   3.355  19.746  0.00  0.00    +0.000 A 
ATOM     20  C   UNL     1       1.829   2.231  19.168  0.00  0.00    +0.000 A 
ATOM     21  C   UNL     1       1.958   2.091  17.783  0.00  0.00    +0.000 A 
ATOM     22  C   UNL     1       2.652   3.051  17.022  0.00  0.00    +0.000 A 
ATOM     23  C   UNL     1       3.222   4.178  17.629  0.00  0.00    +0.000 A 
ATOM     24  C   UNL     1       3.047   4.326  18.997  0.00  0.00    +0.000 A 
ATOM     25  H   UNL     1       2.874   5.651  21.990  0.00  0.00    +0.000 HD
BRANCH  15  26
ATOM     26  O   UNL     1       4.717   5.761  19.954  0.00  0.00    +0.000 OA
ATOM     27  H   UNL     1       4.787   6.656  20.324  0.00  0.00    +0.000 HD
ENDBRANCH  15  26
ENDBRANCH   8  15
BRANCH   1  29
ATOM     28  C   UNL     1      -2.180  13.322  20.838  0.00  0.00    +0.000 C 
ATOM     29  O   UNL     1      -2.618  12.596  19.689  0.00  0.00    +0.000 OA
ENDBRANCH   1  29
TORSDOF 3
ENDMDL
MODEL 7
REMARK VINA RESULT:      -8.0      4.907      5.490
REMARK  Name = 
REMARK  4 active torsions:
REMARK  status: ('A' for Active; 'I' for Inactive)
REMARK    1  A    between atoms: C_1  and  O_2
REMARK    2  A    between atoms: O_2  and  C_3
REMARK    3  A    between atoms: C_10  and  C_11
REMARK    4  A    between atoms: C_11  and  O_12
REMARK                            x       y       z     vdW  Elec       q    Type
REMARK                         _______ _______ _______ _____ _____    ______ ____
ROOT
ATOM      1  C   UNL     1       1.045  12.879  19.208  0.00  0.00    +0.000 C 
ATOM      2  O   UNL     1       1.300  12.683  20.389  0.00  0.00    +0.000 OA
ATOM      3  N   UNL     1       0.846  11.927  18.250  0.00  0.00    +0.000 N 
ATOM      4  C   UNL     1       1.242  10.642  18.479  0.00  0.00    +0.000 A 
ATOM      5  N   UNL     1       1.867   9.904  17.596  0.00  0.00    +0.000 NA
ATOM      6  C   UNL     1       2.202   8.757  18.268  0.00  0.00    +0.000 A 
ATOM      7  C   UNL     1       2.966   7.667  17.839  0.00  0.00    +0.000 A 
ATOM      8  C   UNL     1       3.097   6.539  18.676  0.00  0.00    +0.000 A 
ATOM      9  C   UNL     1       2.472   6.548  19.941  0.00  0.00    +0.000 A 
ATOM     10  C   UNL     1       1.744   7.650  20.406  0.00  0.00    +0.000 A 
ATOM     11  C   UNL     1       1.646   8.740  19.542  0.00  0.00    +0.000 A 
ATOM     12  N   UNL     1       1.055   9.970  19.660  0.00  0.00    +0.000 N 
ATOM     13  H   UNL     1       0.930  12.254  17.298  0.00  0.00    +0.000 HD
ATOM     14  H   UNL     1       0.580  10.340  20.471  0.00  0.00    +0.000 HD
ENDROOT
BRANCH   8  15
ATOM     15  C   UNL     1       3.700   5.262  18.107  0.00  0.00    +0.000 C 
ATOM     16  N   UNL     1       4.803   4.750  18.867  0.00  0.00    +0.000 N 
ATOM     17  C   UNL     1       4.511   3.546  19.475  0.00  0.00    +0.000 C 
ATOM     18  O   UNL     1       5.219   2.939  20.254  0.00  0.00    +0.000 OA
ATOM     19  C   UNL     1       3.164   3.158  19.044  0.00  0.00    +0.000 A 
ATOM     20  C   UNL     1       2.371   2.105  19.455  0.00  0.00    +0.000 A 
ATOM     21  C   UNL     1       1.061   2.059  18.970  0.00  0.00    +0.000 A 
ATOM     22  C   UNL     1       0.588   3.040  18.077  0.00  0.00    +0.000 A 
ATOM     23  C   UNL     1       1.412   4.093  17.660  0.00  0.00    +0.000 A 
ATOM     24  C   UNL     1       2.695   4.149  18.184  0.00  0.00    +0.000 A 
ATOM     25  H   UNL     1       5.637   5.261  19.105  0.00  0.00    +0.000 HD
BRANCH  15  26
ATOM     26  O   UNL     1       4.167   5.435  16.790  0.00  0.00    +0.000 OA
ATOM     27  H   UNL     1       5.133   5.378  16.860  0.00  0.00    +0.000 HD
ENDBRANCH  15  26
ENDBRANCH   8  15
BRANCH   1  29
ATOM     28  C   UNL     1      -0.080  14.928  19.004  0.00  0.00    +0.000 C 
ATOM     29  O   UNL     1       1.012  14.097  18.609  0.00  0.00    +0.000 OA
ENDBRANCH   1  29
TORSDOF 3
ENDMDL
MODEL 8
REMARK VINA RESULT:      -8.0      4.490      5.808
REMARK  Name = 
REMARK  4 active torsions:
REMARK  status: ('A' for Active; 'I' for Inactive)
REMARK    1  A    between atoms: C_1  and  O_2
REMARK    2  A    between atoms: O_2  and  C_3
REMARK    3  A    between atoms: C_10  and  C_11
REMARK    4  A    between atoms: C_11  and  O_12
REMARK                            x       y       z     vdW  Elec       q    Type
REMARK                         _______ _______ _______ _____ _____    ______ ____
ROOT
ATOM      1  C   UNL     1       1.636  12.733  18.810  0.00  0.00    +0.000 C 
ATOM      2  O   UNL     1       1.713  12.750  20.032  0.00  0.00    +0.000 OA
ATOM      3  N   UNL     1       1.356  11.651  18.027  0.00  0.00    +0.000 N 
ATOM      4  C   UNL     1       1.454  10.394  18.548  0.00  0.00    +0.000 A 
ATOM      5  N   UNL     1       2.011   9.387  17.922  0.00  0.00    +0.000 NA
ATOM      6  C   UNL     1       2.027   8.367  18.838  0.00  0.00    +0.000 A 
ATOM      7  C   UNL     1       2.597   7.094  18.739  0.00  0.00    +0.000 A 
ATOM      8  C   UNL     1       2.401   6.163  19.781  0.00  0.00    +0.000 A 
ATOM      9  C   UNL     1       1.654   6.551  20.914  0.00  0.00    +0.000 A 
ATOM     10  C   UNL     1       1.118   7.837  21.051  0.00  0.00    +0.000 A 
ATOM     11  C   UNL     1       1.342   8.719  19.995  0.00  0.00    +0.000 A 
ATOM     12  N   UNL     1       1.004  10.031  19.792  0.00  0.00    +0.000 N 
ATOM     13  H   UNL     1       1.611  11.749  17.054  0.00  0.00    +0.000 HD
ATOM     14  H   UNL     1       0.527  10.642  20.439  0.00  0.00    +0.000 HD
ENDROOT
BRANCH   8  15
ATOM     15  C   UNL     1       2.791   4.709  19.557  0.00  0.00    +0.000 C 
ATOM     16  N   UNL     1       1.956   4.020  18.618  0.00  0.00    +0.000 N 
ATOM     17  C   UNL     1       2.628   3.680  17.462  0.00  0.00    +0.000 C 
ATOM     18  O   UNL     1       2.146   3.183  16.463  0.00  0.00    +0.000 OA
ATOM     19  C   UNL     1       4.029   4.078  17.642  0.00  0.00    +0.000 A 
ATOM     20  C   UNL     1       5.077   4.063  16.744  0.00  0.00    +0.000 A 
ATOM     21  C   UNL     1       6.283   4.638  17.154  0.00  0.00    +0.000 A 
ATOM     22  C   UNL     1       6.420   5.183  18.445  0.00  0.00    +0.000 A 
ATOM     23  C   UNL     1       5.349   5.176  19.348  0.00  0.00    +0.000 A 
ATOM     24  C   UNL     1       4.146   4.643  18.911  0.00  0.00    +0.000 A 
ATOM     25  H   UNL     1       0.954   3.937  18.676  0.00  0.00    +0.000 HD
BRANCH  15  26
ATOM     26  O   UNL     1       2.759   3.960  20.748  0.00  0.00    +0.000 OA
ATOM     27  H   UNL     1       1.929   3.459  20.703  0.00  0.00    +0.000 HD
ENDBRANCH  15  26
ENDBRANCH   8  15
BRANCH   1  29
ATOM     28  C   UNL     1       3.236  14.314  18.143  0.00  0.00    +0.000 C 
ATOM     29  O   UNL     1       1.919  13.783  17.998  0.00  0.00    +0.000 OA
ENDBRANCH   1  29
TORSDOF 3
ENDMDL
MODEL 9
REMARK VINA RESULT:      -7.8      5.391      6.166
REMARK  Name = 
REMARK  4 active torsions:
REMARK  status: ('A' for Active; 'I' for Inactive)
REMARK    1  A    between atoms: C_1  and  O_2
REMARK    2  A    between atoms: O_2  and  C_3
REMARK    3  A    between atoms: C_10  and  C_11
REMARK    4  A    between atoms: C_11  and  O_12
REMARK                            x       y       z     vdW  Elec       q    Type
REMARK                         _______ _______ _______ _____ _____    ______ ____
ROOT
ATOM      1  C   UNL     1      -0.163  12.740  20.493  0.00  0.00    +0.000 C 
ATOM      2  O   UNL     1       0.217  12.407  21.607  0.00  0.00    +0.000 OA
ATOM      3  N   UNL     1      -0.274  11.934  19.396  0.00  0.00    +0.000 N 
ATOM      4  C   UNL     1       0.355  10.723  19.380  0.00  0.00    +0.000 A 
ATOM      5  N   UNL     1       1.024  10.263  18.352  0.00  0.00    +0.000 NA
ATOM      6  C   UNL     1       1.604   9.104  18.798  0.00  0.00    +0.000 A 
ATOM      7  C   UNL     1       2.507   8.256  18.148  0.00  0.00    +0.000 A 
ATOM      8  C   UNL     1       2.898   7.052  18.770  0.00  0.00    +0.000 A 
ATOM      9  C   UNL     1       2.387   6.744  20.050  0.00  0.00    +0.000 A 
ATOM     10  C   UNL     1       1.520   7.604  20.735  0.00  0.00    +0.000 A 
ATOM     11  C   UNL     1       1.167   8.782  20.077  0.00  0.00    +0.000 A 
ATOM     12  N   UNL     1       0.384   9.848  20.436  0.00  0.00    +0.000 N 
ATOM     13  H   UNL     1      -0.325  12.418  18.512  0.00  0.00    +0.000 HD
ATOM     14  H   UNL     1      -0.079   9.990  21.322  0.00  0.00    +0.000 HD
ENDROOT
BRANCH   8  15
ATOM     15  C   UNL     1       3.663   6.015  17.960  0.00  0.00    +0.000 C 
ATOM     16  N   UNL     1       4.977   5.736  18.462  0.00  0.00    +0.000 N 
ATOM     17  C   UNL     1       5.092   4.454  18.957  0.00  0.00    +0.000 C 
ATOM     18  O   UNL     1       6.054   3.983  19.531  0.00  0.00    +0.000 OA
ATOM     19  C   UNL     1       3.814   3.776  18.707  0.00  0.00    +0.000 A 
ATOM     20  C   UNL     1       3.379   2.530  19.110  0.00  0.00    +0.000 A 
ATOM     21  C   UNL     1       2.048   2.197  18.843  0.00  0.00    +0.000 A 
ATOM     22  C   UNL     1       1.201   3.095  18.165  0.00  0.00    +0.000 A 
ATOM     23  C   UNL     1       1.666   4.350  17.751  0.00  0.00    +0.000 A 
ATOM     24  C   UNL     1       2.976   4.684  18.063  0.00  0.00    +0.000 A 
ATOM     25  H   UNL     1       5.700   6.419  18.622  0.00  0.00    +0.000 HD
BRANCH  15  26
ATOM     26  O   UNL     1       3.822   6.403  16.615  0.00  0.00    +0.000 OA
ATOM     27  H   UNL     1       3.827   7.372  16.636  0.00  0.00    +0.000 HD
ENDBRANCH  15  26
ENDBRANCH   8  15
BRANCH   1  29
ATOM     28  C   UNL     1      -0.143  14.318  18.756  0.00  0.00    +0.000 C 
ATOM     29  O   UNL     1      -0.454  14.011  20.115  0.00  0.00    +0.000 OA
ENDBRANCH   1  29
TORSDOF 3
ENDMDL
