MODEL 1
REMARK VINA RESULT:      -7.7      0.000      0.000
REMARK  Name = 
REMARK  8 active torsions:
REMARK  status: ('A' for Active; 'I' for Inactive)
REMARK    1  A    between atoms: C_1  and  C_2
REMARK    2  A    between atoms: C_6  and  C_7
REMARK    3  A    between atoms: C_8  and  C_9
REMARK    4  A    between atoms: C_14  and  C_15
REMARK    5  A    between atoms: C_14  and  N_16
REMARK    6  A    between atoms: C_19  and  N_20
REMARK    7  A    between atoms: N_20  and  C_21
REMARK    8  A    between atoms: N_20  and  C_27
REMARK                            x       y       z     vdW  Elec       q    Type
REMARK                         _______ _______ _______ _____ _____    ______ ____
ROOT
ATOM      1  N   UNL     1      -0.421  15.016  21.142  0.00  0.00    +0.000 NA
ATOM      2  C   UNL     1       0.396  13.844  21.465  0.00  0.00    +0.000 C 
ATOM      3  C   UNL     1       1.195  13.232  20.325  0.00  0.00    +0.000 C 
ATOM      4  C   UNL     1       0.269  12.808  19.168  0.00  0.00    +0.000 C 
ATOM      5  C   UNL     1      -0.326  14.171  18.749  0.00  0.00    +0.000 C 
ATOM      6  C   UNL     1      -1.126  14.862  19.858  0.00  0.00    +0.000 C 
ENDROOT
BRANCH   1  12
ATOM      7  C   UNL     1      -5.525  15.091  21.118  0.00  0.00    +0.000 C 
ATOM      8  O   UNL     1      -6.062  15.952  20.422  0.00  0.00    +0.000 OA
ATOM      9  N   UNL     1      -4.225  15.261  21.647  0.00  0.00    +0.000 N 
ATOM     10  C   UNL     1      -3.471  14.149  22.187  0.00  0.00    +0.000 C 
ATOM     11  C   UNL     1      -2.199  14.485  22.945  0.00  0.00    +0.000 C 
ATOM     12  C   UNL     1      -1.293  15.549  22.259  0.00  0.00    +0.000 C 
ATOM     13  C   UNL     1      -0.338  16.033  23.380  0.00  0.00    +0.000 C 
ATOM     14  C   UNL     1      -2.237  16.736  21.907  0.00  0.00    +0.000 C 
ATOM     15  C   UNL     1      -3.417  16.325  21.040  0.00  0.00    +0.000 C 
BRANCH   7  23
ATOM     16  C   UNL     1      -6.378  12.727  19.136  0.00  0.00    +0.000 C 
ATOM     17  C   UNL     1      -6.718  12.842  20.599  0.00  0.00    +0.000 A 
ATOM     18  C   UNL     1      -7.492  11.785  21.101  0.00  0.00    +0.000 A 
ATOM     19  C   UNL     1      -7.915  11.817  22.413  0.00  0.00    +0.000 A 
ATOM     20  N   UNL     1      -7.636  12.814  23.265  0.00  0.00    +0.000 NA
ATOM     21  C   UNL     1      -6.856  13.839  22.799  0.00  0.00    +0.000 A 
ATOM     22  C   UNL     1      -6.619  14.905  23.835  0.00  0.00    +0.000 C 
ATOM     23  C   UNL     1      -6.346  13.890  21.486  0.00  0.00    +0.000 A 
ENDBRANCH   7  23
ENDBRANCH   1  12
BRANCH   4  24
ATOM     24  N   UNL     1      -0.660  11.627  19.512  0.00  0.00    +0.000 N 
BRANCH  24  25
ATOM     25  C   UNL     1      -1.630  11.181  18.566  0.00  0.00    +0.000 A 
ATOM     26  C   UNL     1      -1.357  10.207  17.597  0.00  0.00    +0.000 A 
ATOM     27  C   UNL     1      -2.294   9.846  16.618  0.00  0.00    +0.000 A 
ATOM     28  C   UNL     1      -3.587  10.354  16.659  0.00  0.00    +0.000 A 
ATOM     29  C   UNL     1      -3.929  11.241  17.668  0.00  0.00    +0.000 A 
ATOM     30  C   UNL     1      -2.955  11.664  18.585  0.00  0.00    +0.000 A 
ENDBRANCH  24  25
BRANCH  24  31
ATOM     31  C   UNL     1      -0.393  10.907  20.738  0.00  0.00    +0.000 A 
ATOM     32  C   UNL     1       0.603   9.924  20.873  0.00  0.00    +0.000 A 
ATOM     33  C   UNL     1       0.883   9.285  22.095  0.00  0.00    +0.000 A 
ATOM     34  C   UNL     1       0.142   9.573  23.230  0.00  0.00    +0.000 A 
ATOM     35  C   UNL     1      -0.891  10.489  23.134  0.00  0.00    +0.000 A 
ATOM     36  C   UNL     1      -1.156  11.121  21.910  0.00  0.00    +0.000 A 
ENDBRANCH  24  31
ENDBRANCH   4  24
TORSDOF 5
ENDMDL
MODEL 2
REMARK VINA RESULT:      -7.5      0.360      3.217
REMARK  Name = 
REMARK  8 active torsions:
REMARK  status: ('A' for Active; 'I' for Inactive)
REMARK    1  A    between atoms: C_1  and  C_2
REMARK    2  A    between atoms: C_6  and  C_7
REMARK    3  A    between atoms: C_8  and  C_9
REMARK    4  A    between atoms: C_14  and  C_15
REMARK    5  A    between atoms: C_14  and  N_16
REMARK    6  A    between atoms: C_19  and  N_20
REMARK    7  A    between atoms: N_20  and  C_21
REMARK    8  A    between atoms: N_20  and  C_27
REMARK                            x       y       z     vdW  Elec       q    Type
REMARK                         _______ _______ _______ _____ _____    ______ ____
ROOT
ATOM      1  N   UNL     1      -0.150  14.767  20.973  0.00  0.00    +0.000 NA
ATOM      2  C   UNL     1       0.694  13.615  21.298  0.00  0.00    +0.000 C 
ATOM      3  C   UNL     1       1.465  12.987  20.148  0.00  0.00    +0.000 C 
ATOM      4  C   UNL     1       0.509  12.522  19.031  0.00  0.00    +0.000 C 
ATOM      5  C   UNL     1      -0.118  13.867  18.600  0.00  0.00    +0.000 C 
ATOM      6  C   UNL     1      -0.893  14.573  19.717  0.00  0.00    +0.000 C 
ENDROOT
BRANCH   1  12
ATOM      7  C   UNL     1      -5.232  15.245  20.898  0.00  0.00    +0.000 C 
ATOM      8  O   UNL     1      -5.690  16.177  20.238  0.00  0.00    +0.000 OA
ATOM      9  N   UNL     1      -3.930  15.287  21.448  0.00  0.00    +0.000 N 
ATOM     10  C   UNL     1      -3.274  14.096  21.943  0.00  0.00    +0.000 C 
ATOM     11  C   UNL     1      -1.990  14.295  22.730  0.00  0.00    +0.000 C 
ATOM     12  C   UNL     1      -0.995  15.314  22.106  0.00  0.00    +0.000 C 
ATOM     13  C   UNL     1      -0.020  15.670  23.259  0.00  0.00    +0.000 C 
ATOM     14  C   UNL     1      -1.837  16.587  21.801  0.00  0.00    +0.000 C 
ATOM     15  C   UNL     1      -3.033  16.312  20.902  0.00  0.00    +0.000 C 
BRANCH   7  23
ATOM     16  C   UNL     1      -6.273  13.076  18.786  0.00  0.00    +0.000 C 
ATOM     17  C   UNL     1      -6.605  13.135  20.255  0.00  0.00    +0.000 A 
ATOM     18  C   UNL     1      -7.464  12.118  20.698  0.00  0.00    +0.000 A 
ATOM     19  C   UNL     1      -7.885  12.109  22.012  0.00  0.00    +0.000 A 
ATOM     20  N   UNL     1      -7.526  13.030  22.917  0.00  0.00    +0.000 NA
ATOM     21  C   UNL     1      -6.664  14.012  22.509  0.00  0.00    +0.000 A 
ATOM     22  C   UNL     1      -6.342  14.994  23.603  0.00  0.00    +0.000 C 
ATOM     23  C   UNL     1      -6.149  14.097  21.199  0.00  0.00    +0.000 A 
ENDBRANCH   7  23
ENDBRANCH   1  12
BRANCH   4  24
ATOM     24  N   UNL     1      -0.390  11.338  19.433  0.00  0.00    +0.000 N 
BRANCH  24  25
ATOM     25  C   UNL     1      -0.224  10.714  20.706  0.00  0.00    +0.000 A 
ATOM     26  C   UNL     1       0.781   9.776  20.970  0.00  0.00    +0.000 A 
ATOM     27  C   UNL     1       0.874   9.107  22.199  0.00  0.00    +0.000 A 
ATOM     28  C   UNL     1       0.039   9.455  23.254  0.00  0.00    +0.000 A 
ATOM     29  C   UNL     1      -0.900  10.457  23.066  0.00  0.00    +0.000 A 
ATOM     30  C   UNL     1      -1.043  11.052  21.804  0.00  0.00    +0.000 A 
ENDBRANCH  24  25
BRANCH  24  31
ATOM     31  C   UNL     1      -1.491  11.010  18.554  0.00  0.00    +0.000 A 
ATOM     32  C   UNL     1      -2.777  11.569  18.659  0.00  0.00    +0.000 A 
ATOM     33  C   UNL     1      -3.811  11.280  17.749  0.00  0.00    +0.000 A 
ATOM     34  C   UNL     1      -3.613  10.377  16.717  0.00  0.00    +0.000 A 
ATOM     35  C   UNL     1      -2.383   9.752  16.608  0.00  0.00    +0.000 A 
ATOM     36  C   UNL     1      -1.359  10.054  17.519  0.00  0.00    +0.000 A 
ENDBRANCH  24  31
ENDBRANCH   4  24
TORSDOF 5
ENDMDL
MODEL 3
REMARK VINA RESULT:      -7.5      6.555     11.013
REMARK  Name = 
REMARK  8 active torsions:
REMARK  status: ('A' for Active; 'I' for Inactive)
REMARK    1  A    between atoms: C_1  and  C_2
REMARK    2  A    between atoms: C_6  and  C_7
REMARK    3  A    between atoms: C_8  and  C_9
REMARK    4  A    between atoms: C_14  and  C_15
REMARK    5  A    between atoms: C_14  and  N_16
REMARK    6  A    between atoms: C_19  and  N_20
REMARK    7  A    between atoms: N_20  and  C_21
REMARK    8  A    between atoms: N_20  and  C_27
REMARK                            x       y       z     vdW  Elec       q    Type
REMARK                         _______ _______ _______ _____ _____    ______ ____
ROOT
ATOM      1  N   UNL     1       4.255  14.515  20.058  0.00  0.00    +0.000 NA
ATOM      2  C   UNL     1       3.392  14.125  21.176  0.00  0.00    +0.000 C 
ATOM      3  C   UNL     1       2.208  13.231  20.846  0.00  0.00    +0.000 C 
ATOM      4  C   UNL     1       1.288  13.896  19.801  0.00  0.00    +0.000 C 
ATOM      5  C   UNL     1       2.245  14.006  18.593  0.00  0.00    +0.000 C 
ATOM      6  C   UNL     1       3.479  14.874  18.859  0.00  0.00    +0.000 C 
ENDROOT
BRANCH   1  12
ATOM      7  C   UNL     1       9.156  13.275  20.764  0.00  0.00    +0.000 C 
ATOM      8  O   UNL     1       9.443  12.744  21.836  0.00  0.00    +0.000 OA
ATOM      9  N   UNL     1       8.038  14.130  20.629  0.00  0.00    +0.000 N 
ATOM     10  C   UNL     1       7.513  14.498  19.330  0.00  0.00    +0.000 C 
ATOM     11  C   UNL     1       6.474  15.606  19.298  0.00  0.00    +0.000 C 
ATOM     12  C   UNL     1       5.366  15.491  20.384  0.00  0.00    +0.000 C 
ATOM     13  C   UNL     1       4.721  16.901  20.438  0.00  0.00    +0.000 C 
ATOM     14  C   UNL     1       6.120  15.273  21.728  0.00  0.00    +0.000 C 
ATOM     15  C   UNL     1       7.044  14.065  21.706  0.00  0.00    +0.000 C 
BRANCH   7  23
ATOM     16  C   UNL     1       9.274  10.709  18.854  0.00  0.00    +0.000 C 
ATOM     17  C   UNL     1      10.149  11.933  18.773  0.00  0.00    +0.000 A 
ATOM     18  C   UNL     1      11.100  11.900  17.742  0.00  0.00    +0.000 A 
ATOM     19  C   UNL     1      11.996  12.941  17.612  0.00  0.00    +0.000 A 
ATOM     20  N   UNL     1      12.026  14.007  18.424  0.00  0.00    +0.000 NA
ATOM     21  C   UNL     1      11.084  14.069  19.417  0.00  0.00    +0.000 A 
ATOM     22  C   UNL     1      11.223  15.300  20.271  0.00  0.00    +0.000 C 
ATOM     23  C   UNL     1      10.105  13.076  19.619  0.00  0.00    +0.000 A 
ENDBRANCH   7  23
ENDBRANCH   1  12
BRANCH   4  24
ATOM     24  N   UNL     1       0.550  15.143  20.325  0.00  0.00    +0.000 N 
BRANCH  24  25
ATOM     25  C   UNL     1       0.435  16.303  19.502  0.00  0.00    +0.000 A 
ATOM     26  C   UNL     1      -0.441  16.382  18.413  0.00  0.00    +0.000 A 
ATOM     27  C   UNL     1      -0.475  17.497  17.562  0.00  0.00    +0.000 A 
ATOM     28  C   UNL     1       0.277  18.628  17.854  0.00  0.00    +0.000 A 
ATOM     29  C   UNL     1       1.078  18.630  18.986  0.00  0.00    +0.000 A 
ATOM     30  C   UNL     1       1.172  17.475  19.775  0.00  0.00    +0.000 A 
ENDBRANCH  24  25
BRANCH  24  31
ATOM     31  C   UNL     1      -0.149  15.021  21.585  0.00  0.00    +0.000 A 
ATOM     32  C   UNL     1       0.170  15.758  22.739  0.00  0.00    +0.000 A 
ATOM     33  C   UNL     1      -0.568  15.665  23.933  0.00  0.00    +0.000 A 
ATOM     34  C   UNL     1      -1.637  14.790  24.037  0.00  0.00    +0.000 A 
ATOM     35  C   UNL     1      -1.954  13.996  22.949  0.00  0.00    +0.000 A 
ATOM     36  C   UNL     1      -1.211  14.102  21.763  0.00  0.00    +0.000 A 
ENDBRANCH  24  31
ENDBRANCH   4  24
TORSDOF 5
ENDMDL
MODEL 4
REMARK VINA RESULT:      -7.5      6.781     11.268
REMARK  Name = 
REMARK  8 active torsions:
REMARK  status: ('A' for Active; 'I' for Inactive)
REMARK    1  A    between atoms: C_1  and  C_2
REMARK    2  A    between atoms: C_6  and  C_7
REMARK    3  A    between atoms: C_8  and  C_9
REMARK    4  A    between atoms: C_14  and  C_15
REMARK    5  A    between atoms: C_14  and  N_16
REMARK    6  A    between atoms: C_19  and  N_20
REMARK    7  A    between atoms: N_20  and  C_21
REMARK    8  A    between atoms: N_20  and  C_27
REMARK                            x       y       z     vdW  Elec       q    Type
REMARK                         _______ _______ _______ _____ _____    ______ ____
ROOT
ATOM      1  N   UNL     1       4.551  14.787  19.776  0.00  0.00    +0.000 NA
ATOM      2  C   UNL     1       3.602  14.555  20.867  0.00  0.00    +0.000 C 
ATOM      3  C   UNL     1       2.382  13.708  20.545  0.00  0.00    +0.000 C 
ATOM      4  C   UNL     1       1.570  14.328  19.390  0.00  0.00    +0.000 C 
ATOM      5  C   UNL     1       2.598  14.268  18.239  0.00  0.00    +0.000 C 
ATOM      6  C   UNL     1       3.870  15.080  18.504  0.00  0.00    +0.000 C 
ENDROOT
BRANCH   1  12
ATOM      7  C   UNL     1       9.341  13.326  20.765  0.00  0.00    +0.000 C 
ATOM      8  O   UNL     1       9.556  12.854  21.880  0.00  0.00    +0.000 OA
ATOM      9  N   UNL     1       8.281  14.231  20.527  0.00  0.00    +0.000 N 
ATOM     10  C   UNL     1       7.828  14.539  19.187  0.00  0.00    +0.000 C 
ATOM     11  C   UNL     1       6.858  15.697  19.039  0.00  0.00    +0.000 C 
ATOM     12  C   UNL     1       5.704  15.719  20.083  0.00  0.00    +0.000 C 
ATOM     13  C   UNL     1       5.142  17.163  20.017  0.00  0.00    +0.000 C 
ATOM     14  C   UNL     1       6.393  15.551  21.469  0.00  0.00    +0.000 C 
ATOM     15  C   UNL     1       7.245  14.295  21.565  0.00  0.00    +0.000 C 
BRANCH   7  23
ATOM     16  C   UNL     1       9.402  10.619  19.057  0.00  0.00    +0.000 C 
ATOM     17  C   UNL     1      10.337  11.792  18.919  0.00  0.00    +0.000 A 
ATOM     18  C   UNL     1      11.322  11.637  17.933  0.00  0.00    +0.000 A 
ATOM     19  C   UNL     1      12.272  12.622  17.761  0.00  0.00    +0.000 A 
ATOM     20  N   UNL     1      12.325  13.745  18.492  0.00  0.00    +0.000 NA
ATOM     21  C   UNL     1      11.353  13.925  19.439  0.00  0.00    +0.000 A 
ATOM     22  C   UNL     1      11.521  15.210  20.205  0.00  0.00    +0.000 C 
ATOM     23  C   UNL     1      10.319  12.997  19.676  0.00  0.00    +0.000 A 
ENDBRANCH   7  23
ENDBRANCH   1  12
BRANCH   4  24
ATOM     24  N   UNL     1       0.887  15.661  19.754  0.00  0.00    +0.000 N 
BRANCH  24  25
ATOM     25  C   UNL     1       0.624  16.629  18.740  0.00  0.00    +0.000 A 
ATOM     26  C   UNL     1      -0.670  17.047  18.401  0.00  0.00    +0.000 A 
ATOM     27  C   UNL     1      -0.914  17.932  17.341  0.00  0.00    +0.000 A 
ATOM     28  C   UNL     1       0.142  18.533  16.667  0.00  0.00    +0.000 A 
ATOM     29  C   UNL     1       1.441  18.227  17.044  0.00  0.00    +0.000 A 
ATOM     30  C   UNL     1       1.670  17.271  18.044  0.00  0.00    +0.000 A 
ENDBRANCH  24  25
BRANCH  24  31
ATOM     31  C   UNL     1       0.386  15.805  21.103  0.00  0.00    +0.000 A 
ATOM     32  C   UNL     1      -0.673  15.049  21.636  0.00  0.00    +0.000 A 
ATOM     33  C   UNL     1      -1.097  15.166  22.973  0.00  0.00    +0.000 A 
ATOM     34  C   UNL     1      -0.504  16.084  23.825  0.00  0.00    +0.000 A 
ATOM     35  C   UNL     1       0.501  16.896  23.331  0.00  0.00    +0.000 A 
ATOM     36  C   UNL     1       0.917  16.766  21.997  0.00  0.00    +0.000 A 
ENDBRANCH  24  31
ENDBRANCH   4  24
TORSDOF 5
ENDMDL
MODEL 5
REMARK VINA RESULT:      -7.4      4.081      8.521
REMARK  Name = 
REMARK  8 active torsions:
REMARK  status: ('A' for Active; 'I' for Inactive)
REMARK    1  A    between atoms: C_1  and  C_2
REMARK    2  A    between atoms: C_6  and  C_7
REMARK    3  A    between atoms: C_8  and  C_9
REMARK    4  A    between atoms: C_14  and  C_15
REMARK    5  A    between atoms: C_14  and  N_16
REMARK    6  A    between atoms: C_19  and  N_20
REMARK    7  A    between atoms: N_20  and  C_21
REMARK    8  A    between atoms: N_20  and  C_27
REMARK                            x       y       z     vdW  Elec       q    Type
REMARK                         _______ _______ _______ _____ _____    ______ ____
ROOT
ATOM      1  N   UNL     1       0.259  15.089  20.430  0.00  0.00    +0.000 NA
ATOM      2  C   UNL     1      -1.191  15.229  20.279  0.00  0.00    +0.000 C 
ATOM      3  C   UNL     1      -1.997  15.407  21.555  0.00  0.00    +0.000 C 
ATOM      4  C   UNL     1      -1.775  14.223  22.518  0.00  0.00    +0.000 C 
ATOM      5  C   UNL     1      -0.262  14.353  22.803  0.00  0.00    +0.000 C 
ATOM      6  C   UNL     1       0.616  14.210  21.556  0.00  0.00    +0.000 C 
ENDROOT
BRANCH   1  12
ATOM      7  C   UNL     1       5.071  16.538  19.534  0.00  0.00    +0.000 C 
ATOM      8  O   UNL     1       5.250  17.724  19.260  0.00  0.00    +0.000 OA
ATOM      9  N   UNL     1       3.840  15.889  19.281  0.00  0.00    +0.000 N 
ATOM     10  C   UNL     1       3.517  14.610  19.878  0.00  0.00    +0.000 C 
ATOM     11  C   UNL     1       2.286  13.896  19.350  0.00  0.00    +0.000 C 
ATOM     12  C   UNL     1       1.037  14.805  19.161  0.00  0.00    +0.000 C 
ATOM     13  C   UNL     1       0.096  13.993  18.233  0.00  0.00    +0.000 C 
ATOM     14  C   UNL     1       1.536  16.038  18.353  0.00  0.00    +0.000 C 
ATOM     15  C   UNL     1       2.691  16.765  19.024  0.00  0.00    +0.000 C 
BRANCH   7  23
ATOM     16  C   UNL     1       6.993  14.676  17.777  0.00  0.00    +0.000 C 
ATOM     17  C   UNL     1       7.101  14.940  19.257  0.00  0.00    +0.000 A 
ATOM     18  C   UNL     1       8.164  14.279  19.889  0.00  0.00    +0.000 A 
ATOM     19  C   UNL     1       8.323  14.398  21.254  0.00  0.00    +0.000 A 
ATOM     20  N   UNL     1       7.509  15.116  22.041  0.00  0.00    +0.000 NA
ATOM     21  C   UNL     1       6.483  15.792  21.435  0.00  0.00    +0.000 A 
ATOM     22  C   UNL     1       5.629  16.551  22.415  0.00  0.00    +0.000 C 
ATOM     23  C   UNL     1       6.250  15.763  20.045  0.00  0.00    +0.000 A 
ENDBRANCH   7  23
ENDBRANCH   1  12
BRANCH   4  24
ATOM     24  N   UNL     1      -2.359  12.890  22.011  0.00  0.00    +0.000 N 
BRANCH  24  25
ATOM     25  C   UNL     1      -1.543  11.720  21.977  0.00  0.00    +0.000 A 
ATOM     26  C   UNL     1      -0.908  11.267  20.814  0.00  0.00    +0.000 A 
ATOM     27  C   UNL     1      -0.184  10.066  20.778  0.00  0.00    +0.000 A 
ATOM     28  C   UNL     1       0.039   9.344  21.944  0.00  0.00    +0.000 A 
ATOM     29  C   UNL     1      -0.483   9.817  23.139  0.00  0.00    +0.000 A 
ATOM     30  C   UNL     1      -1.282  10.969  23.142  0.00  0.00    +0.000 A 
ENDBRANCH  24  25
BRANCH  24  31
ATOM     31  C   UNL     1      -3.780  12.846  21.744  0.00  0.00    +0.000 A 
ATOM     32  C   UNL     1      -4.337  12.683  20.464  0.00  0.00    +0.000 A 
ATOM     33  C   UNL     1      -5.722  12.579  20.241  0.00  0.00    +0.000 A 
ATOM     34  C   UNL     1      -6.617  12.681  21.294  0.00  0.00    +0.000 A 
ATOM     35  C   UNL     1      -6.122  12.905  22.567  0.00  0.00    +0.000 A 
ATOM     36  C   UNL     1      -4.738  13.001  22.775  0.00  0.00    +0.000 A 
ENDBRANCH  24  31
ENDBRANCH   4  24
TORSDOF 5
ENDMDL
MODEL 6
REMARK VINA RESULT:      -7.4      0.651      3.432
REMARK  Name = 
REMARK  8 active torsions:
REMARK  status: ('A' for Active; 'I' for Inactive)
REMARK    1  A    between atoms: C_1  and  C_2
REMARK    2  A    between atoms: C_6  and  C_7
REMARK    3  A    between atoms: C_8  and  C_9
REMARK    4  A    between atoms: C_14  and  C_15
REMARK    5  A    between atoms: C_14  and  N_16
REMARK    6  A    between atoms: C_19  and  N_20
REMARK    7  A    between atoms: N_20  and  C_21
REMARK    8  A    between atoms: N_20  and  C_27
REMARK                            x       y       z     vdW  Elec       q    Type
REMARK                         _______ _______ _______ _____ _____    ______ ____
ROOT
ATOM      1  N   UNL     1      -0.465  14.847  21.245  0.00  0.00    +0.000 NA
ATOM      2  C   UNL     1       0.465  13.758  21.551  0.00  0.00    +0.000 C 
ATOM      3  C   UNL     1       1.317  13.242  20.403  0.00  0.00    +0.000 C 
ATOM      4  C   UNL     1       0.433  12.742  19.242  0.00  0.00    +0.000 C 
ATOM      5  C   UNL     1      -0.295  14.045  18.842  0.00  0.00    +0.000 C 
ATOM      6  C   UNL     1      -1.156  14.640  19.961  0.00  0.00    +0.000 C 
ENDROOT
BRANCH   1  12
ATOM      7  C   UNL     1      -5.561  15.004  21.002  0.00  0.00    +0.000 C 
ATOM      8  O   UNL     1      -6.057  15.939  20.374  0.00  0.00    +0.000 OA
ATOM      9  N   UNL     1      -4.285  15.099  21.603  0.00  0.00    +0.000 N 
ATOM     10  C   UNL     1      -3.569  13.926  22.060  0.00  0.00    +0.000 C 
ATOM     11  C   UNL     1      -2.329  14.164  22.904  0.00  0.00    +0.000 C 
ATOM     12  C   UNL     1      -1.382  15.277  22.371  0.00  0.00    +0.000 C 
ATOM     13  C   UNL     1      -0.473  15.630  23.578  0.00  0.00    +0.000 C 
ATOM     14  C   UNL     1      -2.295  16.508  22.101  0.00  0.00    +0.000 C 
ATOM     15  C   UNL     1      -3.438  16.206  21.145  0.00  0.00    +0.000 C 
BRANCH   7  23
ATOM     16  C   UNL     1      -6.666  13.946  23.813  0.00  0.00    +0.000 C 
ATOM     17  C   UNL     1      -6.901  13.323  22.461  0.00  0.00    +0.000 A 
ATOM     18  C   UNL     1      -7.686  12.161  22.485  0.00  0.00    +0.000 A 
ATOM     19  C   UNL     1      -7.914  11.471  21.312  0.00  0.00    +0.000 A 
ATOM     20  N   UNL     1      -7.423  11.841  20.121  0.00  0.00    +0.000 NA
ATOM     21  C   UNL     1      -6.679  12.990  20.075  0.00  0.00    +0.000 A 
ATOM     22  C   UNL     1      -6.170  13.297  18.693  0.00  0.00    +0.000 C 
ATOM     23  C   UNL     1      -6.412  13.785  21.208  0.00  0.00    +0.000 A 
ENDBRANCH   7  23
ENDBRANCH   1  12
BRANCH   4  24
ATOM     24  N   UNL     1      -0.373  11.472  19.574  0.00  0.00    +0.000 N 
BRANCH  24  25
ATOM     25  C   UNL     1      -0.192  10.819  20.830  0.00  0.00    +0.000 A 
ATOM     26  C   UNL     1       0.891   9.973  21.100  0.00  0.00    +0.000 A 
ATOM     27  C   UNL     1       1.005   9.269  22.309  0.00  0.00    +0.000 A 
ATOM     28  C   UNL     1       0.103   9.493  23.341  0.00  0.00    +0.000 A 
ATOM     29  C   UNL     1      -0.924  10.406  23.152  0.00  0.00    +0.000 A 
ATOM     30  C   UNL     1      -1.078  11.032  21.906  0.00  0.00    +0.000 A 
ENDBRANCH  24  25
BRANCH  24  31
ATOM     31  C   UNL     1      -1.415  11.084  18.649  0.00  0.00    +0.000 A 
ATOM     32  C   UNL     1      -1.220  10.220  17.558  0.00  0.00    +0.000 A 
ATOM     33  C   UNL     1      -2.267   9.810  16.712  0.00  0.00    +0.000 A 
ATOM     34  C   UNL     1      -3.554  10.289  16.897  0.00  0.00    +0.000 A 
ATOM     35  C   UNL     1      -3.787  11.192  17.920  0.00  0.00    +0.000 A 
ATOM     36  C   UNL     1      -2.734  11.588  18.759  0.00  0.00    +0.000 A 
ENDBRANCH  24  31
ENDBRANCH   4  24
TORSDOF 5
ENDMDL
MODEL 7
REMARK VINA RESULT:      -7.4      0.634      1.701
REMARK  Name = 
REMARK  8 active torsions:
REMARK  status: ('A' for Active; 'I' for Inactive)
REMARK    1  A    between atoms: C_1  and  C_2
REMARK    2  A    between atoms: C_6  and  C_7
REMARK    3  A    between atoms: C_8  and  C_9
REMARK    4  A    between atoms: C_14  and  C_15
REMARK    5  A    between atoms: C_14  and  N_16
REMARK    6  A    between atoms: C_19  and  N_20
REMARK    7  A    between atoms: N_20  and  C_21
REMARK    8  A    between atoms: N_20  and  C_27
REMARK                            x       y       z     vdW  Elec       q    Type
REMARK                         _______ _______ _______ _____ _____    ______ ____
ROOT
ATOM      1  N   UNL     1      -0.140  14.852  20.930  0.00  0.00    +0.000 NA
ATOM      2  C   UNL     1       0.619  13.656  21.302  0.00  0.00    +0.000 C 
ATOM      3  C   UNL     1       1.390  12.962  20.191  0.00  0.00    +0.000 C 
ATOM      4  C   UNL     1       0.446  12.536  19.048  0.00  0.00    +0.000 C 
ATOM      5  C   UNL     1      -0.083  13.908  18.574  0.00  0.00    +0.000 C 
ATOM      6  C   UNL     1      -0.851  14.680  19.652  0.00  0.00    +0.000 C 
ENDROOT
BRANCH   1  12
ATOM      7  C   UNL     1      -5.230  15.234  20.855  0.00  0.00    +0.000 C 
ATOM      8  O   UNL     1      -5.709  16.104  20.129  0.00  0.00    +0.000 OA
ATOM      9  N   UNL     1      -3.926  15.341  21.392  0.00  0.00    +0.000 N 
ATOM     10  C   UNL     1      -3.245  14.203  21.972  0.00  0.00    +0.000 C 
ATOM     11  C   UNL     1      -1.961  14.484  22.732  0.00  0.00    +0.000 C 
ATOM     12  C   UNL     1      -0.987  15.470  22.023  0.00  0.00    +0.000 C 
ATOM     13  C   UNL     1      -0.013  15.930  23.138  0.00  0.00    +0.000 C 
ATOM     14  C   UNL     1      -1.855  16.701  21.627  0.00  0.00    +0.000 C 
ATOM     15  C   UNL     1      -3.050  16.336  20.761  0.00  0.00    +0.000 C 
BRANCH   7  23
ATOM     16  C   UNL     1      -6.235  14.588  23.825  0.00  0.00    +0.000 C 
ATOM     17  C   UNL     1      -6.570  13.818  22.573  0.00  0.00    +0.000 A 
ATOM     18  C   UNL     1      -7.407  12.711  22.778  0.00  0.00    +0.000 A 
ATOM     19  C   UNL     1      -7.728  11.896  21.712  0.00  0.00    +0.000 A 
ATOM     20  N   UNL     1      -7.283  12.090  20.463  0.00  0.00    +0.000 NA
ATOM     21  C   UNL     1      -6.489  13.184  20.240  0.00  0.00    +0.000 A 
ATOM     22  C   UNL     1      -6.039  13.292  18.808  0.00  0.00    +0.000 C 
ATOM     23  C   UNL     1      -6.125  14.096  21.251  0.00  0.00    +0.000 A 
ENDBRANCH   7  23
ENDBRANCH   1  12
BRANCH   4  24
ATOM     24  N   UNL     1      -0.539  11.416  19.438  0.00  0.00    +0.000 N 
BRANCH  24  25
ATOM     25  C   UNL     1      -1.551  11.004  18.521  0.00  0.00    +0.000 A 
ATOM     26  C   UNL     1      -2.857  11.509  18.548  0.00  0.00    +0.000 A 
ATOM     27  C   UNL     1      -3.862  11.027  17.697  0.00  0.00    +0.000 A 
ATOM     28  C   UNL     1      -3.558  10.112  16.696  0.00  0.00    +0.000 A 
ATOM     29  C   UNL     1      -2.251   9.667  16.566  0.00  0.00    +0.000 A 
ATOM     30  C   UNL     1      -1.277  10.088  17.483  0.00  0.00    +0.000 A 
ENDBRANCH  24  25
BRANCH  24  31
ATOM     31  C   UNL     1      -0.284  10.707  20.673  0.00  0.00    +0.000 A 
ATOM     32  C   UNL     1       0.689   9.705  20.821  0.00  0.00    +0.000 A 
ATOM     33  C   UNL     1       0.958   9.077  22.051  0.00  0.00    +0.000 A 
ATOM     34  C   UNL     1       0.226   9.397  23.183  0.00  0.00    +0.000 A 
ATOM     35  C   UNL     1      -0.788  10.333  23.075  0.00  0.00    +0.000 A 
ATOM     36  C   UNL     1      -1.041  10.955  21.843  0.00  0.00    +0.000 A 
ENDBRANCH  24  31
ENDBRANCH   4  24
TORSDOF 5
ENDMDL
MODEL 8
REMARK VINA RESULT:      -7.4      4.053      8.629
REMARK  Name = 
REMARK  8 active torsions:
REMARK  status: ('A' for Active; 'I' for Inactive)
REMARK    1  A    between atoms: C_1  and  C_2
REMARK    2  A    between atoms: C_6  and  C_7
REMARK    3  A    between atoms: C_8  and  C_9
REMARK    4  A    between atoms: C_14  and  C_15
REMARK    5  A    between atoms: C_14  and  N_16
REMARK    6  A    between atoms: C_19  and  N_20
REMARK    7  A    between atoms: N_20  and  C_21
REMARK    8  A    between atoms: N_20  and  C_27
REMARK                            x       y       z     vdW  Elec       q    Type
REMARK                         _______ _______ _______ _____ _____    ______ ____
ROOT
ATOM      1  N   UNL     1       0.105  15.109  20.604  0.00  0.00    +0.000 NA
ATOM      2  C   UNL     1      -1.341  15.254  20.424  0.00  0.00    +0.000 C 
ATOM      3  C   UNL     1      -2.167  15.487  21.679  0.00  0.00    +0.000 C 
ATOM      4  C   UNL     1      -1.969  14.339  22.690  0.00  0.00    +0.000 C 
ATOM      5  C   UNL     1      -0.460  14.469  22.995  0.00  0.00    +0.000 C 
ATOM      6  C   UNL     1       0.437  14.271  21.768  0.00  0.00    +0.000 C 
ENDROOT
BRANCH   1  12
ATOM      7  C   UNL     1       4.951  16.462  19.745  0.00  0.00    +0.000 C 
ATOM      8  O   UNL     1       5.151  17.636  19.434  0.00  0.00    +0.000 OA
ATOM      9  N   UNL     1       3.717  15.821  19.493  0.00  0.00    +0.000 N 
ATOM     10  C   UNL     1       3.365  14.568  20.128  0.00  0.00    +0.000 C 
ATOM     11  C   UNL     1       2.133  13.853  19.602  0.00  0.00    +0.000 C 
ATOM     12  C   UNL     1       0.900  14.771  19.360  0.00  0.00    +0.000 C 
ATOM     13  C   UNL     1      -0.035  13.941  18.443  0.00  0.00    +0.000 C 
ATOM     14  C   UNL     1       1.431  15.970  18.520  0.00  0.00    +0.000 C 
ATOM     15  C   UNL     1       2.584  16.703  19.186  0.00  0.00    +0.000 C 
BRANCH   7  23
ATOM     16  C   UNL     1       5.890  16.446  22.805  0.00  0.00    +0.000 C 
ATOM     17  C   UNL     1       6.518  15.685  21.667  0.00  0.00    +0.000 A 
ATOM     18  C   UNL     1       7.628  14.907  22.029  0.00  0.00    +0.000 A 
ATOM     19  C   UNL     1       8.321  14.217  21.057  0.00  0.00    +0.000 A 
ATOM     20  N   UNL     1       8.004  14.241  19.754  0.00  0.00    +0.000 NA
ATOM     21  C   UNL     1       6.905  14.973  19.387  0.00  0.00    +0.000 A 
ATOM     22  C   UNL     1       6.655  14.938  17.904  0.00  0.00    +0.000 C 
ATOM     23  C   UNL     1       6.110  15.690  20.304  0.00  0.00    +0.000 A 
ENDBRANCH   7  23
ENDBRANCH   1  12
BRANCH   4  24
ATOM     24  N   UNL     1      -2.556  12.991  22.225  0.00  0.00    +0.000 N 
BRANCH  24  25
ATOM     25  C   UNL     1      -1.703  11.859  22.063  0.00  0.00    +0.000 A 
ATOM     26  C   UNL     1      -1.139  11.499  20.833  0.00  0.00    +0.000 A 
ATOM     27  C   UNL     1      -0.377  10.332  20.674  0.00  0.00    +0.000 A 
ATOM     28  C   UNL     1      -0.042   9.555  21.776  0.00  0.00    +0.000 A 
ATOM     29  C   UNL     1      -0.491   9.938  23.030  0.00  0.00    +0.000 A 
ATOM     30  C   UNL     1      -1.329  11.055  23.160  0.00  0.00    +0.000 A 
ENDBRANCH  24  25
BRANCH  24  31
ATOM     31  C   UNL     1      -3.995  12.890  22.131  0.00  0.00    +0.000 A 
ATOM     32  C   UNL     1      -4.868  13.007  23.227  0.00  0.00    +0.000 A 
ATOM     33  C   UNL     1      -6.268  12.968  23.095  0.00  0.00    +0.000 A 
ATOM     34  C   UNL     1      -6.856  12.762  21.858  0.00  0.00    +0.000 A 
ATOM     35  C   UNL     1      -6.039  12.577  20.756  0.00  0.00    +0.000 A 
ATOM     36  C   UNL     1      -4.645  12.624  20.901  0.00  0.00    +0.000 A 
ENDBRANCH  24  31
ENDBRANCH   4  24
TORSDOF 5
ENDMDL
MODEL 9
REMARK VINA RESULT:      -7.3      4.065      8.296
REMARK  Name = 
REMARK  8 active torsions:
REMARK  status: ('A' for Active; 'I' for Inactive)
REMARK    1  A    between atoms: C_1  and  C_2
REMARK    2  A    between atoms: C_6  and  C_7
REMARK    3  A    between atoms: C_8  and  C_9
REMARK    4  A    between atoms: C_14  and  C_15
REMARK    5  A    between atoms: C_14  and  N_16
REMARK    6  A    between atoms: C_19  and  N_20
REMARK    7  A    between atoms: N_20  and  C_21
REMARK    8  A    between atoms: N_20  and  C_27
REMARK                            x       y       z     vdW  Elec       q    Type
REMARK                         _______ _______ _______ _____ _____    ______ ____
ROOT
ATOM      1  N   UNL     1       0.150  14.996  20.497  0.00  0.00    +0.000 NA
ATOM      2  C   UNL     1      -1.295  15.132  20.306  0.00  0.00    +0.000 C 
ATOM      3  C   UNL     1      -2.133  15.350  21.556  0.00  0.00    +0.000 C 
ATOM      4  C   UNL     1      -1.935  14.196  22.560  0.00  0.00    +0.000 C 
ATOM      5  C   UNL     1      -0.430  14.334  22.878  0.00  0.00    +0.000 C 
ATOM      6  C   UNL     1       0.478  14.151  21.658  0.00  0.00    +0.000 C 
ENDROOT
BRANCH   1  12
ATOM      7  C   UNL     1       4.991  16.397  19.683  0.00  0.00    +0.000 C 
ATOM      8  O   UNL     1       5.183  17.574  19.381  0.00  0.00    +0.000 OA
ATOM      9  N   UNL     1       3.764  15.747  19.418  0.00  0.00    +0.000 N 
ATOM     10  C   UNL     1       3.419  14.487  20.042  0.00  0.00    +0.000 C 
ATOM     11  C   UNL     1       2.197  13.764  19.502  0.00  0.00    +0.000 C 
ATOM     12  C   UNL     1       0.958  14.672  19.257  0.00  0.00    +0.000 C 
ATOM     13  C   UNL     1       0.038  13.839  18.328  0.00  0.00    +0.000 C 
ATOM     14  C   UNL     1       1.484  15.881  18.428  0.00  0.00    +0.000 C 
ATOM     15  C   UNL     1       2.626  16.620  19.107  0.00  0.00    +0.000 C 
BRANCH   7  23
ATOM     16  C   UNL     1       5.880  16.337  22.758  0.00  0.00    +0.000 C 
ATOM     17  C   UNL     1       6.539  15.607  21.615  0.00  0.00    +0.000 A 
ATOM     18  C   UNL     1       7.654  14.839  21.981  0.00  0.00    +0.000 A 
ATOM     19  C   UNL     1       8.373  14.178  21.007  0.00  0.00    +0.000 A 
ATOM     20  N   UNL     1       8.077  14.223  19.701  0.00  0.00    +0.000 NA
ATOM     21  C   UNL     1       6.973  14.944  19.330  0.00  0.00    +0.000 A 
ATOM     22  C   UNL     1       6.746  14.934  17.842  0.00  0.00    +0.000 C 
ATOM     23  C   UNL     1       6.152  15.632  20.246  0.00  0.00    +0.000 A 
ENDBRANCH   7  23
ENDBRANCH   1  12
BRANCH   4  24
ATOM     24  N   UNL     1      -2.509  12.848  22.081  0.00  0.00    +0.000 N 
BRANCH  24  25
ATOM     25  C   UNL     1      -3.830  12.783  21.546  0.00  0.00    +0.000 A 
ATOM     26  C   UNL     1      -4.979  12.921  22.334  0.00  0.00    +0.000 A 
ATOM     27  C   UNL     1      -6.269  12.765  21.806  0.00  0.00    +0.000 A 
ATOM     28  C   UNL     1      -6.455  12.596  20.440  0.00  0.00    +0.000 A 
ATOM     29  C   UNL     1      -5.345  12.561  19.609  0.00  0.00    +0.000 A 
ATOM     30  C   UNL     1      -4.058  12.626  20.163  0.00  0.00    +0.000 A 
ENDBRANCH  24  25
BRANCH  24  31
ATOM     31  C   UNL     1      -1.606  11.718  22.041  0.00  0.00    +0.000 A 
ATOM     32  C   UNL     1      -1.266  10.941  23.162  0.00  0.00    +0.000 A 
ATOM     33  C   UNL     1      -0.435   9.808  23.082  0.00  0.00    +0.000 A 
ATOM     34  C   UNL     1       0.131   9.430  21.875  0.00  0.00    +0.000 A 
ATOM     35  C   UNL     1      -0.123  10.200  20.752  0.00  0.00    +0.000 A 
ATOM     36  C   UNL     1      -0.957  11.324  20.846  0.00  0.00    +0.000 A 
ENDBRANCH  24  31
ENDBRANCH   4  24
TORSDOF 5
ENDMDL
