MODEL 1
REMARK VINA RESULT:      -6.9      0.000      0.000
REMARK  Name = 
REMARK  6 active torsions:
REMARK  status: ('A' for Active; 'I' for Inactive)
REMARK    1  A    between atoms: C_2  and  C_10
REMARK    2  A    between atoms: N_3  and  C_4
REMARK    3  A    between atoms: C_8  and  O_9
REMARK    4  A    between atoms: N_18  and  O_19
REMARK    5  A    between atoms: O_19  and  S_20
REMARK    6  A    between atoms: S_20  and  O_23
REMARK                            x       y       z     vdW  Elec       q    Type
REMARK                         _______ _______ _______ _____ _____    ______ ____
ROOT
ATOM      1  C   UNL     1       5.156   5.744  17.735  0.00  0.00    +0.000 C 
ATOM      2  C   UNL     1       4.654   6.793  16.696  0.00  0.00    +0.000 C 
ATOM      3  C   UNL     1       5.253   6.587  15.302  0.00  0.00    +0.000 C 
ATOM      4  C   UNL     1       5.253   5.086  14.893  0.00  0.00    +0.000 C 
ATOM      5  C   UNL     1       4.563   4.224  15.937  0.00  0.00    +0.000 C 
ATOM      6  N   UNL     1       5.458   4.459  17.055  0.00  0.00    +0.000 N 
ATOM      7  C   UNL     1       6.776   4.365  16.451  0.00  0.00    +0.000 C 
ATOM      8  O   UNL     1       7.851   4.182  17.000  0.00  0.00    +0.000 OA
ATOM      9  N   UNL     1       6.620   4.618  15.055  0.00  0.00    +0.000 N 
ENDROOT
BRANCH   1  11
ATOM     10  O   UNL     1       3.456   6.577  19.280  0.00  0.00    +0.000 OA
ATOM     11  C   UNL     1       4.021   5.602  18.783  0.00  0.00    +0.000 C 
ATOM     12  N   UNL     1       3.697   4.321  19.162  0.00  0.00    +0.000 N 
ATOM     13  H   UNL     1       4.122   3.560  18.637  0.00  0.00    +0.000 HD
BRANCH  12  14
ATOM     14  C   UNL     1       2.505   4.078  19.975  0.00  0.00    +0.000 C 
ATOM     15  C   UNL     1       2.722   4.257  21.483  0.00  0.00    +0.000 C 
ATOM     16  N   UNL     1       2.111   3.105  22.160  0.00  0.00    +0.000 NA
ATOM     17  C   UNL     1       1.264   2.430  21.174  0.00  0.00    +0.000 C 
ATOM     18  C   UNL     1       1.972   2.641  19.844  0.00  0.00    +0.000 C 
ATOM     19  H   UNL     1       1.547   3.410  22.955  0.00  0.00    +0.000 HD
BRANCH  18  20
ATOM     20  O   UNL     1       1.068   2.483  18.755  0.00  0.00    +0.000 OA
ATOM     21  H   UNL     1       0.238   2.103  19.116  0.00  0.00    +0.000 HD
ENDBRANCH  18  20
ENDBRANCH  12  14
ENDBRANCH   1  11
BRANCH   9  22
ATOM     22  O   UNL     1       6.820   3.526  14.147  0.00  0.00    +0.000 OA
BRANCH  22  23
ATOM     23  S   UNL     1       6.530   3.689  12.542  0.00  0.00    +0.000 S 
ATOM     24  O   UNL     1       5.100   3.709  12.315  0.00  0.00    +0.000 OA
ATOM     25  O   UNL     1       7.358   4.775  12.068  0.00  0.00    +0.000 OA
BRANCH  23  26
ATOM     26  O   UNL     1       7.110   2.320  11.916  0.00  0.00    +0.000 OA
ATOM     27  H   UNL     1       6.959   1.597  12.582  0.00  0.00    +0.000 HD
ENDBRANCH  23  26
ENDBRANCH  22  23
ENDBRANCH   9  22
TORSDOF 6
ENDMDL
MODEL 2
REMARK VINA RESULT:      -6.9      3.091      7.289
REMARK  Name = 
REMARK  6 active torsions:
REMARK  status: ('A' for Active; 'I' for Inactive)
REMARK    1  A    between atoms: C_2  and  C_10
REMARK    2  A    between atoms: N_3  and  C_4
REMARK    3  A    between atoms: C_8  and  O_9
REMARK    4  A    between atoms: N_18  and  O_19
REMARK    5  A    between atoms: O_19  and  S_20
REMARK    6  A    between atoms: S_20  and  O_23
REMARK                            x       y       z     vdW  Elec       q    Type
REMARK                         _______ _______ _______ _____ _____    ______ ____
ROOT
ATOM      1  C   UNL     1       4.798   5.897  17.084  0.00  0.00    +0.000 C 
ATOM      2  C   UNL     1       6.161   5.632  17.795  0.00  0.00    +0.000 C 
ATOM      3  C   UNL     1       6.003   4.921  19.142  0.00  0.00    +0.000 C 
ATOM      4  C   UNL     1       4.975   3.756  19.061  0.00  0.00    +0.000 C 
ATOM      5  C   UNL     1       4.471   3.556  17.641  0.00  0.00    +0.000 C 
ATOM      6  N   UNL     1       3.821   4.838  17.447  0.00  0.00    +0.000 N 
ATOM      7  C   UNL     1       3.111   5.044  18.697  0.00  0.00    +0.000 C 
ATOM      8  O   UNL     1       2.183   5.804  18.927  0.00  0.00    +0.000 OA
ATOM      9  N   UNL     1       3.756   4.242  19.687  0.00  0.00    +0.000 N 
ENDROOT
BRANCH   1  11
ATOM     10  O   UNL     1       5.249   6.966  14.934  0.00  0.00    +0.000 OA
ATOM     11  C   UNL     1       5.104   5.917  15.563  0.00  0.00    +0.000 C 
ATOM     12  N   UNL     1       5.171   4.695  14.937  0.00  0.00    +0.000 N 
ATOM     13  H   UNL     1       5.151   3.869  15.530  0.00  0.00    +0.000 HD
BRANCH  12  14
ATOM     14  C   UNL     1       5.664   4.603  13.563  0.00  0.00    +0.000 C 
ATOM     15  C   UNL     1       5.099   3.419  12.768  0.00  0.00    +0.000 C 
ATOM     16  N   UNL     1       6.223   2.768  12.081  0.00  0.00    +0.000 NA
ATOM     17  C   UNL     1       7.360   3.688  12.156  0.00  0.00    +0.000 C 
ATOM     18  C   UNL     1       7.188   4.411  13.484  0.00  0.00    +0.000 C 
ATOM     19  H   UNL     1       5.990   2.580  11.104  0.00  0.00    +0.000 HD
BRANCH  18  20
ATOM     20  O   UNL     1       7.902   5.643  13.490  0.00  0.00    +0.000 OA
ATOM     21  H   UNL     1       7.439   6.253  12.876  0.00  0.00    +0.000 HD
ENDBRANCH  18  20
ENDBRANCH  12  14
ENDBRANCH   1  11
BRANCH   9  22
ATOM     22  O   UNL     1       3.045   3.108  20.200  0.00  0.00    +0.000 OA
BRANCH  22  23
ATOM     23  S   UNL     1       1.885   3.277  21.345  0.00  0.00    +0.000 S 
ATOM     24  O   UNL     1       1.796   2.055  22.118  0.00  0.00    +0.000 OA
ATOM     25  O   UNL     1       2.119   4.541  22.005  0.00  0.00    +0.000 OA
BRANCH  23  26
ATOM     26  O   UNL     1       0.527   3.416  20.485  0.00  0.00    +0.000 OA
ATOM     27  H   UNL     1       0.786   3.617  19.546  0.00  0.00    +0.000 HD
ENDBRANCH  23  26
ENDBRANCH  22  23
ENDBRANCH   9  22
TORSDOF 6
ENDMDL
MODEL 3
REMARK VINA RESULT:      -6.8      2.972      7.228
REMARK  Name = 
REMARK  6 active torsions:
REMARK  status: ('A' for Active; 'I' for Inactive)
REMARK    1  A    between atoms: C_2  and  C_10
REMARK    2  A    between atoms: N_3  and  C_4
REMARK    3  A    between atoms: C_8  and  O_9
REMARK    4  A    between atoms: N_18  and  O_19
REMARK    5  A    between atoms: O_19  and  S_20
REMARK    6  A    between atoms: S_20  and  O_23
REMARK                            x       y       z     vdW  Elec       q    Type
REMARK                         _______ _______ _______ _____ _____    ______ ____
ROOT
ATOM      1  C   UNL     1       4.958   5.926  17.297  0.00  0.00    +0.000 C 
ATOM      2  C   UNL     1       5.957   4.856  17.836  0.00  0.00    +0.000 C 
ATOM      3  C   UNL     1       5.479   4.192  19.131  0.00  0.00    +0.000 C 
ATOM      4  C   UNL     1       3.969   3.824  19.065  0.00  0.00    +0.000 C 
ATOM      5  C   UNL     1       3.383   4.121  17.695  0.00  0.00    +0.000 C 
ATOM      6  N   UNL     1       3.569   5.560  17.674  0.00  0.00    +0.000 N 
ATOM      7  C   UNL     1       3.155   5.969  19.005  0.00  0.00    +0.000 C 
ATOM      8  O   UNL     1       2.834   7.081  19.392  0.00  0.00    +0.000 OA
ATOM      9  N   UNL     1       3.269   4.826  19.853  0.00  0.00    +0.000 N 
ENDROOT
BRANCH   1  11
ATOM     10  O   UNL     1       5.129   7.012  15.115  0.00  0.00    +0.000 OA
ATOM     11  C   UNL     1       5.158   5.962  15.759  0.00  0.00    +0.000 C 
ATOM     12  N   UNL     1       5.336   4.749  15.137  0.00  0.00    +0.000 N 
ATOM     13  H   UNL     1       5.459   3.936  15.734  0.00  0.00    +0.000 HD
BRANCH  12  14
ATOM     14  C   UNL     1       5.744   4.700  13.733  0.00  0.00    +0.000 C 
ATOM     15  C   UNL     1       5.106   3.560  12.930  0.00  0.00    +0.000 C 
ATOM     16  N   UNL     1       6.171   2.912  12.152  0.00  0.00    +0.000 NA
ATOM     17  C   UNL     1       7.332   3.804  12.193  0.00  0.00    +0.000 C 
ATOM     18  C   UNL     1       7.256   4.478  13.555  0.00  0.00    +0.000 C 
ATOM     19  H   UNL     1       5.876   2.767  11.185  0.00  0.00    +0.000 HD
BRANCH  18  20
ATOM     20  O   UNL     1       7.999   5.694  13.564  0.00  0.00    +0.000 OA
ATOM     21  H   UNL     1       8.476   5.751  12.709  0.00  0.00    +0.000 HD
ENDBRANCH  18  20
ENDBRANCH  12  14
ENDBRANCH   1  11
BRANCH   9  22
ATOM     22  O   UNL     1       2.062   4.230  20.346  0.00  0.00    +0.000 OA
BRANCH  22  23
ATOM     23  S   UNL     1       2.032   2.679  20.876  0.00  0.00    +0.000 S 
ATOM     24  O   UNL     1       1.682   1.806  19.775  0.00  0.00    +0.000 OA
ATOM     25  O   UNL     1       3.252   2.460  21.620  0.00  0.00    +0.000 OA
BRANCH  23  26
ATOM     26  O   UNL     1       0.807   2.665  21.925  0.00  0.00    +0.000 OA
ATOM     27  H   UNL     1       1.026   3.309  22.651  0.00  0.00    +0.000 HD
ENDBRANCH  23  26
ENDBRANCH  22  23
ENDBRANCH   9  22
TORSDOF 6
ENDMDL
MODEL 4
REMARK VINA RESULT:      -6.7      0.962      1.013
REMARK  Name = 
REMARK  6 active torsions:
REMARK  status: ('A' for Active; 'I' for Inactive)
REMARK    1  A    between atoms: C_2  and  C_10
REMARK    2  A    between atoms: N_3  and  C_4
REMARK    3  A    between atoms: C_8  and  O_9
REMARK    4  A    between atoms: N_18  and  O_19
REMARK    5  A    between atoms: O_19  and  S_20
REMARK    6  A    between atoms: S_20  and  O_23
REMARK                            x       y       z     vdW  Elec       q    Type
REMARK                         _______ _______ _______ _____ _____    ______ ____
ROOT
ATOM      1  C   UNL     1       5.455   5.698  17.763  0.00  0.00    +0.000 C 
ATOM      2  C   UNL     1       4.780   6.709  16.785  0.00  0.00    +0.000 C 
ATOM      3  C   UNL     1       5.170   6.476  15.322  0.00  0.00    +0.000 C 
ATOM      4  C   UNL     1       5.144   4.964  14.954  0.00  0.00    +0.000 C 
ATOM      5  C   UNL     1       4.636   4.118  16.110  0.00  0.00    +0.000 C 
ATOM      6  N   UNL     1       5.681   4.401  17.075  0.00  0.00    +0.000 N 
ATOM      7  C   UNL     1       6.897   4.315  16.285  0.00  0.00    +0.000 C 
ATOM      8  O   UNL     1       8.045   4.168  16.672  0.00  0.00    +0.000 OA
ATOM      9  N   UNL     1       6.530   4.527  14.921  0.00  0.00    +0.000 N 
ENDROOT
BRANCH   1  11
ATOM     10  O   UNL     1       3.980   6.539  19.519  0.00  0.00    +0.000 OA
ATOM     11  C   UNL     1       4.492   5.562  18.971  0.00  0.00    +0.000 C 
ATOM     12  N   UNL     1       4.262   4.286  19.429  0.00  0.00    +0.000 N 
ATOM     13  H   UNL     1       4.625   3.520  18.868  0.00  0.00    +0.000 HD
BRANCH  12  14
ATOM     14  C   UNL     1       3.210   4.042  20.416  0.00  0.00    +0.000 C 
ATOM     15  C   UNL     1       3.161   2.602  20.942  0.00  0.00    +0.000 C 
ATOM     16  N   UNL     1       1.758   2.167  20.918  0.00  0.00    +0.000 NA
ATOM     17  C   UNL     1       0.942   3.368  20.723  0.00  0.00    +0.000 C 
ATOM     18  C   UNL     1       1.797   4.283  19.859  0.00  0.00    +0.000 C 
ATOM     19  H   UNL     1       1.505   1.711  21.796  0.00  0.00    +0.000 HD
BRANCH  18  20
ATOM     20  O   UNL     1       1.377   5.638  19.981  0.00  0.00    +0.000 OA
ATOM     21  H   UNL     1       0.622   5.655  20.607  0.00  0.00    +0.000 HD
ENDBRANCH  18  20
ENDBRANCH  12  14
ENDBRANCH   1  11
BRANCH   9  22
ATOM     22  O   UNL     1       6.617   3.415  14.020  0.00  0.00    +0.000 OA
BRANCH  22  23
ATOM     23  S   UNL     1       6.463   3.617  12.401  0.00  0.00    +0.000 S 
ATOM     24  O   UNL     1       5.057   3.632  12.054  0.00  0.00    +0.000 OA
ATOM     25  O   UNL     1       7.317   4.721  12.026  0.00  0.00    +0.000 OA
BRANCH  23  26
ATOM     26  O   UNL     1       7.107   2.269  11.793  0.00  0.00    +0.000 OA
ATOM     27  H   UNL     1       8.011   2.498  11.445  0.00  0.00    +0.000 HD
ENDBRANCH  23  26
ENDBRANCH  22  23
ENDBRANCH   9  22
TORSDOF 6
ENDMDL
MODEL 5
REMARK VINA RESULT:      -6.5      4.762      7.272
REMARK  Name = 
REMARK  6 active torsions:
REMARK  status: ('A' for Active; 'I' for Inactive)
REMARK    1  A    between atoms: C_2  and  C_10
REMARK    2  A    between atoms: N_3  and  C_4
REMARK    3  A    between atoms: C_8  and  O_9
REMARK    4  A    between atoms: N_18  and  O_19
REMARK    5  A    between atoms: O_19  and  S_20
REMARK    6  A    between atoms: S_20  and  O_23
REMARK                            x       y       z     vdW  Elec       q    Type
REMARK                         _______ _______ _______ _____ _____    ______ ____
ROOT
ATOM      1  C   UNL     1       7.509   6.773  17.922  0.00  0.00    +0.000 C 
ATOM      2  C   UNL     1       7.548   6.302  16.435  0.00  0.00    +0.000 C 
ATOM      3  C   UNL     1       6.652   5.088  16.170  0.00  0.00    +0.000 C 
ATOM      4  C   UNL     1       5.265   5.236  16.861  0.00  0.00    +0.000 C 
ATOM      5  C   UNL     1       5.119   6.592  17.532  0.00  0.00    +0.000 C 
ATOM      6  N   UNL     1       6.180   6.475  18.514  0.00  0.00    +0.000 N 
ATOM      7  C   UNL     1       6.012   5.127  19.028  0.00  0.00    +0.000 C 
ATOM      8  O   UNL     1       6.443   4.651  20.067  0.00  0.00    +0.000 OA
ATOM      9  N   UNL     1       5.302   4.383  18.038  0.00  0.00    +0.000 N 
ENDROOT
BRANCH   1  11
ATOM     10  O   UNL     1       7.248   9.067  17.121  0.00  0.00    +0.000 OA
ATOM     11  C   UNL     1       7.813   8.294  17.897  0.00  0.00    +0.000 C 
ATOM     12  N   UNL     1       8.780   8.739  18.767  0.00  0.00    +0.000 N 
ATOM     13  H   UNL     1       9.128   8.073  19.453  0.00  0.00    +0.000 HD
BRANCH  12  14
ATOM     14  C   UNL     1       8.980  10.174  18.966  0.00  0.00    +0.000 C 
ATOM     15  C   UNL     1       9.684  10.880  17.800  0.00  0.00    +0.000 C 
ATOM     16  N   UNL     1      10.731  11.741  18.368  0.00  0.00    +0.000 NA
ATOM     17  C   UNL     1      10.471  11.837  19.806  0.00  0.00    +0.000 C 
ATOM     18  C   UNL     1       9.866  10.493  20.183  0.00  0.00    +0.000 C 
ATOM     19  H   UNL     1      10.704  12.670  17.946  0.00  0.00    +0.000 HD
BRANCH  18  20
ATOM     20  O   UNL     1       9.126  10.588  21.396  0.00  0.00    +0.000 OA
ATOM     21  H   UNL     1       9.718  10.990  22.068  0.00  0.00    +0.000 HD
ENDBRANCH  18  20
ENDBRANCH  12  14
ENDBRANCH   1  11
BRANCH   9  22
ATOM     22  O   UNL     1       3.956   3.985  18.332  0.00  0.00    +0.000 OA
BRANCH  22  23
ATOM     23  S   UNL     1       3.623   2.510  18.964  0.00  0.00    +0.000 S 
ATOM     24  O   UNL     1       2.564   2.639  19.943  0.00  0.00    +0.000 OA
ATOM     25  O   UNL     1       3.483   1.593  17.855  0.00  0.00    +0.000 OA
BRANCH  23  26
ATOM     26  O   UNL     1       4.977   2.125  19.751  0.00  0.00    +0.000 OA
ATOM     27  H   UNL     1       5.673   2.789  19.495  0.00  0.00    +0.000 HD
ENDBRANCH  23  26
ENDBRANCH  22  23
ENDBRANCH   9  22
TORSDOF 6
ENDMDL
MODEL 6
REMARK VINA RESULT:      -6.4      2.914      7.245
REMARK  Name = 
REMARK  6 active torsions:
REMARK  status: ('A' for Active; 'I' for Inactive)
REMARK    1  A    between atoms: C_2  and  C_10
REMARK    2  A    between atoms: N_3  and  C_4
REMARK    3  A    between atoms: C_8  and  O_9
REMARK    4  A    between atoms: N_18  and  O_19
REMARK    5  A    between atoms: O_19  and  S_20
REMARK    6  A    between atoms: S_20  and  O_23
REMARK                            x       y       z     vdW  Elec       q    Type
REMARK                         _______ _______ _______ _____ _____    ______ ____
ROOT
ATOM      1  C   UNL     1       4.043   5.551  16.578  0.00  0.00    +0.000 C 
ATOM      2  C   UNL     1       4.422   6.767  17.478  0.00  0.00    +0.000 C 
ATOM      3  C   UNL     1       3.921   6.623  18.918  0.00  0.00    +0.000 C 
ATOM      4  C   UNL     1       4.168   5.190  19.472  0.00  0.00    +0.000 C 
ATOM      5  C   UNL     1       4.938   4.335  18.480  0.00  0.00    +0.000 C 
ATOM      6  N   UNL     1       3.971   4.315  17.398  0.00  0.00    +0.000 N 
ATOM      7  C   UNL     1       2.709   4.091  18.083  0.00  0.00    +0.000 C 
ATOM      8  O   UNL     1       1.653   3.693  17.618  0.00  0.00    +0.000 OA
ATOM      9  N   UNL     1       2.883   4.511  19.437  0.00  0.00    +0.000 N 
ENDROOT
BRANCH   1  11
ATOM     10  O   UNL     1       5.709   6.467  15.044  0.00  0.00    +0.000 OA
ATOM     11  C   UNL     1       5.141   5.467  15.486  0.00  0.00    +0.000 C 
ATOM     12  N   UNL     1       5.428   4.213  15.002  0.00  0.00    +0.000 N 
ATOM     13  H   UNL     1       5.005   3.423  15.483  0.00  0.00    +0.000 HD
BRANCH  12  14
ATOM     14  C   UNL     1       6.589   4.012  14.135  0.00  0.00    +0.000 C 
ATOM     15  C   UNL     1       7.589   5.175  14.139  0.00  0.00    +0.000 C 
ATOM     16  N   UNL     1       7.938   5.467  12.742  0.00  0.00    +0.000 NA
ATOM     17  C   UNL     1       7.463   4.339  11.939  0.00  0.00    +0.000 C 
ATOM     18  C   UNL     1       6.210   3.854  12.652  0.00  0.00    +0.000 C 
ATOM     19  H   UNL     1       8.949   5.570  12.636  0.00  0.00    +0.000 HD
BRANCH  18  20
ATOM     20  O   UNL     1       5.910   2.507  12.298  0.00  0.00    +0.000 OA
ATOM     21  H   UNL     1       5.232   2.183  12.929  0.00  0.00    +0.000 HD
ENDBRANCH  18  20
ENDBRANCH  12  14
ENDBRANCH   1  11
BRANCH   9  22
ATOM     22  O   UNL     1       2.892   3.504  20.458  0.00  0.00    +0.000 OA
BRANCH  22  23
ATOM     23  S   UNL     1       1.542   2.651  20.825  0.00  0.00    +0.000 S 
ATOM     24  O   UNL     1       1.441   1.511  19.938  0.00  0.00    +0.000 OA
ATOM     25  O   UNL     1       1.534   2.462  22.258  0.00  0.00    +0.000 OA
BRANCH  23  26
ATOM     26  O   UNL     1       0.345   3.669  20.458  0.00  0.00    +0.000 OA
ATOM     27  H   UNL     1       0.013   3.428  19.551  0.00  0.00    +0.000 HD
ENDBRANCH  23  26
ENDBRANCH  22  23
ENDBRANCH   9  22
TORSDOF 6
ENDMDL
MODEL 7
REMARK VINA RESULT:      -6.3      3.138      7.496
REMARK  Name = 
REMARK  6 active torsions:
REMARK  status: ('A' for Active; 'I' for Inactive)
REMARK    1  A    between atoms: C_2  and  C_10
REMARK    2  A    between atoms: N_3  and  C_4
REMARK    3  A    between atoms: C_8  and  O_9
REMARK    4  A    between atoms: N_18  and  O_19
REMARK    5  A    between atoms: O_19  and  S_20
REMARK    6  A    between atoms: S_20  and  O_23
REMARK                            x       y       z     vdW  Elec       q    Type
REMARK                         _______ _______ _______ _____ _____    ______ ____
ROOT
ATOM      1  C   UNL     1       4.375   4.951  16.819  0.00  0.00    +0.000 C 
ATOM      2  C   UNL     1       4.841   5.894  17.971  0.00  0.00    +0.000 C 
ATOM      3  C   UNL     1       4.027   5.713  19.256  0.00  0.00    +0.000 C 
ATOM      4  C   UNL     1       3.793   4.210  19.582  0.00  0.00    +0.000 C 
ATOM      5  C   UNL     1       4.523   3.307  18.601  0.00  0.00    +0.000 C 
ATOM      6  N   UNL     1       3.831   3.689  17.384  0.00  0.00    +0.000 N 
ATOM      7  C   UNL     1       2.438   3.736  17.792  0.00  0.00    +0.000 C 
ATOM      8  O   UNL     1       1.440   3.705  17.090  0.00  0.00    +0.000 OA
ATOM      9  N   UNL     1       2.419   3.919  19.208  0.00  0.00    +0.000 N 
ENDROOT
BRANCH   1  11
ATOM     10  O   UNL     1       6.771   4.752  16.383  0.00  0.00    +0.000 OA
ATOM     11  C   UNL     1       5.625   4.707  15.933  0.00  0.00    +0.000 C 
ATOM     12  N   UNL     1       5.392   4.471  14.599  0.00  0.00    +0.000 N 
ATOM     13  H   UNL     1       4.425   4.339  14.313  0.00  0.00    +0.000 HD
BRANCH  12  14
ATOM     14  C   UNL     1       6.483   4.021  13.735  0.00  0.00    +0.000 C 
ATOM     15  C   UNL     1       7.513   5.108  13.401  0.00  0.00    +0.000 C 
ATOM     16  N   UNL     1       7.772   5.047  11.956  0.00  0.00    +0.000 NA
ATOM     17  C   UNL     1       7.210   3.784  11.474  0.00  0.00    +0.000 C 
ATOM     18  C   UNL     1       5.996   3.535  12.358  0.00  0.00    +0.000 C 
ATOM     19  H   UNL     1       8.775   5.079  11.766  0.00  0.00    +0.000 HD
BRANCH  18  20
ATOM     20  O   UNL     1       5.635   2.158  12.354  0.00  0.00    +0.000 OA
ATOM     21  H   UNL     1       5.934   1.774  13.206  0.00  0.00    +0.000 HD
ENDBRANCH  18  20
ENDBRANCH  12  14
ENDBRANCH   1  11
BRANCH   9  22
ATOM     22  O   UNL     1       1.966   2.829  20.022  0.00  0.00    +0.000 OA
BRANCH  22  23
ATOM     23  S   UNL     1       2.153   2.845  21.650  0.00  0.00    +0.000 S 
ATOM     24  O   UNL     1       0.912   2.441  22.277  0.00  0.00    +0.000 OA
ATOM     25  O   UNL     1       3.381   2.142  21.944  0.00  0.00    +0.000 OA
BRANCH  23  26
ATOM     26  O   UNL     1       2.389   4.405  21.984  0.00  0.00    +0.000 OA
ATOM     27  H   UNL     1       1.578   4.901  21.690  0.00  0.00    +0.000 HD
ENDBRANCH  23  26
ENDBRANCH  22  23
ENDBRANCH   9  22
TORSDOF 6
ENDMDL
MODEL 8
REMARK VINA RESULT:      -6.3      4.132      5.619
REMARK  Name = 
REMARK  6 active torsions:
REMARK  status: ('A' for Active; 'I' for Inactive)
REMARK    1  A    between atoms: C_2  and  C_10
REMARK    2  A    between atoms: N_3  and  C_4
REMARK    3  A    between atoms: C_8  and  O_9
REMARK    4  A    between atoms: N_18  and  O_19
REMARK    5  A    between atoms: O_19  and  S_20
REMARK    6  A    between atoms: S_20  and  O_23
REMARK                            x       y       z     vdW  Elec       q    Type
REMARK                         _______ _______ _______ _____ _____    ______ ____
ROOT
ATOM      1  C   UNL     1       2.483   6.907  17.999  0.00  0.00    +0.000 C 
ATOM      2  C   UNL     1       1.629   5.615  18.189  0.00  0.00    +0.000 C 
ATOM      3  C   UNL     1       2.376   4.341  17.785  0.00  0.00    +0.000 C 
ATOM      4  C   UNL     1       3.840   4.341  18.313  0.00  0.00    +0.000 C 
ATOM      5  C   UNL     1       4.118   5.557  19.182  0.00  0.00    +0.000 C 
ATOM      6  N   UNL     1       3.923   6.596  18.189  0.00  0.00    +0.000 N 
ATOM      7  C   UNL     1       4.610   6.074  17.020  0.00  0.00    +0.000 C 
ATOM      8  O   UNL     1       4.999   6.680  16.035  0.00  0.00    +0.000 OA
ATOM      9  N   UNL     1       4.686   4.656  17.174  0.00  0.00    +0.000 N 
ENDROOT
BRANCH   1  11
ATOM     10  O   UNL     1       2.027   7.718  20.258  0.00  0.00    +0.000 OA
ATOM     11  C   UNL     1       1.958   7.925  19.045  0.00  0.00    +0.000 C 
ATOM     12  N   UNL     1       1.374   9.066  18.549  0.00  0.00    +0.000 N 
ATOM     13  H   UNL     1       1.448   9.226  17.547  0.00  0.00    +0.000 HD
BRANCH  12  14
ATOM     14  C   UNL     1       1.048  10.172  19.449  0.00  0.00    +0.000 C 
ATOM     15  C   UNL     1      -0.326  10.055  20.120  0.00  0.00    +0.000 C 
ATOM     16  N   UNL     1      -0.990  11.360  20.006  0.00  0.00    +0.000 NA
ATOM     17  C   UNL     1       0.034  12.327  19.604  0.00  0.00    +0.000 C 
ATOM     18  C   UNL     1       0.997  11.533  18.733  0.00  0.00    +0.000 C 
ATOM     19  H   UNL     1      -1.400  11.637  20.900  0.00  0.00    +0.000 HD
BRANCH  18  20
ATOM     20  O   UNL     1       2.269  12.171  18.666  0.00  0.00    +0.000 OA
ATOM     21  H   UNL     1       2.386  12.492  17.746  0.00  0.00    +0.000 HD
ENDBRANCH  18  20
ENDBRANCH  12  14
ENDBRANCH   1  11
BRANCH   9  22
ATOM     22  O   UNL     1       5.974   4.073  17.410  0.00  0.00    +0.000 OA
BRANCH  22  23
ATOM     23  S   UNL     1       7.352   4.932  17.184  0.00  0.00    +0.000 S 
ATOM     24  O   UNL     1       7.571   5.117  15.765  0.00  0.00    +0.000 OA
ATOM     25  O   UNL     1       7.291   6.075  18.067  0.00  0.00    +0.000 OA
BRANCH  23  26
ATOM     26  O   UNL     1       8.502   3.945  17.736  0.00  0.00    +0.000 OA
ATOM     27  H   UNL     1       8.947   4.401  18.501  0.00  0.00    +0.000 HD
ENDBRANCH  23  26
ENDBRANCH  22  23
ENDBRANCH   9  22
TORSDOF 6
ENDMDL
MODEL 9
REMARK VINA RESULT:      -6.2      3.736      4.887
REMARK  Name = 
REMARK  6 active torsions:
REMARK  status: ('A' for Active; 'I' for Inactive)
REMARK    1  A    between atoms: C_2  and  C_10
REMARK    2  A    between atoms: N_3  and  C_4
REMARK    3  A    between atoms: C_8  and  O_9
REMARK    4  A    between atoms: N_18  and  O_19
REMARK    5  A    between atoms: O_19  and  S_20
REMARK    6  A    between atoms: S_20  and  O_23
REMARK                            x       y       z     vdW  Elec       q    Type
REMARK                         _______ _______ _______ _____ _____    ______ ____
ROOT
ATOM      1  C   UNL     1       2.584   7.189  17.750  0.00  0.00    +0.000 C 
ATOM      2  C   UNL     1       1.697   6.009  18.253  0.00  0.00    +0.000 C 
ATOM      3  C   UNL     1       2.366   4.642  18.080  0.00  0.00    +0.000 C 
ATOM      4  C   UNL     1       3.862   4.676  18.509  0.00  0.00    +0.000 C 
ATOM      5  C   UNL     1       4.244   6.028  19.090  0.00  0.00    +0.000 C 
ATOM      6  N   UNL     1       4.021   6.851  17.916  0.00  0.00    +0.000 N 
ATOM      7  C   UNL     1       4.607   6.067  16.843  0.00  0.00    +0.000 C 
ATOM      8  O   UNL     1       4.951   6.438  15.732  0.00  0.00    +0.000 OA
ATOM      9  N   UNL     1       4.639   4.708  17.281  0.00  0.00    +0.000 N 
ENDROOT
BRANCH   1  11
ATOM     10  O   UNL     1       2.167   9.567  18.130  0.00  0.00    +0.000 OA
ATOM     11  C   UNL     1       2.171   8.425  18.592  0.00  0.00    +0.000 C 
ATOM     12  N   UNL     1       1.840   8.187  19.905  0.00  0.00    +0.000 N 
ATOM     13  H   UNL     1       1.758   7.215  20.194  0.00  0.00    +0.000 HD
BRANCH  12  14
ATOM     14  C   UNL     1       1.235   9.248  20.711  0.00  0.00    +0.000 C 
ATOM     15  C   UNL     1       1.439   9.086  22.222  0.00  0.00    +0.000 C 
ATOM     16  N   UNL     1       0.144   9.321  22.874  0.00  0.00    +0.000 NA
ATOM     17  C   UNL     1      -0.733   9.933  21.873  0.00  0.00    +0.000 C 
ATOM     18  C   UNL     1      -0.293   9.327  20.549  0.00  0.00    +0.000 C 
ATOM     19  H   UNL     1       0.250   9.947  23.675  0.00  0.00    +0.000 HD
BRANCH  18  20
ATOM     20  O   UNL     1      -0.691  10.148  19.455  0.00  0.00    +0.000 OA
ATOM     21  H   UNL     1       0.127  10.480  19.025  0.00  0.00    +0.000 HD
ENDBRANCH  18  20
ENDBRANCH  12  14
ENDBRANCH   1  11
BRANCH   9  22
ATOM     22  O   UNL     1       5.918   4.121  17.557  0.00  0.00    +0.000 OA
BRANCH  22  23
ATOM     23  S   UNL     1       7.310   4.866  17.118  0.00  0.00    +0.000 S 
ATOM     24  O   UNL     1       7.453   4.798  15.678  0.00  0.00    +0.000 OA
ATOM     25  O   UNL     1       7.341   6.143  17.793  0.00  0.00    +0.000 OA
BRANCH  23  26
ATOM     26  O   UNL     1       8.455   3.936  17.771  0.00  0.00    +0.000 OA
ATOM     27  H   UNL     1       9.251   3.978  17.177  0.00  0.00    +0.000 HD
ENDBRANCH  23  26
ENDBRANCH  22  23
ENDBRANCH   9  22
TORSDOF 6
ENDMDL
