MODEL 1
REMARK VINA RESULT:      -7.2      0.000      0.000
REMARK  Name = 
REMARK  10 active torsions:
REMARK  status: ('A' for Active; 'I' for Inactive)
REMARK    1  A    between atoms: C_1  and  C_2
REMARK    2  A    between atoms: C_2  and  O_3
REMARK    3  A    between atoms: O_3  and  C_4
REMARK    4  A    between atoms: C_4  and  C_6
REMARK    5  A    between atoms: C_9  and  N_10
REMARK    6  A    between atoms: N_10  and  C_11
REMARK    7  A    between atoms: C_11  and  N_13
REMARK    8  A    between atoms: N_13  and  C_14
REMARK    9  A    between atoms: C_14  and  C_15
REMARK   10  A    between atoms: C_21  and  N_22
REMARK                            x       y       z     vdW  Elec       q    Type
REMARK                         _______ _______ _______ _____ _____    ______ ____
ROOT
ATOM      1  C   UNL     1       2.455   5.212  20.405  0.00  0.00    +0.000 C 
ATOM      2  S   UNL     1       1.367   3.955  20.538  0.00  0.00    +0.000 S 
ENDROOT
BRANCH   1   3
ATOM      3  N   UNL     1       3.796   5.202  20.084  0.00  0.00    +0.000 N 
ATOM      4  H   UNL     1       4.386   5.636  20.774  0.00  0.00    +0.000 HD
BRANCH   3   8
ATOM      5  C   UNL     1       6.021   4.570  16.556  0.00  0.00    +0.000 A 
ATOM      6  C   UNL     1       6.641   4.954  17.748  0.00  0.00    +0.000 A 
ATOM      7  C   UNL     1       5.877   5.109  18.908  0.00  0.00    +0.000 A 
ATOM      8  C   UNL     1       4.484   4.911  18.890  0.00  0.00    +0.000 A 
ATOM      9  C   UNL     1       3.885   4.478  17.714  0.00  0.00    +0.000 A 
ATOM     10  C   UNL     1       4.645   4.313  16.555  0.00  0.00    +0.000 A 
BRANCH   5  11
ATOM     11  C   UNL     1       6.823   4.519  15.307  0.00  0.00    +0.000 C 
ATOM     12  O   UNL     1       7.698   5.313  15.024  0.00  0.00    +0.000 OA
BRANCH  11  13
ATOM     13  O   UNL     1       6.341   3.527  14.521  0.00  0.00    +0.000 OA
BRANCH  13  15
ATOM     14  C   UNL     1       6.680   3.536  12.153  0.00  0.00    +0.000 C 
ATOM     15  C   UNL     1       5.745   3.927  13.283  0.00  0.00    +0.000 C 
ENDBRANCH  13  15
ENDBRANCH  11  13
ENDBRANCH   5  11
ENDBRANCH   3   8
ENDBRANCH   1   3
BRANCH   1  16
ATOM     16  N   UNL     1       1.938   6.466  20.597  0.00  0.00    +0.000 N 
ATOM     17  H   UNL     1       1.546   6.650  21.519  0.00  0.00    +0.000 HD
BRANCH  16  18
ATOM     18  C   UNL     1       2.074   7.615  19.727  0.00  0.00    +0.000 C 
BRANCH  18  19
ATOM     19  C   UNL     1       1.224   8.789  20.127  0.00  0.00    +0.000 A 
ATOM     20  N   UNL     1       0.695   8.810  21.386  0.00  0.00    +0.000 NA
ATOM     21  C   UNL     1       0.026   9.937  21.700  0.00  0.00    +0.000 A 
ATOM     22 CL   UNL     1      -0.595  10.004  23.291  0.00  0.00    +0.000 Cl
ATOM     23  C   UNL     1      -0.127  10.982  20.811  0.00  0.00    +0.000 A 
ATOM     24  N   UNL     1       0.369  10.950  19.545  0.00  0.00    +0.000 NA
ATOM     25  C   UNL     1       1.050   9.839  19.211  0.00  0.00    +0.000 A 
BRANCH  25  26
ATOM     26  N   UNL     1       1.610   9.829  17.936  0.00  0.00    +0.000 N 
ATOM     27  H   UNL     1       0.987   9.290  17.336  0.00  0.00    +0.000 HD
ATOM     28  H   UNL     1       2.551   9.456  17.914  0.00  0.00    +0.000 HD
ENDBRANCH  25  26
ENDBRANCH  18  19
ENDBRANCH  16  18
ENDBRANCH   1  16
TORSDOF 9
ENDMDL
MODEL 2
REMARK VINA RESULT:      -7.1      4.674      8.207
REMARK  Name = 
REMARK  10 active torsions:
REMARK  status: ('A' for Active; 'I' for Inactive)
REMARK    1  A    between atoms: C_1  and  C_2
REMARK    2  A    between atoms: C_2  and  O_3
REMARK    3  A    between atoms: O_3  and  C_4
REMARK    4  A    between atoms: C_4  and  C_6
REMARK    5  A    between atoms: C_9  and  N_10
REMARK    6  A    between atoms: N_10  and  C_11
REMARK    7  A    between atoms: C_11  and  N_13
REMARK    8  A    between atoms: N_13  and  C_14
REMARK    9  A    between atoms: C_14  and  C_15
REMARK   10  A    between atoms: C_21  and  N_22
REMARK                            x       y       z     vdW  Elec       q    Type
REMARK                         _______ _______ _______ _____ _____    ______ ____
ROOT
ATOM      1  C   UNL     1       2.562   5.060  19.346  0.00  0.00    +0.000 C 
ATOM      2  S   UNL     1       1.361   4.121  20.021  0.00  0.00    +0.000 S 
ENDROOT
BRANCH   1   3
ATOM      3  N   UNL     1       2.923   6.367  19.599  0.00  0.00    +0.000 N 
ATOM      4  H   UNL     1       3.731   6.461  20.192  0.00  0.00    +0.000 HD
BRANCH   3   8
ATOM      5  C   UNL     1       0.735   9.944  19.137  0.00  0.00    +0.000 A 
ATOM      6  C   UNL     1       0.884   9.339  20.387  0.00  0.00    +0.000 A 
ATOM      7  C   UNL     1       1.655   8.179  20.510  0.00  0.00    +0.000 A 
ATOM      8  C   UNL     1       2.263   7.593  19.385  0.00  0.00    +0.000 A 
ATOM      9  C   UNL     1       2.153   8.230  18.156  0.00  0.00    +0.000 A 
ATOM     10  C   UNL     1       1.391   9.393  18.030  0.00  0.00    +0.000 A 
BRANCH   5  11
ATOM     11  C   UNL     1      -0.177  11.108  19.000  0.00  0.00    +0.000 C 
ATOM     12  O   UNL     1       0.155  12.262  19.186  0.00  0.00    +0.000 OA
BRANCH  11  13
ATOM     13  O   UNL     1      -1.428  10.653  18.749  0.00  0.00    +0.000 OA
BRANCH  13  15
ATOM     14  C   UNL     1      -2.241   9.795  16.669  0.00  0.00    +0.000 C 
ATOM     15  C   UNL     1      -2.010  11.043  17.502  0.00  0.00    +0.000 C 
ENDBRANCH  13  15
ENDBRANCH  11  13
ENDBRANCH   5  11
ENDBRANCH   3   8
ENDBRANCH   1   3
BRANCH   1  16
ATOM     16  N   UNL     1       3.358   4.432  18.423  0.00  0.00    +0.000 N 
ATOM     17  H   UNL     1       3.013   4.432  17.465  0.00  0.00    +0.000 HD
BRANCH  16  18
ATOM     18  C   UNL     1       4.714   3.962  18.608  0.00  0.00    +0.000 C 
BRANCH  18  19
ATOM     19  C   UNL     1       5.606   4.187  17.419  0.00  0.00    +0.000 A 
ATOM     20  N   UNL     1       5.108   3.931  16.174  0.00  0.00    +0.000 NA
ATOM     21  C   UNL     1       5.934   4.247  15.158  0.00  0.00    +0.000 A 
ATOM     22 CL   UNL     1       5.305   3.986  13.590  0.00  0.00    +0.000 Cl
ATOM     23  C   UNL     1       7.194   4.774  15.360  0.00  0.00    +0.000 A 
ATOM     24  N   UNL     1       7.707   4.999  16.600  0.00  0.00    +0.000 NA
ATOM     25  C   UNL     1       6.897   4.700  17.631  0.00  0.00    +0.000 A 
BRANCH  25  26
ATOM     26  N   UNL     1       7.397   4.984  18.900  0.00  0.00    +0.000 N 
ATOM     27  H   UNL     1       8.220   5.572  18.776  0.00  0.00    +0.000 HD
ATOM     28  H   UNL     1       7.618   4.155  19.438  0.00  0.00    +0.000 HD
ENDBRANCH  25  26
ENDBRANCH  18  19
ENDBRANCH  16  18
ENDBRANCH   1  16
TORSDOF 9
ENDMDL
MODEL 3
REMARK VINA RESULT:      -7.1      1.771      2.385
REMARK  Name = 
REMARK  10 active torsions:
REMARK  status: ('A' for Active; 'I' for Inactive)
REMARK    1  A    between atoms: C_1  and  C_2
REMARK    2  A    between atoms: C_2  and  O_3
REMARK    3  A    between atoms: O_3  and  C_4
REMARK    4  A    between atoms: C_4  and  C_6
REMARK    5  A    between atoms: C_9  and  N_10
REMARK    6  A    between atoms: N_10  and  C_11
REMARK    7  A    between atoms: C_11  and  N_13
REMARK    8  A    between atoms: N_13  and  C_14
REMARK    9  A    between atoms: C_14  and  C_15
REMARK   10  A    between atoms: C_21  and  N_22
REMARK                            x       y       z     vdW  Elec       q    Type
REMARK                         _______ _______ _______ _____ _____    ______ ____
ROOT
ATOM      1  C   UNL     1       2.143   5.888  20.020  0.00  0.00    +0.000 C 
ATOM      2  S   UNL     1       2.133   4.574  21.046  0.00  0.00    +0.000 S 
ENDROOT
BRANCH   1   3
ATOM      3  N   UNL     1       2.202   5.946  18.643  0.00  0.00    +0.000 N 
ATOM      4  H   UNL     1       1.302   5.949  18.194  0.00  0.00    +0.000 HD
BRANCH   3   8
ATOM      5  C   UNL     1       5.444   5.186  16.052  0.00  0.00    +0.000 A 
ATOM      6  C   UNL     1       4.581   4.164  16.456  0.00  0.00    +0.000 A 
ATOM      7  C   UNL     1       3.490   4.462  17.278  0.00  0.00    +0.000 A 
ATOM      8  C   UNL     1       3.262   5.775  17.730  0.00  0.00    +0.000 A 
ATOM      9  C   UNL     1       4.094   6.792  17.281  0.00  0.00    +0.000 A 
ATOM     10  C   UNL     1       5.179   6.501  16.453  0.00  0.00    +0.000 A 
BRANCH   5  11
ATOM     11  C   UNL     1       6.661   4.840  15.274  0.00  0.00    +0.000 C 
ATOM     12  O   UNL     1       7.692   5.481  15.299  0.00  0.00    +0.000 OA
BRANCH  11  13
ATOM     13  O   UNL     1       6.381   3.781  14.477  0.00  0.00    +0.000 OA
BRANCH  13  15
ATOM     14  C   UNL     1       5.486   3.234  12.327  0.00  0.00    +0.000 C 
ATOM     15  C   UNL     1       6.586   3.967  13.074  0.00  0.00    +0.000 C 
ENDBRANCH  13  15
ENDBRANCH  11  13
ENDBRANCH   5  11
ENDBRANCH   3   8
ENDBRANCH   1   3
BRANCH   1  16
ATOM     16  N   UNL     1       2.026   7.113  20.623  0.00  0.00    +0.000 N 
ATOM     17  H   UNL     1       2.794   7.763  20.463  0.00  0.00    +0.000 HD
BRANCH  16  18
ATOM     18  C   UNL     1       0.857   7.663  21.276  0.00  0.00    +0.000 C 
BRANCH  18  19
ATOM     19  C   UNL     1       0.758   9.160  21.193  0.00  0.00    +0.000 A 
ATOM     20  N   UNL     1       1.171   9.777  20.046  0.00  0.00    +0.000 NA
ATOM     21  C   UNL     1       0.962  11.108  20.014  0.00  0.00    +0.000 A 
ATOM     22 CL   UNL     1       1.422  11.888  18.563  0.00  0.00    +0.000 Cl
ATOM     23  C   UNL     1       0.390  11.797  21.064  0.00  0.00    +0.000 A 
ATOM     24  N   UNL     1       0.008  11.192  22.220  0.00  0.00    +0.000 NA
ATOM     25  C   UNL     1       0.198   9.861  22.274  0.00  0.00    +0.000 A 
BRANCH  25  26
ATOM     26  N   UNL     1      -0.247   9.230  23.434  0.00  0.00    +0.000 N 
ATOM     27  H   UNL     1      -1.237   9.446  23.536  0.00  0.00    +0.000 HD
ATOM     28  H   UNL     1       0.273   9.499  24.260  0.00  0.00    +0.000 HD
ENDBRANCH  25  26
ENDBRANCH  18  19
ENDBRANCH  16  18
ENDBRANCH   1  16
TORSDOF 9
ENDMDL
MODEL 4
REMARK VINA RESULT:      -7.0      4.554      7.289
REMARK  Name = 
REMARK  10 active torsions:
REMARK  status: ('A' for Active; 'I' for Inactive)
REMARK    1  A    between atoms: C_1  and  C_2
REMARK    2  A    between atoms: C_2  and  O_3
REMARK    3  A    between atoms: O_3  and  C_4
REMARK    4  A    between atoms: C_4  and  C_6
REMARK    5  A    between atoms: C_9  and  N_10
REMARK    6  A    between atoms: N_10  and  C_11
REMARK    7  A    between atoms: C_11  and  N_13
REMARK    8  A    between atoms: N_13  and  C_14
REMARK    9  A    between atoms: C_14  and  C_15
REMARK   10  A    between atoms: C_21  and  N_22
REMARK                            x       y       z     vdW  Elec       q    Type
REMARK                         _______ _______ _______ _____ _____    ______ ____
ROOT
ATOM      1  C   UNL     1       3.782   3.202  18.671  0.00  0.00    +0.000 C 
ATOM      2  S   UNL     1       4.153   2.375  20.071  0.00  0.00    +0.000 S 
ENDROOT
BRANCH   1   3
ATOM      3  N   UNL     1       2.764   4.093  18.404  0.00  0.00    +0.000 N 
ATOM      4  H   UNL     1       2.193   3.840  17.615  0.00  0.00    +0.000 HD
BRANCH   3   8
ATOM      5  C   UNL     1       1.718   7.892  19.912  0.00  0.00    +0.000 A 
ATOM      6  C   UNL     1       1.569   6.737  20.684  0.00  0.00    +0.000 A 
ATOM      7  C   UNL     1       1.970   5.501  20.167  0.00  0.00    +0.000 A 
ATOM      8  C   UNL     1       2.497   5.397  18.867  0.00  0.00    +0.000 A 
ATOM      9  C   UNL     1       2.690   6.556  18.128  0.00  0.00    +0.000 A 
ATOM     10  C   UNL     1       2.299   7.794  18.642  0.00  0.00    +0.000 A 
BRANCH   5  11
ATOM     11  C   UNL     1       1.185   9.179  20.426  0.00  0.00    +0.000 C 
ATOM     12  O   UNL     1       0.677   9.321  21.520  0.00  0.00    +0.000 OA
BRANCH  11  13
ATOM     13  O   UNL     1       1.266  10.107  19.442  0.00  0.00    +0.000 OA
BRANCH  13  15
ATOM     14  C   UNL     1      -0.851  10.218  18.334  0.00  0.00    +0.000 C 
ATOM     15  C   UNL     1       0.118  10.939  19.253  0.00  0.00    +0.000 C 
ENDBRANCH  13  15
ENDBRANCH  11  13
ENDBRANCH   5  11
ENDBRANCH   3   8
ENDBRANCH   1   3
BRANCH   1  16
ATOM     16  N   UNL     1       4.644   3.012  17.623  0.00  0.00    +0.000 N 
ATOM     17  H   UNL     1       4.892   2.045  17.421  0.00  0.00    +0.000 HD
BRANCH  16  18
ATOM     18  C   UNL     1       5.070   3.992  16.647  0.00  0.00    +0.000 C 
BRANCH  18  19
ATOM     19  C   UNL     1       5.963   5.063  17.207  0.00  0.00    +0.000 A 
ATOM     20  N   UNL     1       6.702   4.778  18.320  0.00  0.00    +0.000 NA
ATOM     21  C   UNL     1       7.547   5.755  18.704  0.00  0.00    +0.000 A 
ATOM     22 CL   UNL     1       8.520   5.394  20.063  0.00  0.00    +0.000 Cl
ATOM     23  C   UNL     1       7.647   6.958  18.033  0.00  0.00    +0.000 A 
ATOM     24  N   UNL     1       6.889   7.258  16.945  0.00  0.00    +0.000 NA
ATOM     25  C   UNL     1       6.044   6.295  16.536  0.00  0.00    +0.000 A 
BRANCH  25  26
ATOM     26  N   UNL     1       5.309   6.577  15.387  0.00  0.00    +0.000 N 
ATOM     27  H   UNL     1       5.554   5.875  14.690  0.00  0.00    +0.000 HD
ATOM     28  H   UNL     1       5.465   7.513  15.032  0.00  0.00    +0.000 HD
ENDBRANCH  25  26
ENDBRANCH  18  19
ENDBRANCH  16  18
ENDBRANCH   1  16
TORSDOF 9
ENDMDL
MODEL 5
REMARK VINA RESULT:      -7.0      4.457      8.041
REMARK  Name = 
REMARK  10 active torsions:
REMARK  status: ('A' for Active; 'I' for Inactive)
REMARK    1  A    between atoms: C_1  and  C_2
REMARK    2  A    between atoms: C_2  and  O_3
REMARK    3  A    between atoms: O_3  and  C_4
REMARK    4  A    between atoms: C_4  and  C_6
REMARK    5  A    between atoms: C_9  and  N_10
REMARK    6  A    between atoms: N_10  and  C_11
REMARK    7  A    between atoms: C_11  and  N_13
REMARK    8  A    between atoms: N_13  and  C_14
REMARK    9  A    between atoms: C_14  and  C_15
REMARK   10  A    between atoms: C_21  and  N_22
REMARK                            x       y       z     vdW  Elec       q    Type
REMARK                         _______ _______ _______ _____ _____    ______ ____
ROOT
ATOM      1  C   UNL     1       2.547   4.583  19.713  0.00  0.00    +0.000 C 
ATOM      2  S   UNL     1       1.275   3.530  19.942  0.00  0.00    +0.000 S 
ENDROOT
BRANCH   1   3
ATOM      3  N   UNL     1       2.750   5.857  20.201  0.00  0.00    +0.000 N 
ATOM      4  H   UNL     1       3.350   5.896  21.008  0.00  0.00    +0.000 HD
BRANCH   3   8
ATOM      5  C   UNL     1       1.081   9.617  19.267  0.00  0.00    +0.000 A 
ATOM      6  C   UNL     1       1.756   8.862  18.305  0.00  0.00    +0.000 A 
ATOM      7  C   UNL     1       2.255   7.599  18.639  0.00  0.00    +0.000 A 
ATOM      8  C   UNL     1       2.114   7.087  19.941  0.00  0.00    +0.000 A 
ATOM      9  C   UNL     1       1.397   7.822  20.876  0.00  0.00    +0.000 A 
ATOM     10  C   UNL     1       0.889   9.079  20.545  0.00  0.00    +0.000 A 
BRANCH   5  11
ATOM     11  C   UNL     1       0.656  11.001  18.934  0.00  0.00    +0.000 C 
ATOM     12  O   UNL     1       1.123  12.000  19.442  0.00  0.00    +0.000 OA
BRANCH  11  13
ATOM     13  O   UNL     1      -0.387  10.939  18.072  0.00  0.00    +0.000 OA
BRANCH  13  15
ATOM     14  C   UNL     1      -2.491   9.943  17.521  0.00  0.00    +0.000 C 
ATOM     15  C   UNL     1      -1.650  10.559  18.625  0.00  0.00    +0.000 C 
ENDBRANCH  13  15
ENDBRANCH  11  13
ENDBRANCH   5  11
ENDBRANCH   3   8
ENDBRANCH   1   3
BRANCH   1  16
ATOM     16  N   UNL     1       3.586   4.104  18.958  0.00  0.00    +0.000 N 
ATOM     17  H   UNL     1       3.326   3.582  18.124  0.00  0.00    +0.000 HD
BRANCH  16  18
ATOM     18  C   UNL     1       4.990   4.431  19.090  0.00  0.00    +0.000 C 
BRANCH  18  19
ATOM     19  C   UNL     1       5.746   4.411  17.791  0.00  0.00    +0.000 A 
ATOM     20  N   UNL     1       5.047   4.213  16.634  0.00  0.00    +0.000 NA
ATOM     21  C   UNL     1       5.780   4.304  15.507  0.00  0.00    +0.000 A 
ATOM     22 CL   UNL     1       4.911   4.115  14.047  0.00  0.00    +0.000 Cl
ATOM     23  C   UNL     1       7.137   4.561  15.521  0.00  0.00    +0.000 A 
ATOM     24  N   UNL     1       7.842   4.725  16.672  0.00  0.00    +0.000 NA
ATOM     25  C   UNL     1       7.130   4.649  17.811  0.00  0.00    +0.000 A 
BRANCH  25  26
ATOM     26  N   UNL     1       7.840   4.875  18.988  0.00  0.00    +0.000 N 
ATOM     27  H   UNL     1       8.124   3.966  19.351  0.00  0.00    +0.000 HD
ATOM     28  H   UNL     1       7.313   5.395  19.680  0.00  0.00    +0.000 HD
ENDBRANCH  25  26
ENDBRANCH  18  19
ENDBRANCH  16  18
ENDBRANCH   1  16
TORSDOF 9
ENDMDL
MODEL 6
REMARK VINA RESULT:      -7.0      4.408      7.351
REMARK  Name = 
REMARK  10 active torsions:
REMARK  status: ('A' for Active; 'I' for Inactive)
REMARK    1  A    between atoms: C_1  and  C_2
REMARK    2  A    between atoms: C_2  and  O_3
REMARK    3  A    between atoms: O_3  and  C_4
REMARK    4  A    between atoms: C_4  and  C_6
REMARK    5  A    between atoms: C_9  and  N_10
REMARK    6  A    between atoms: N_10  and  C_11
REMARK    7  A    between atoms: C_11  and  N_13
REMARK    8  A    between atoms: N_13  and  C_14
REMARK    9  A    between atoms: C_14  and  C_15
REMARK   10  A    between atoms: C_21  and  N_22
REMARK                            x       y       z     vdW  Elec       q    Type
REMARK                         _______ _______ _______ _____ _____    ______ ____
ROOT
ATOM      1  C   UNL     1       2.486   4.451  20.266  0.00  0.00    +0.000 C 
ATOM      2  S   UNL     1       0.920   3.888  20.162  0.00  0.00    +0.000 S 
ENDROOT
BRANCH   1   3
ATOM      3  N   UNL     1       2.973   5.741  20.270  0.00  0.00    +0.000 N 
ATOM      4  H   UNL     1       3.794   5.867  20.838  0.00  0.00    +0.000 HD
BRANCH   3   8
ATOM      5  C   UNL     1       1.107   9.337  19.093  0.00  0.00    +0.000 A 
ATOM      6  C   UNL     1       1.038   8.879  20.411  0.00  0.00    +0.000 A 
ATOM      7  C   UNL     1       1.708   7.707  20.775  0.00  0.00    +0.000 A 
ATOM      8  C   UNL     1       2.430   6.962  19.825  0.00  0.00    +0.000 A 
ATOM      9  C   UNL     1       2.537   7.452  18.530  0.00  0.00    +0.000 A 
ATOM     10  C   UNL     1       1.877   8.627  18.164  0.00  0.00    +0.000 A 
BRANCH   5  11
ATOM     11  C   UNL     1       0.300  10.518  18.694  0.00  0.00    +0.000 C 
ATOM     12  O   UNL     1       0.748  11.639  18.563  0.00  0.00    +0.000 OA
BRANCH  11  13
ATOM     13  O   UNL     1      -1.001  10.149  18.615  0.00  0.00    +0.000 OA
BRANCH  13  15
ATOM     14  C   UNL     1      -2.333   9.958  16.637  0.00  0.00    +0.000 C 
ATOM     15  C   UNL     1      -1.823  10.898  17.715  0.00  0.00    +0.000 C 
ENDBRANCH  13  15
ENDBRANCH  11  13
ENDBRANCH   5  11
ENDBRANCH   3   8
ENDBRANCH   1   3
BRANCH   1  16
ATOM     16  N   UNL     1       3.453   3.491  20.418  0.00  0.00    +0.000 N 
ATOM     17  H   UNL     1       3.410   2.949  21.279  0.00  0.00    +0.000 HD
BRANCH  16  18
ATOM     18  C   UNL     1       4.386   3.017  19.418  0.00  0.00    +0.000 C 
BRANCH  18  19
ATOM     19  C   UNL     1       4.995   4.110  18.584  0.00  0.00    +0.000 A 
ATOM     20  N   UNL     1       6.073   4.784  19.083  0.00  0.00    +0.000 NA
ATOM     21  C   UNL     1       6.619   5.681  18.238  0.00  0.00    +0.000 A 
ATOM     22 CL   UNL     1       8.003   6.495  18.825  0.00  0.00    +0.000 Cl
ATOM     23  C   UNL     1       6.117   5.913  16.973  0.00  0.00    +0.000 A 
ATOM     24  N   UNL     1       5.024   5.267  16.486  0.00  0.00    +0.000 NA
ATOM     25  C   UNL     1       4.466   4.359  17.307  0.00  0.00    +0.000 A 
BRANCH  25  26
ATOM     26  N   UNL     1       3.382   3.655  16.788  0.00  0.00    +0.000 N 
ATOM     27  H   UNL     1       3.293   2.795  17.327  0.00  0.00    +0.000 HD
ATOM     28  H   UNL     1       3.469   3.458  15.798  0.00  0.00    +0.000 HD
ENDBRANCH  25  26
ENDBRANCH  18  19
ENDBRANCH  16  18
ENDBRANCH   1  16
TORSDOF 9
ENDMDL
MODEL 7
REMARK VINA RESULT:      -6.9      4.477      7.730
REMARK  Name = 
REMARK  10 active torsions:
REMARK  status: ('A' for Active; 'I' for Inactive)
REMARK    1  A    between atoms: C_1  and  C_2
REMARK    2  A    between atoms: C_2  and  O_3
REMARK    3  A    between atoms: O_3  and  C_4
REMARK    4  A    between atoms: C_4  and  C_6
REMARK    5  A    between atoms: C_9  and  N_10
REMARK    6  A    between atoms: N_10  and  C_11
REMARK    7  A    between atoms: C_11  and  N_13
REMARK    8  A    between atoms: N_13  and  C_14
REMARK    9  A    between atoms: C_14  and  C_15
REMARK   10  A    between atoms: C_21  and  N_22
REMARK                            x       y       z     vdW  Elec       q    Type
REMARK                         _______ _______ _______ _____ _____    ______ ____
ROOT
ATOM      1  C   UNL     1       2.143   5.165  19.886  0.00  0.00    +0.000 C 
ATOM      2  S   UNL     1       1.808   3.976  21.006  0.00  0.00    +0.000 S 
ENDROOT
BRANCH   1   3
ATOM      3  N   UNL     1       2.594   6.456  20.062  0.00  0.00    +0.000 N 
ATOM      4  H   UNL     1       3.437   6.525  20.607  0.00  0.00    +0.000 HD
BRANCH   3   8
ATOM      5  C   UNL     1       0.574  10.119  19.514  0.00  0.00    +0.000 A 
ATOM      6  C   UNL     1       0.564   9.460  20.746  0.00  0.00    +0.000 A 
ATOM      7  C   UNL     1       1.284   8.272  20.903  0.00  0.00    +0.000 A 
ATOM      8  C   UNL     1       1.997   7.711  19.829  0.00  0.00    +0.000 A 
ATOM      9  C   UNL     1       2.045   8.400  18.624  0.00  0.00    +0.000 A 
ATOM     10  C   UNL     1       1.335   9.591  18.465  0.00  0.00    +0.000 A 
BRANCH   5  11
ATOM     11  C   UNL     1      -0.283  11.317  19.327  0.00  0.00    +0.000 C 
ATOM     12  O   UNL     1      -0.452  12.175  20.170  0.00  0.00    +0.000 OA
BRANCH  11  13
ATOM     13  O   UNL     1      -0.907  11.222  18.128  0.00  0.00    +0.000 OA
BRANCH  13  15
ATOM     14  C   UNL     1      -2.358   9.877  16.783  0.00  0.00    +0.000 C 
ATOM     15  C   UNL     1      -2.181  10.572  18.121  0.00  0.00    +0.000 C 
ENDBRANCH  13  15
ENDBRANCH  11  13
ENDBRANCH   5  11
ENDBRANCH   3   8
ENDBRANCH   1   3
BRANCH   1  16
ATOM     16  N   UNL     1       1.996   4.801  18.573  0.00  0.00    +0.000 N 
ATOM     17  H   UNL     1       1.153   5.136  18.110  0.00  0.00    +0.000 HD
BRANCH  16  18
ATOM     18  C   UNL     1       2.987   4.186  17.716  0.00  0.00    +0.000 C 
BRANCH  18  19
ATOM     19  C   UNL     1       4.385   4.691  17.938  0.00  0.00    +0.000 A 
ATOM     20  N   UNL     1       4.729   5.907  17.418  0.00  0.00    +0.000 NA
ATOM     21  C   UNL     1       5.966   6.331  17.741  0.00  0.00    +0.000 A 
ATOM     22 CL   UNL     1       6.393   7.875  17.145  0.00  0.00    +0.000 Cl
ATOM     23  C   UNL     1       6.827   5.587  18.523  0.00  0.00    +0.000 A 
ATOM     24  N   UNL     1       6.501   4.361  19.014  0.00  0.00    +0.000 NA
ATOM     25  C   UNL     1       5.266   3.920  18.714  0.00  0.00    +0.000 A 
BRANCH  25  26
ATOM     26  N   UNL     1       4.909   2.691  19.265  0.00  0.00    +0.000 N 
ATOM     27  H   UNL     1       4.329   2.209  18.580  0.00  0.00    +0.000 HD
ATOM     28  H   UNL     1       4.430   2.775  20.154  0.00  0.00    +0.000 HD
ENDBRANCH  25  26
ENDBRANCH  18  19
ENDBRANCH  16  18
ENDBRANCH   1  16
TORSDOF 9
ENDMDL
MODEL 8
REMARK VINA RESULT:      -6.8      1.060      1.236
REMARK  Name = 
REMARK  10 active torsions:
REMARK  status: ('A' for Active; 'I' for Inactive)
REMARK    1  A    between atoms: C_1  and  C_2
REMARK    2  A    between atoms: C_2  and  O_3
REMARK    3  A    between atoms: O_3  and  C_4
REMARK    4  A    between atoms: C_4  and  C_6
REMARK    5  A    between atoms: C_9  and  N_10
REMARK    6  A    between atoms: N_10  and  C_11
REMARK    7  A    between atoms: C_11  and  N_13
REMARK    8  A    between atoms: N_13  and  C_14
REMARK    9  A    between atoms: C_14  and  C_15
REMARK   10  A    between atoms: C_21  and  N_22
REMARK                            x       y       z     vdW  Elec       q    Type
REMARK                         _______ _______ _______ _____ _____    ______ ____
ROOT
ATOM      1  C   UNL     1       1.975   5.409  19.885  0.00  0.00    +0.000 C 
ATOM      2  S   UNL     1       1.596   4.254  21.027  0.00  0.00    +0.000 S 
ENDROOT
BRANCH   1   3
ATOM      3  N   UNL     1       2.107   5.302  18.516  0.00  0.00    +0.000 N 
ATOM      4  H   UNL     1       1.250   5.079  18.038  0.00  0.00    +0.000 HD
BRANCH   3   8
ATOM      5  C   UNL     1       5.577   4.832  16.164  0.00  0.00    +0.000 A 
ATOM      6  C   UNL     1       4.861   3.728  16.631  0.00  0.00    +0.000 A 
ATOM      7  C   UNL     1       3.689   3.923  17.368  0.00  0.00    +0.000 A 
ATOM      8  C   UNL     1       3.233   5.218  17.674  0.00  0.00    +0.000 A 
ATOM      9  C   UNL     1       3.923   6.309  17.162  0.00  0.00    +0.000 A 
ATOM     10  C   UNL     1       5.089   6.119  16.417  0.00  0.00    +0.000 A 
BRANCH   5  11
ATOM     11  C   UNL     1       6.878   4.614  15.481  0.00  0.00    +0.000 C 
ATOM     12  O   UNL     1       7.928   4.415  16.058  0.00  0.00    +0.000 OA
BRANCH  11  13
ATOM     13  O   UNL     1       6.703   4.784  14.149  0.00  0.00    +0.000 OA
BRANCH  13  15
ATOM     14  C   UNL     1       6.730   3.540  12.106  0.00  0.00    +0.000 C 
ATOM     15  C   UNL     1       6.049   3.721  13.450  0.00  0.00    +0.000 C 
ENDBRANCH  13  15
ENDBRANCH  11  13
ENDBRANCH   5  11
ENDBRANCH   3   8
ENDBRANCH   1   3
BRANCH   1  16
ATOM     16  N   UNL     1       2.139   6.684  20.362  0.00  0.00    +0.000 N 
ATOM     17  H   UNL     1       2.421   6.761  21.337  0.00  0.00    +0.000 HD
BRANCH  16  18
ATOM     18  C   UNL     1       2.169   7.911  19.595  0.00  0.00    +0.000 C 
BRANCH  18  19
ATOM     19  C   UNL     1       1.130   8.915  20.010  0.00  0.00    +0.000 A 
ATOM     20  N   UNL     1       0.669   8.882  21.295  0.00  0.00    +0.000 NA
ATOM     21  C   UNL     1      -0.187   9.872  21.615  0.00  0.00    +0.000 A 
ATOM     22 CL   UNL     1      -0.730   9.878  23.236  0.00  0.00    +0.000 Cl
ATOM     23  C   UNL     1      -0.582  10.836  20.709  0.00  0.00    +0.000 A 
ATOM     24  N   UNL     1      -0.152  10.852  19.419  0.00  0.00    +0.000 NA
ATOM     25  C   UNL     1       0.712   9.879  19.077  0.00  0.00    +0.000 A 
BRANCH  25  26
ATOM     26  N   UNL     1       1.200   9.929  17.773  0.00  0.00    +0.000 N 
ATOM     27  H   UNL     1       0.396   9.907  17.148  0.00  0.00    +0.000 HD
ATOM     28  H   UNL     1       1.849   9.181  17.560  0.00  0.00    +0.000 HD
ENDBRANCH  25  26
ENDBRANCH  18  19
ENDBRANCH  16  18
ENDBRANCH   1  16
TORSDOF 9
ENDMDL
MODEL 9
REMARK VINA RESULT:      -6.8      4.808      8.647
REMARK  Name = 
REMARK  10 active torsions:
REMARK  status: ('A' for Active; 'I' for Inactive)
REMARK    1  A    between atoms: C_1  and  C_2
REMARK    2  A    between atoms: C_2  and  O_3
REMARK    3  A    between atoms: O_3  and  C_4
REMARK    4  A    between atoms: C_4  and  C_6
REMARK    5  A    between atoms: C_9  and  N_10
REMARK    6  A    between atoms: N_10  and  C_11
REMARK    7  A    between atoms: C_11  and  N_13
REMARK    8  A    between atoms: N_13  and  C_14
REMARK    9  A    between atoms: C_14  and  C_15
REMARK   10  A    between atoms: C_21  and  N_22
REMARK                            x       y       z     vdW  Elec       q    Type
REMARK                         _______ _______ _______ _____ _____    ______ ____
ROOT
ATOM      1  C   UNL     1       3.171   5.309  18.179  0.00  0.00    +0.000 C 
ATOM      2  S   UNL     1       2.032   4.173  17.742  0.00  0.00    +0.000 S 
ENDROOT
BRANCH   1   3
ATOM      3  N   UNL     1       3.216   6.666  17.940  0.00  0.00    +0.000 N 
ATOM      4  H   UNL     1       4.035   6.967  17.439  0.00  0.00    +0.000 HD
BRANCH   3   8
ATOM      5  C   UNL     1       0.797   9.701  19.593  0.00  0.00    +0.000 A 
ATOM      6  C   UNL     1       1.192   8.595  20.349  0.00  0.00    +0.000 A 
ATOM      7  C   UNL     1       2.033   7.633  19.781  0.00  0.00    +0.000 A 
ATOM      8  C   UNL     1       2.465   7.745  18.447  0.00  0.00    +0.000 A 
ATOM      9  C   UNL     1       2.110   8.874  17.722  0.00  0.00    +0.000 A 
ATOM     10  C   UNL     1       1.278   9.843  18.287  0.00  0.00    +0.000 A 
BRANCH   5  11
ATOM     11  C   UNL     1      -0.185  10.656  20.168  0.00  0.00    +0.000 C 
ATOM     12  O   UNL     1      -1.225  10.976  19.627  0.00  0.00    +0.000 OA
BRANCH  11  13
ATOM     13  O   UNL     1       0.326  11.169  21.313  0.00  0.00    +0.000 OA
BRANCH  13  15
ATOM     14  C   UNL     1      -1.122  10.718  23.163  0.00  0.00    +0.000 C 
ATOM     15  C   UNL     1      -0.605  11.781  22.210  0.00  0.00    +0.000 C 
ENDBRANCH  13  15
ENDBRANCH  11  13
ENDBRANCH   5  11
ENDBRANCH   3   8
ENDBRANCH   1   3
BRANCH   1  16
ATOM     16  N   UNL     1       4.213   4.843  18.938  0.00  0.00    +0.000 N 
ATOM     17  H   UNL     1       4.137   4.998  19.942  0.00  0.00    +0.000 HD
BRANCH  16  18
ATOM     18  C   UNL     1       5.293   3.979  18.511  0.00  0.00    +0.000 C 
BRANCH  18  19
ATOM     19  C   UNL     1       5.949   4.409  17.229  0.00  0.00    +0.000 A 
ATOM     20  N   UNL     1       5.548   3.819  16.063  0.00  0.00    +0.000 NA
ATOM     21  C   UNL     1       6.114   4.324  14.950  0.00  0.00    +0.000 A 
ATOM     22 CL   UNL     1       5.581   3.636  13.478  0.00  0.00    +0.000 Cl
ATOM     23  C   UNL     1       7.040   5.348  14.985  0.00  0.00    +0.000 A 
ATOM     24  N   UNL     1       7.466   5.914  16.145  0.00  0.00    +0.000 NA
ATOM     25  C   UNL     1       6.909   5.433  17.271  0.00  0.00    +0.000 A 
BRANCH  25  26
ATOM     26  N   UNL     1       7.300   6.052  18.456  0.00  0.00    +0.000 N 
ATOM     27  H   UNL     1       6.516   6.618  18.776  0.00  0.00    +0.000 HD
ATOM     28  H   UNL     1       8.139   6.612  18.358  0.00  0.00    +0.000 HD
ENDBRANCH  25  26
ENDBRANCH  18  19
ENDBRANCH  16  18
ENDBRANCH   1  16
TORSDOF 9
ENDMDL
