MODEL 1
REMARK VINA RESULT:      -8.9      0.000      0.000
REMARK  Name = 
REMARK  4 active torsions:
REMARK  status: ('A' for Active; 'I' for Inactive)
REMARK    1  A    between atoms: S_2  and  C_4
REMARK    2  A    between atoms: S_2  and  C_19
REMARK    3  A    between atoms: C_7  and  C_8
REMARK    4  A    between atoms: C_9  and  C_10
REMARK                            x       y       z     vdW  Elec       q    Type
REMARK                         _______ _______ _______ _____ _____    ______ ____
ROOT
ATOM      1  C   UNL     1       5.899   5.376  18.149  0.00  0.00    +0.000 A 
ATOM      2  C   UNL     1       7.038   5.546  18.933  0.00  0.00    +0.000 A 
ATOM      3  C   UNL     1       7.838   6.673  18.732  0.00  0.00    +0.000 A 
ATOM      4  C   UNL     1       7.474   7.593  17.751  0.00  0.00    +0.000 A 
ATOM      5  N   UNL     1       6.369   7.425  16.981  0.00  0.00    +0.000 NA
ATOM      6  C   UNL     1       5.609   6.321  17.186  0.00  0.00    +0.000 A 
ENDROOT
BRANCH   1   8
ATOM      7  O   UNL     1       4.461   3.571  17.005  0.00  0.00    +0.000 OA
ATOM      8  S   UNL     1       4.852   3.969  18.345  0.00  0.00    +0.000 S 
ATOM      9  O   UNL     1       5.541   3.037  19.219  0.00  0.00    +0.000 OA
BRANCH   8  10
ATOM     10  C   UNL     1       3.371   4.439  19.217  0.00  0.00    +0.000 A 
ATOM     11  C   UNL     1       2.390   3.481  19.491  0.00  0.00    +0.000 A 
ATOM     12  C   UNL     1       1.216   3.866  20.150  0.00  0.00    +0.000 A 
ATOM     13  C   UNL     1       1.036   5.193  20.547  0.00  0.00    +0.000 A 
ATOM     14  C   UNL     1       2.017   6.134  20.250  0.00  0.00    +0.000 A 
ATOM     15  F   UNL     1       1.842   7.405  20.630  0.00  0.00    +0.000 F 
ATOM     16  C   UNL     1       3.175   5.779  19.566  0.00  0.00    +0.000 A 
ENDBRANCH   8  10
ENDBRANCH   1   8
BRANCH   4  17
ATOM     17  C   UNL     1       8.289   8.798  17.520  0.00  0.00    +0.000 C 
ATOM     18  C   UNL     1       8.612   9.672  18.490  0.00  0.00    +0.000 C 
BRANCH  18  19
ATOM     19  C   UNL     1       9.421  10.887  18.310  0.00  0.00    +0.000 A 
ATOM     20  C   UNL     1      10.804  10.913  18.543  0.00  0.00    +0.000 A 
ATOM     21  C   UNL     1      11.539  12.079  18.308  0.00  0.00    +0.000 A 
ATOM     22  C   UNL     1      10.895  13.213  17.831  0.00  0.00    +0.000 A 
ATOM     23  F   UNL     1      11.604  14.324  17.596  0.00  0.00    +0.000 F 
ATOM     24  C   UNL     1       9.529  13.207  17.582  0.00  0.00    +0.000 A 
ATOM     25  C   UNL     1       8.795  12.042  17.817  0.00  0.00    +0.000 A 
ENDBRANCH  18  19
ENDBRANCH   4  17
TORSDOF 4
ENDMDL
MODEL 2
REMARK VINA RESULT:      -8.9      0.385      1.002
REMARK  Name = 
REMARK  4 active torsions:
REMARK  status: ('A' for Active; 'I' for Inactive)
REMARK    1  A    between atoms: S_2  and  C_4
REMARK    2  A    between atoms: S_2  and  C_19
REMARK    3  A    between atoms: C_7  and  C_8
REMARK    4  A    between atoms: C_9  and  C_10
REMARK                            x       y       z     vdW  Elec       q    Type
REMARK                         _______ _______ _______ _____ _____    ______ ____
ROOT
ATOM      1  C   UNL     1       5.996   5.515  18.132  0.00  0.00    +0.000 A 
ATOM      2  C   UNL     1       7.135   5.644  18.924  0.00  0.00    +0.000 A 
ATOM      3  C   UNL     1       7.943   6.773  18.771  0.00  0.00    +0.000 A 
ATOM      4  C   UNL     1       7.587   7.736  17.829  0.00  0.00    +0.000 A 
ATOM      5  N   UNL     1       6.482   7.608  17.051  0.00  0.00    +0.000 NA
ATOM      6  C   UNL     1       5.714   6.502  17.210  0.00  0.00    +0.000 A 
ENDROOT
BRANCH   1   8
ATOM      7  O   UNL     1       4.541   3.775  16.912  0.00  0.00    +0.000 OA
ATOM      8  S   UNL     1       4.939   4.110  18.268  0.00  0.00    +0.000 S 
ATOM      9  O   UNL     1       5.623   3.134  19.097  0.00  0.00    +0.000 OA
BRANCH   8  10
ATOM     10  C   UNL     1       3.464   4.552  19.164  0.00  0.00    +0.000 A 
ATOM     11  C   UNL     1       2.523   3.568  19.488  0.00  0.00    +0.000 A 
ATOM     12  C   UNL     1       1.354   3.929  20.166  0.00  0.00    +0.000 A 
ATOM     13  C   UNL     1       1.137   5.259  20.533  0.00  0.00    +0.000 A 
ATOM     14  C   UNL     1       2.076   6.225  20.187  0.00  0.00    +0.000 A 
ATOM     15  F   UNL     1       1.867   7.499  20.540  0.00  0.00    +0.000 F 
ATOM     16  C   UNL     1       3.229   5.893  19.484  0.00  0.00    +0.000 A 
ENDBRANCH   8  10
ENDBRANCH   1   8
BRANCH   4  17
ATOM     17  C   UNL     1       8.411   8.943  17.650  0.00  0.00    +0.000 C 
ATOM     18  C   UNL     1       8.741   9.772  18.656  0.00  0.00    +0.000 C 
BRANCH  18  19
ATOM     19  C   UNL     1       9.559  10.988  18.528  0.00  0.00    +0.000 A 
ATOM     20  C   UNL     1       9.184  12.067  17.713  0.00  0.00    +0.000 A 
ATOM     21  C   UNL     1       9.968  13.223  17.664  0.00  0.00    +0.000 A 
ATOM     22  C   UNL     1      11.121  13.305  18.435  0.00  0.00    +0.000 A 
ATOM     23  F   UNL     1      11.864  14.418  18.394  0.00  0.00    +0.000 F 
ATOM     24  C   UNL     1      11.506  12.254  19.257  0.00  0.00    +0.000 A 
ATOM     25  C   UNL     1      10.722  11.099  19.306  0.00  0.00    +0.000 A 
ENDBRANCH  18  19
ENDBRANCH   4  17
TORSDOF 4
ENDMDL
MODEL 3
REMARK VINA RESULT:      -8.7      0.953      1.641
REMARK  Name = 
REMARK  4 active torsions:
REMARK  status: ('A' for Active; 'I' for Inactive)
REMARK    1  A    between atoms: S_2  and  C_4
REMARK    2  A    between atoms: S_2  and  C_19
REMARK    3  A    between atoms: C_7  and  C_8
REMARK    4  A    between atoms: C_9  and  C_10
REMARK                            x       y       z     vdW  Elec       q    Type
REMARK                         _______ _______ _______ _____ _____    ______ ____
ROOT
ATOM      1  C   UNL     1       6.038   5.560  18.171  0.00  0.00    +0.000 A 
ATOM      2  C   UNL     1       7.185   5.676  18.953  0.00  0.00    +0.000 A 
ATOM      3  C   UNL     1       8.026   6.775  18.765  0.00  0.00    +0.000 A 
ATOM      4  C   UNL     1       7.694   7.722  17.799  0.00  0.00    +0.000 A 
ATOM      5  N   UNL     1       6.582   7.607  17.030  0.00  0.00    +0.000 NA
ATOM      6  C   UNL     1       5.781   6.529  17.223  0.00  0.00    +0.000 A 
ENDROOT
BRANCH   1   8
ATOM      7  O   UNL     1       4.501   3.852  17.010  0.00  0.00    +0.000 OA
ATOM      8  S   UNL     1       4.940   4.192  18.352  0.00  0.00    +0.000 S 
ATOM      9  O   UNL     1       5.610   3.206  19.179  0.00  0.00    +0.000 OA
BRANCH   8  10
ATOM     10  C   UNL     1       3.500   4.694  19.273  0.00  0.00    +0.000 A 
ATOM     11  C   UNL     1       3.167   6.050  19.361  0.00  0.00    +0.000 A 
ATOM     12  C   UNL     1       2.051   6.438  20.112  0.00  0.00    +0.000 A 
ATOM     13  C   UNL     1       1.265   5.477  20.751  0.00  0.00    +0.000 A 
ATOM     14  C   UNL     1       1.623   4.134  20.665  0.00  0.00    +0.000 A 
ATOM     15  F   UNL     1       0.869   3.215  21.279  0.00  0.00    +0.000 F 
ATOM     16  C   UNL     1       2.748   3.731  19.953  0.00  0.00    +0.000 A 
ENDBRANCH   8  10
ENDBRANCH   1   8
BRANCH   4  17
ATOM     17  C   UNL     1       8.554   8.898  17.582  0.00  0.00    +0.000 C 
ATOM     18  C   UNL     1       8.393  10.064  18.234  0.00  0.00    +0.000 C 
BRANCH  18  19
ATOM     19  C   UNL     1       9.223  11.265  18.052  0.00  0.00    +0.000 A 
ATOM     20  C   UNL     1       8.675  12.553  17.955  0.00  0.00    +0.000 A 
ATOM     21  C   UNL     1       9.507  13.669  17.835  0.00  0.00    +0.000 A 
ATOM     22  C   UNL     1      10.886  13.500  17.822  0.00  0.00    +0.000 A 
ATOM     23  F   UNL     1      11.680  14.573  17.718  0.00  0.00    +0.000 F 
ATOM     24  C   UNL     1      11.452  12.236  17.928  0.00  0.00    +0.000 A 
ATOM     25  C   UNL     1      10.619  11.121  18.048  0.00  0.00    +0.000 A 
ENDBRANCH  18  19
ENDBRANCH   4  17
TORSDOF 4
ENDMDL
MODEL 4
REMARK VINA RESULT:      -8.7      1.528      1.790
REMARK  Name = 
REMARK  4 active torsions:
REMARK  status: ('A' for Active; 'I' for Inactive)
REMARK    1  A    between atoms: S_2  and  C_4
REMARK    2  A    between atoms: S_2  and  C_19
REMARK    3  A    between atoms: C_7  and  C_8
REMARK    4  A    between atoms: C_9  and  C_10
REMARK                            x       y       z     vdW  Elec       q    Type
REMARK                         _______ _______ _______ _____ _____    ______ ____
ROOT
ATOM      1  C   UNL     1       6.167   5.441  17.060  0.00  0.00    +0.000 A 
ATOM      2  C   UNL     1       6.978   5.108  18.142  0.00  0.00    +0.000 A 
ATOM      3  C   UNL     1       7.816   6.084  18.687  0.00  0.00    +0.000 A 
ATOM      4  C   UNL     1       7.815   7.361  18.131  0.00  0.00    +0.000 A 
ATOM      5  N   UNL     1       7.031   7.685  17.072  0.00  0.00    +0.000 NA
ATOM      6  C   UNL     1       6.230   6.722  16.552  0.00  0.00    +0.000 A 
ENDROOT
BRANCH   1   8
ATOM      7  O   UNL     1       4.637   4.846  15.075  0.00  0.00    +0.000 OA
ATOM      8  S   UNL     1       5.095   4.252  16.319  0.00  0.00    +0.000 S 
ATOM      9  O   UNL     1       5.797   2.982  16.313  0.00  0.00    +0.000 OA
BRANCH   8  10
ATOM     10  C   UNL     1       3.664   4.005  17.352  0.00  0.00    +0.000 A 
ATOM     11  C   UNL     1       2.948   2.806  17.277  0.00  0.00    +0.000 A 
ATOM     12  C   UNL     1       1.808   2.633  18.070  0.00  0.00    +0.000 A 
ATOM     13  C   UNL     1       1.401   3.644  18.945  0.00  0.00    +0.000 A 
ATOM     14  C   UNL     1       2.118   4.835  18.993  0.00  0.00    +0.000 A 
ATOM     15  F   UNL     1       1.727   5.802  19.831  0.00  0.00    +0.000 F 
ATOM     16  C   UNL     1       3.233   5.041  18.188  0.00  0.00    +0.000 A 
ENDBRANCH   8  10
ENDBRANCH   1   8
BRANCH   4  17
ATOM     17  C   UNL     1       8.678   8.417  18.688  0.00  0.00    +0.000 C 
ATOM     18  C   UNL     1       8.669   9.689  18.250  0.00  0.00    +0.000 C 
BRANCH  18  19
ATOM     19  C   UNL     1       9.509  10.778  18.772  0.00  0.00    +0.000 A 
ATOM     20  C   UNL     1       9.675  11.010  20.146  0.00  0.00    +0.000 A 
ATOM     21  C   UNL     1      10.526  12.025  20.595  0.00  0.00    +0.000 A 
ATOM     22  C   UNL     1      11.217  12.799  19.672  0.00  0.00    +0.000 A 
ATOM     23  F   UNL     1      12.039  13.763  20.105  0.00  0.00    +0.000 F 
ATOM     24  C   UNL     1      11.077  12.580  18.308  0.00  0.00    +0.000 A 
ATOM     25  C   UNL     1      10.227  11.567  17.860  0.00  0.00    +0.000 A 
ENDBRANCH  18  19
ENDBRANCH   4  17
TORSDOF 4
ENDMDL
MODEL 5
REMARK VINA RESULT:      -8.7      2.025      2.411
REMARK  Name = 
REMARK  4 active torsions:
REMARK  status: ('A' for Active; 'I' for Inactive)
REMARK    1  A    between atoms: S_2  and  C_4
REMARK    2  A    between atoms: S_2  and  C_19
REMARK    3  A    between atoms: C_7  and  C_8
REMARK    4  A    between atoms: C_9  and  C_10
REMARK                            x       y       z     vdW  Elec       q    Type
REMARK                         _______ _______ _______ _____ _____    ______ ____
ROOT
ATOM      1  C   UNL     1       6.237   5.427  16.985  0.00  0.00    +0.000 A 
ATOM      2  C   UNL     1       7.089   5.086  18.033  0.00  0.00    +0.000 A 
ATOM      3  C   UNL     1       7.885   6.077  18.610  0.00  0.00    +0.000 A 
ATOM      4  C   UNL     1       7.805   7.378  18.119  0.00  0.00    +0.000 A 
ATOM      5  N   UNL     1       6.982   7.712  17.092  0.00  0.00    +0.000 NA
ATOM      6  C   UNL     1       6.222   6.733  16.540  0.00  0.00    +0.000 A 
ENDROOT
BRANCH   1   8
ATOM      7  O   UNL     1       4.754   4.825  14.967  0.00  0.00    +0.000 OA
ATOM      8  S   UNL     1       5.213   4.220  16.205  0.00  0.00    +0.000 S 
ATOM      9  O   UNL     1       5.954   2.973  16.186  0.00  0.00    +0.000 OA
BRANCH   8  10
ATOM     10  C   UNL     1       3.777   3.911  17.213  0.00  0.00    +0.000 A 
ATOM     11  C   UNL     1       2.891   4.954  17.504  0.00  0.00    +0.000 A 
ATOM     12  C   UNL     1       1.781   4.708  18.320  0.00  0.00    +0.000 A 
ATOM     13  C   UNL     1       1.550   3.426  18.824  0.00  0.00    +0.000 A 
ATOM     14  C   UNL     1       2.451   2.405  18.536  0.00  0.00    +0.000 A 
ATOM     15  F   UNL     1       2.228   1.178  19.020  0.00  0.00    +0.000 F 
ATOM     16  C   UNL     1       3.579   2.637  17.755  0.00  0.00    +0.000 A 
ENDBRANCH   8  10
ENDBRANCH   1   8
BRANCH   4  17
ATOM     17  C   UNL     1       8.624   8.450  18.711  0.00  0.00    +0.000 C 
ATOM     18  C   UNL     1       8.711   9.689  18.193  0.00  0.00    +0.000 C 
BRANCH  18  19
ATOM     19  C   UNL     1       9.512  10.791  18.746  0.00  0.00    +0.000 A 
ATOM     20  C   UNL     1       9.722  10.955  20.124  0.00  0.00    +0.000 A 
ATOM     21  C   UNL     1      10.534  11.988  20.598  0.00  0.00    +0.000 A 
ATOM     22  C   UNL     1      11.144  12.851  19.697  0.00  0.00    +0.000 A 
ATOM     23  F   UNL     1      11.931  13.834  20.155  0.00  0.00    +0.000 F 
ATOM     24  C   UNL     1      10.961  12.702  18.329  0.00  0.00    +0.000 A 
ATOM     25  C   UNL     1      10.149  11.670  17.855  0.00  0.00    +0.000 A 
ENDBRANCH  18  19
ENDBRANCH   4  17
TORSDOF 4
ENDMDL
MODEL 6
REMARK VINA RESULT:      -8.6      1.320      1.992
REMARK  Name = 
REMARK  4 active torsions:
REMARK  status: ('A' for Active; 'I' for Inactive)
REMARK    1  A    between atoms: S_2  and  C_4
REMARK    2  A    between atoms: S_2  and  C_19
REMARK    3  A    between atoms: C_7  and  C_8
REMARK    4  A    between atoms: C_9  and  C_10
REMARK                            x       y       z     vdW  Elec       q    Type
REMARK                         _______ _______ _______ _____ _____    ______ ____
ROOT
ATOM      1  C   UNL     1       5.860   5.330  18.050  0.00  0.00    +0.000 A 
ATOM      2  C   UNL     1       5.451   6.341  17.183  0.00  0.00    +0.000 A 
ATOM      3  C   UNL     1       6.226   7.498  17.077  0.00  0.00    +0.000 A 
ATOM      4  C   UNL     1       7.384   7.607  17.843  0.00  0.00    +0.000 A 
ATOM      5  N   UNL     1       7.781   6.627  18.694  0.00  0.00    +0.000 NA
ATOM      6  C   UNL     1       7.012   5.514  18.788  0.00  0.00    +0.000 A 
ENDROOT
BRANCH   1   8
ATOM      7  O   UNL     1       4.606   3.401  16.893  0.00  0.00    +0.000 OA
ATOM      8  S   UNL     1       4.922   3.848  18.238  0.00  0.00    +0.000 S 
ATOM      9  O   UNL     1       5.654   2.986  19.148  0.00  0.00    +0.000 OA
BRANCH   8  10
ATOM     10  C   UNL     1       3.381   4.212  19.056  0.00  0.00    +0.000 A 
ATOM     11  C   UNL     1       3.262   5.367  19.836  0.00  0.00    +0.000 A 
ATOM     12  C   UNL     1       2.058   5.630  20.498  0.00  0.00    +0.000 A 
ATOM     13  C   UNL     1       0.977   4.755  20.365  0.00  0.00    +0.000 A 
ATOM     14  C   UNL     1       1.121   3.603  19.598  0.00  0.00    +0.000 A 
ATOM     15  F   UNL     1       0.085   2.765  19.473  0.00  0.00    +0.000 F 
ATOM     16  C   UNL     1       2.321   3.306  18.960  0.00  0.00    +0.000 A 
ENDBRANCH   8  10
ENDBRANCH   1   8
BRANCH   4  17
ATOM     17  C   UNL     1       8.230   8.810  17.748  0.00  0.00    +0.000 C 
ATOM     18  C   UNL     1       8.672   9.492  18.819  0.00  0.00    +0.000 C 
BRANCH  18  19
ATOM     19  C   UNL     1       9.517  10.695  18.777  0.00  0.00    +0.000 A 
ATOM     20  C   UNL     1       9.371  11.685  17.793  0.00  0.00    +0.000 A 
ATOM     21  C   UNL     1      10.163  12.836  17.824  0.00  0.00    +0.000 A 
ATOM     22  C   UNL     1      11.092  13.003  18.842  0.00  0.00    +0.000 A 
ATOM     23  F   UNL     1      11.841  14.113  18.875  0.00  0.00    +0.000 F 
ATOM     24  C   UNL     1      11.246  12.043  19.834  0.00  0.00    +0.000 A 
ATOM     25  C   UNL     1      10.455  10.893  19.801  0.00  0.00    +0.000 A 
ENDBRANCH  18  19
ENDBRANCH   4  17
TORSDOF 4
ENDMDL
MODEL 7
REMARK VINA RESULT:      -8.5      0.761      1.429
REMARK  Name = 
REMARK  4 active torsions:
REMARK  status: ('A' for Active; 'I' for Inactive)
REMARK    1  A    between atoms: S_2  and  C_4
REMARK    2  A    between atoms: S_2  and  C_19
REMARK    3  A    between atoms: C_7  and  C_8
REMARK    4  A    between atoms: C_9  and  C_10
REMARK                            x       y       z     vdW  Elec       q    Type
REMARK                         _______ _______ _______ _____ _____    ______ ____
ROOT
ATOM      1  C   UNL     1       5.664   5.195  18.127  0.00  0.00    +0.000 A 
ATOM      2  C   UNL     1       5.271   6.152  17.194  0.00  0.00    +0.000 A 
ATOM      3  C   UNL     1       6.047   7.303  17.035  0.00  0.00    +0.000 A 
ATOM      4  C   UNL     1       7.190   7.459  17.815  0.00  0.00    +0.000 A 
ATOM      5  N   UNL     1       7.571   6.531  18.729  0.00  0.00    +0.000 NA
ATOM      6  C   UNL     1       6.800   5.424  18.875  0.00  0.00    +0.000 A 
ENDROOT
BRANCH   1   8
ATOM      7  O   UNL     1       4.380   3.233  17.061  0.00  0.00    +0.000 OA
ATOM      8  S   UNL     1       4.722   3.725  18.384  0.00  0.00    +0.000 S 
ATOM      9  O   UNL     1       5.467   2.893  19.310  0.00  0.00    +0.000 OA
BRANCH   8  10
ATOM     10  C   UNL     1       3.198   4.126  19.215  0.00  0.00    +0.000 A 
ATOM     11  C   UNL     1       2.153   3.196  19.242  0.00  0.00    +0.000 A 
ATOM     12  C   UNL     1       0.949   3.530  19.872  0.00  0.00    +0.000 A 
ATOM     13  C   UNL     1       0.800   4.776  20.486  0.00  0.00    +0.000 A 
ATOM     14  C   UNL     1       1.845   5.693  20.435  0.00  0.00    +0.000 A 
ATOM     15  F   UNL     1       1.700   6.886  21.024  0.00  0.00    +0.000 F 
ATOM     16  C   UNL     1       3.037   5.393  19.784  0.00  0.00    +0.000 A 
ENDBRANCH   8  10
ENDBRANCH   1   8
BRANCH   4  17
ATOM     17  C   UNL     1       8.037   8.655  17.665  0.00  0.00    +0.000 C 
ATOM     18  C   UNL     1       8.481   9.384  18.705  0.00  0.00    +0.000 C 
BRANCH  18  19
ATOM     19  C   UNL     1       9.326  10.584  18.607  0.00  0.00    +0.000 A 
ATOM     20  C   UNL     1       9.055  11.627  17.710  0.00  0.00    +0.000 A 
ATOM     21  C   UNL     1       9.858  12.771  17.690  0.00  0.00    +0.000 A 
ATOM     22  C   UNL     1      10.925  12.876  18.573  0.00  0.00    +0.000 A 
ATOM     23  F   UNL     1      11.686  13.978  18.559  0.00  0.00    +0.000 F 
ATOM     24  C   UNL     1      11.206  11.861  19.478  0.00  0.00    +0.000 A 
ATOM     25  C   UNL     1      10.403  10.719  19.497  0.00  0.00    +0.000 A 
ENDBRANCH  18  19
ENDBRANCH   4  17
TORSDOF 4
ENDMDL
MODEL 8
REMARK VINA RESULT:      -8.5      5.437      8.171
REMARK  Name = 
REMARK  4 active torsions:
REMARK  status: ('A' for Active; 'I' for Inactive)
REMARK    1  A    between atoms: S_2  and  C_4
REMARK    2  A    between atoms: S_2  and  C_19
REMARK    3  A    between atoms: C_7  and  C_8
REMARK    4  A    between atoms: C_9  and  C_10
REMARK                            x       y       z     vdW  Elec       q    Type
REMARK                         _______ _______ _______ _____ _____    ______ ____
ROOT
ATOM      1  C   UNL     1       3.780   5.496  18.669  0.00  0.00    +0.000 A 
ATOM      2  C   UNL     1       3.754   6.602  17.822  0.00  0.00    +0.000 A 
ATOM      3  C   UNL     1       2.942   7.690  18.152  0.00  0.00    +0.000 A 
ATOM      4  C   UNL     1       2.181   7.635  19.317  0.00  0.00    +0.000 A 
ATOM      5  N   UNL     1       2.199   6.556  20.140  0.00  0.00    +0.000 NA
ATOM      6  C   UNL     1       2.988   5.507  19.799  0.00  0.00    +0.000 A 
ENDROOT
BRANCH   1   8
ATOM      7  O   UNL     1       5.797   4.040  19.336  0.00  0.00    +0.000 OA
ATOM      8  S   UNL     1       4.776   4.086  18.304  0.00  0.00    +0.000 S 
ATOM      9  O   UNL     1       3.878   2.964  18.106  0.00  0.00    +0.000 OA
BRANCH   8  10
ATOM     10  C   UNL     1       5.604   4.322  16.745  0.00  0.00    +0.000 A 
ATOM     11  C   UNL     1       6.909   4.823  16.717  0.00  0.00    +0.000 A 
ATOM     12  C   UNL     1       7.541   5.033  15.486  0.00  0.00    +0.000 A 
ATOM     13  C   UNL     1       6.879   4.725  14.295  0.00  0.00    +0.000 A 
ATOM     14  C   UNL     1       5.574   4.243  14.343  0.00  0.00    +0.000 A 
ATOM     15  F   UNL     1       4.942   3.949  13.201  0.00  0.00    +0.000 F 
ATOM     16  C   UNL     1       4.917   4.060  15.555  0.00  0.00    +0.000 A 
ENDBRANCH   8  10
ENDBRANCH   1   8
BRANCH   4  17
ATOM     17  C   UNL     1       1.322   8.769  19.701  0.00  0.00    +0.000 C 
ATOM     18  C   UNL     1       0.758   8.894  20.915  0.00  0.00    +0.000 C 
BRANCH  18  19
ATOM     19  C   UNL     1      -0.106  10.004  21.345  0.00  0.00    +0.000 A 
ATOM     20  C   UNL     1      -0.631  10.944  20.445  0.00  0.00    +0.000 A 
ATOM     21  C   UNL     1      -1.489  11.951  20.894  0.00  0.00    +0.000 A 
ATOM     22  C   UNL     1      -1.830  12.014  22.240  0.00  0.00    +0.000 A 
ATOM     23  F   UNL     1      -2.662  12.974  22.664  0.00  0.00    +0.000 F 
ATOM     24  C   UNL     1      -1.332  11.088  23.147  0.00  0.00    +0.000 A 
ATOM     25  C   UNL     1      -0.474  10.082  22.697  0.00  0.00    +0.000 A 
ENDBRANCH  18  19
ENDBRANCH   4  17
TORSDOF 4
ENDMDL
MODEL 9
REMARK VINA RESULT:      -8.4      1.101      1.649
REMARK  Name = 
REMARK  4 active torsions:
REMARK  status: ('A' for Active; 'I' for Inactive)
REMARK    1  A    between atoms: S_2  and  C_4
REMARK    2  A    between atoms: S_2  and  C_19
REMARK    3  A    between atoms: C_7  and  C_8
REMARK    4  A    between atoms: C_9  and  C_10
REMARK                            x       y       z     vdW  Elec       q    Type
REMARK                         _______ _______ _______ _____ _____    ______ ____
ROOT
ATOM      1  C   UNL     1       5.932   5.424  18.140  0.00  0.00    +0.000 A 
ATOM      2  C   UNL     1       5.663   6.401  17.184  0.00  0.00    +0.000 A 
ATOM      3  C   UNL     1       6.533   7.485  17.058  0.00  0.00    +0.000 A 
ATOM      4  C   UNL     1       7.645   7.559  17.894  0.00  0.00    +0.000 A 
ATOM      5  N   UNL     1       7.905   6.613  18.831  0.00  0.00    +0.000 NA
ATOM      6  C   UNL     1       7.044   5.571  18.943  0.00  0.00    +0.000 A 
ENDROOT
BRANCH   1   8
ATOM      7  O   UNL     1       4.423   3.660  17.025  0.00  0.00    +0.000 OA
ATOM      8  S   UNL     1       4.867   4.035  18.356  0.00  0.00    +0.000 S 
ATOM      9  O   UNL     1       5.568   3.080  19.195  0.00  0.00    +0.000 OA
BRANCH   8  10
ATOM     10  C   UNL     1       3.425   4.521  19.283  0.00  0.00    +0.000 A 
ATOM     11  C   UNL     1       3.121   5.878  19.439  0.00  0.00    +0.000 A 
ATOM     12  C   UNL     1       2.004   6.252  20.193  0.00  0.00    +0.000 A 
ATOM     13  C   UNL     1       1.187   5.277  20.770  0.00  0.00    +0.000 A 
ATOM     14  C   UNL     1       1.516   3.933  20.618  0.00  0.00    +0.000 A 
ATOM     15  F   UNL     1       0.732   3.000  21.172  0.00  0.00    +0.000 F 
ATOM     16  C   UNL     1       2.641   3.542  19.901  0.00  0.00    +0.000 A 
ENDBRANCH   8  10
ENDBRANCH   1   8
BRANCH   4  17
ATOM     17  C   UNL     1       8.590   8.684  17.781  0.00  0.00    +0.000 C 
ATOM     18  C   UNL     1       8.339   9.914  18.264  0.00  0.00    +0.000 C 
BRANCH  18  19
ATOM     19  C   UNL     1       9.247  11.067  18.177  0.00  0.00    +0.000 A 
ATOM     20  C   UNL     1      10.626  10.961  18.415  0.00  0.00    +0.000 A 
ATOM     21  C   UNL     1      11.457  12.076  18.269  0.00  0.00    +0.000 A 
ATOM     22  C   UNL     1      10.913  13.292  17.876  0.00  0.00    +0.000 A 
ATOM     23  F   UNL     1      11.714  14.354  17.726  0.00  0.00    +0.000 F 
ATOM     24  C   UNL     1       9.553  13.418  17.623  0.00  0.00    +0.000 A 
ATOM     25  C   UNL     1       8.723  12.304  17.770  0.00  0.00    +0.000 A 
ENDBRANCH  18  19
ENDBRANCH   4  17
TORSDOF 4
ENDMDL
