MODEL 1
REMARK VINA RESULT:      -8.4      0.000      0.000
REMARK  Name = 
REMARK  2 active torsions:
REMARK  status: ('A' for Active; 'I' for Inactive)
REMARK    1  A    between atoms: C_1  and  C_2
REMARK    2  A    between atoms: C_7  and  C_8
REMARK                            x       y       z     vdW  Elec       q    Type
REMARK                         _______ _______ _______ _____ _____    ______ ____
ROOT
ATOM      1  C   UNL     1       6.181   7.592  17.128  0.00  0.00    +0.000 C 
ATOM      2  C   UNL     1       6.236   6.323  17.899  0.00  0.00    +0.000 A 
ATOM      3  N   UNL     1       7.353   5.964  18.556  0.00  0.00    +0.000 NA
ATOM      4  N   UNL     1       7.026   4.802  19.163  0.00  0.00    +0.000 N 
ATOM      5  C   UNL     1       5.754   4.409  18.896  0.00  0.00    +0.000 A 
ATOM      6  C   UNL     1       5.201   5.376  18.081  0.00  0.00    +0.000 A 
ATOM      7  C   UNL     1       3.759   5.298  17.627  0.00  0.00    +0.000 C 
ATOM      8  C   UNL     1       3.157   4.028  18.139  0.00  0.00    +0.000 C 
ATOM      9  C   UNL     1       3.783   3.142  18.926  0.00  0.00    +0.000 C 
ATOM     10  C   UNL     1       2.869   2.040  19.282  0.00  0.00    +0.000 C 
ATOM     11  O   UNL     1       1.654   2.362  18.589  0.00  0.00    +0.000 OA
ATOM     12  C   UNL     1       1.818   3.522  17.888  0.00  0.00    +0.000 C 
ATOM     13  O   UNL     1       0.992   4.033  17.156  0.00  0.00    +0.000 OA
ATOM     14  N   UNL     1       5.097   3.308  19.343  0.00  0.00    +0.000 N 
ATOM     15  H   UNL     1       7.723   4.350  19.741  0.00  0.00    +0.000 HD
ATOM     16  H   UNL     1       5.496   2.608  19.960  0.00  0.00    +0.000 HD
ENDROOT
BRANCH   7  17
ATOM     17  C   UNL     1       3.109   6.541  18.209  0.00  0.00    +0.000 A 
ATOM     18  C   UNL     1       2.701   6.549  19.551  0.00  0.00    +0.000 A 
ATOM     19  C   UNL     1       2.022   7.648  20.077  0.00  0.00    +0.000 A 
ATOM     20  C   UNL     1       1.762   8.761  19.279  0.00  0.00    +0.000 A 
ATOM     21  C   UNL     1       2.190   8.784  17.954  0.00  0.00    +0.000 A 
ATOM     22  C   UNL     1       2.862   7.686  17.423  0.00  0.00    +0.000 A 
ENDBRANCH   7  17
TORSDOF 1
ENDMDL
MODEL 2
REMARK VINA RESULT:      -8.0      0.122      1.086
REMARK  Name = 
REMARK  2 active torsions:
REMARK  status: ('A' for Active; 'I' for Inactive)
REMARK    1  A    between atoms: C_1  and  C_2
REMARK    2  A    between atoms: C_7  and  C_8
REMARK                            x       y       z     vdW  Elec       q    Type
REMARK                         _______ _______ _______ _____ _____    ______ ____
ROOT
ATOM      1  C   UNL     1       6.016   7.586  17.116  0.00  0.00    +0.000 C 
ATOM      2  C   UNL     1       6.109   6.333  17.907  0.00  0.00    +0.000 A 
ATOM      3  N   UNL     1       7.235   6.019  18.572  0.00  0.00    +0.000 NA
ATOM      4  N   UNL     1       6.942   4.857  19.198  0.00  0.00    +0.000 N 
ATOM      5  C   UNL     1       5.683   4.420  18.935  0.00  0.00    +0.000 A 
ATOM      6  C   UNL     1       5.103   5.357  18.103  0.00  0.00    +0.000 A 
ATOM      7  C   UNL     1       3.665   5.226  17.647  0.00  0.00    +0.000 C 
ATOM      8  C   UNL     1       3.102   3.947  18.178  0.00  0.00    +0.000 C 
ATOM      9  C   UNL     1       3.753   3.094  18.981  0.00  0.00    +0.000 C 
ATOM     10  C   UNL     1       2.873   1.970  19.353  0.00  0.00    +0.000 C 
ATOM     11  O   UNL     1       1.651   2.242  18.652  0.00  0.00    +0.000 OA
ATOM     12  C   UNL     1       1.780   3.395  17.932  0.00  0.00    +0.000 C 
ATOM     13  O   UNL     1       0.940   3.868  17.191  0.00  0.00    +0.000 OA
ATOM     14  N   UNL     1       5.060   3.307  19.397  0.00  0.00    +0.000 N 
ATOM     15  H   UNL     1       7.652   4.437  19.785  0.00  0.00    +0.000 HD
ATOM     16  H   UNL     1       5.479   2.630  20.027  0.00  0.00    +0.000 HD
ENDROOT
BRANCH   7  17
ATOM     17  C   UNL     1       2.975   6.458  18.207  0.00  0.00    +0.000 A 
ATOM     18  C   UNL     1       2.741   7.562  17.374  0.00  0.00    +0.000 A 
ATOM     19  C   UNL     1       2.192   8.735  17.892  0.00  0.00    +0.000 A 
ATOM     20  C   UNL     1       1.847   8.813  19.241  0.00  0.00    +0.000 A 
ATOM     21  C   UNL     1       2.041   7.715  20.075  0.00  0.00    +0.000 A 
ATOM     22  C   UNL     1       2.597   6.545  19.562  0.00  0.00    +0.000 A 
ENDBRANCH   7  17
TORSDOF 1
ENDMDL
MODEL 3
REMARK VINA RESULT:      -8.0      2.723      4.772
REMARK  Name = 
REMARK  2 active torsions:
REMARK  status: ('A' for Active; 'I' for Inactive)
REMARK    1  A    between atoms: C_1  and  C_2
REMARK    2  A    between atoms: C_7  and  C_8
REMARK                            x       y       z     vdW  Elec       q    Type
REMARK                         _______ _______ _______ _____ _____    ______ ____
ROOT
ATOM      1  C   UNL     1       3.663   2.357  17.844  0.00  0.00    +0.000 C 
ATOM      2  C   UNL     1       3.104   3.055  19.029  0.00  0.00    +0.000 A 
ATOM      3  N   UNL     1       2.870   2.391  20.174  0.00  0.00    +0.000 NA
ATOM      4  N   UNL     1       2.413   3.338  21.024  0.00  0.00    +0.000 N 
ATOM      5  C   UNL     1       2.333   4.566  20.449  0.00  0.00    +0.000 A 
ATOM      6  C   UNL     1       2.780   4.428  19.150  0.00  0.00    +0.000 A 
ATOM      7  C   UNL     1       2.886   5.617  18.220  0.00  0.00    +0.000 C 
ATOM      8  C   UNL     1       2.373   6.832  18.925  0.00  0.00    +0.000 C 
ATOM      9  C   UNL     1       1.951   6.864  20.196  0.00  0.00    +0.000 C 
ATOM     10  C   UNL     1       1.570   8.238  20.574  0.00  0.00    +0.000 C 
ATOM     11  O   UNL     1       1.783   8.997  19.375  0.00  0.00    +0.000 OA
ATOM     12  C   UNL     1       2.234   8.174  18.383  0.00  0.00    +0.000 C 
ATOM     13  O   UNL     1       2.457   8.502  17.233  0.00  0.00    +0.000 OA
ATOM     14  N   UNL     1       1.929   5.736  21.005  0.00  0.00    +0.000 N 
ATOM     15  H   UNL     1       2.187   3.063  21.972  0.00  0.00    +0.000 HD
ATOM     16  H   UNL     1       1.620   5.842  21.967  0.00  0.00    +0.000 HD
ENDROOT
BRANCH   7  17
ATOM     17  C   UNL     1       4.365   5.705  17.882  0.00  0.00    +0.000 A 
ATOM     18  C   UNL     1       4.766   5.810  16.542  0.00  0.00    +0.000 A 
ATOM     19  C   UNL     1       6.121   5.800  16.207  0.00  0.00    +0.000 A 
ATOM     20  C   UNL     1       7.090   5.710  17.205  0.00  0.00    +0.000 A 
ATOM     21  C   UNL     1       6.710   5.641  18.542  0.00  0.00    +0.000 A 
ATOM     22  C   UNL     1       5.359   5.642  18.880  0.00  0.00    +0.000 A 
ENDBRANCH   7  17
TORSDOF 1
ENDMDL
MODEL 4
REMARK VINA RESULT:      -8.0      2.752      4.697
REMARK  Name = 
REMARK  2 active torsions:
REMARK  status: ('A' for Active; 'I' for Inactive)
REMARK    1  A    between atoms: C_1  and  C_2
REMARK    2  A    between atoms: C_7  and  C_8
REMARK                            x       y       z     vdW  Elec       q    Type
REMARK                         _______ _______ _______ _____ _____    ______ ____
ROOT
ATOM      1  C   UNL     1       3.487   2.270  17.830  0.00  0.00    +0.000 C 
ATOM      2  C   UNL     1       2.933   2.992  19.003  0.00  0.00    +0.000 A 
ATOM      3  N   UNL     1       2.646   2.339  20.143  0.00  0.00    +0.000 NA
ATOM      4  N   UNL     1       2.212   3.305  20.983  0.00  0.00    +0.000 N 
ATOM      5  C   UNL     1       2.197   4.535  20.407  0.00  0.00    +0.000 A 
ATOM      6  C   UNL     1       2.666   4.377  19.118  0.00  0.00    +0.000 A 
ATOM      7  C   UNL     1       2.842   5.561  18.191  0.00  0.00    +0.000 C 
ATOM      8  C   UNL     1       2.366   6.796  18.885  0.00  0.00    +0.000 C 
ATOM      9  C   UNL     1       1.920   6.847  20.147  0.00  0.00    +0.000 C 
ATOM     10  C   UNL     1       1.590   8.236  20.517  0.00  0.00    +0.000 C 
ATOM     11  O   UNL     1       1.860   8.985  19.323  0.00  0.00    +0.000 OA
ATOM     12  C   UNL     1       2.297   8.143  18.341  0.00  0.00    +0.000 C 
ATOM     13  O   UNL     1       2.558   8.460  17.196  0.00  0.00    +0.000 OA
ATOM     14  N   UNL     1       1.832   5.721  20.955  0.00  0.00    +0.000 N 
ATOM     15  H   UNL     1       1.954   3.041  21.926  0.00  0.00    +0.000 HD
ATOM     16  H   UNL     1       1.508   5.841  21.911  0.00  0.00    +0.000 HD
ENDROOT
BRANCH   7  17
ATOM     17  C   UNL     1       4.330   5.585  17.885  0.00  0.00    +0.000 A 
ATOM     18  C   UNL     1       5.256   5.504  18.935  0.00  0.00    +0.000 A 
ATOM     19  C   UNL     1       6.624   5.616  18.682  0.00  0.00    +0.000 A 
ATOM     20  C   UNL     1       7.085   5.785  17.377  0.00  0.00    +0.000 A 
ATOM     21  C   UNL     1       6.181   5.833  16.319  0.00  0.00    +0.000 A 
ATOM     22  C   UNL     1       4.815   5.730  16.569  0.00  0.00    +0.000 A 
ENDBRANCH   7  17
TORSDOF 1
ENDMDL
MODEL 5
REMARK VINA RESULT:      -7.8      2.561      4.510
REMARK  Name = 
REMARK  2 active torsions:
REMARK  status: ('A' for Active; 'I' for Inactive)
REMARK    1  A    between atoms: C_1  and  C_2
REMARK    2  A    between atoms: C_7  and  C_8
REMARK                            x       y       z     vdW  Elec       q    Type
REMARK                         _______ _______ _______ _____ _____    ______ ____
ROOT
ATOM      1  C   UNL     1       5.382   3.711  19.076  0.00  0.00    +0.000 C 
ATOM      2  C   UNL     1       5.060   4.858  18.189  0.00  0.00    +0.000 A 
ATOM      3  N   UNL     1       5.652   4.989  16.988  0.00  0.00    +0.000 NA
ATOM      4  N   UNL     1       5.093   6.100  16.459  0.00  0.00    +0.000 N 
ATOM      5  C   UNL     1       4.189   6.681  17.288  0.00  0.00    +0.000 A 
ATOM      6  C   UNL     1       4.131   5.899  18.425  0.00  0.00    +0.000 A 
ATOM      7  C   UNL     1       3.174   6.215  19.554  0.00  0.00    +0.000 C 
ATOM      8  C   UNL     1       2.443   7.479  19.231  0.00  0.00    +0.000 C 
ATOM      9  C   UNL     1       2.573   8.174  18.093  0.00  0.00    +0.000 C 
ATOM     10  C   UNL     1       1.658   9.331  18.094  0.00  0.00    +0.000 C 
ATOM     11  O   UNL     1       1.006   9.255  19.370  0.00  0.00    +0.000 OA
ATOM     12  C   UNL     1       1.478   8.178  20.065  0.00  0.00    +0.000 C 
ATOM     13  O   UNL     1       1.164   7.870  21.198  0.00  0.00    +0.000 OA
ATOM     14  N   UNL     1       3.440   7.793  17.078  0.00  0.00    +0.000 N 
ATOM     15  H   UNL     1       5.380   6.385  15.530  0.00  0.00    +0.000 HD
ATOM     16  H   UNL     1       3.466   8.356  16.233  0.00  0.00    +0.000 HD
ENDROOT
BRANCH   7  17
ATOM     17  C   UNL     1       2.263   5.002  19.631  0.00  0.00    +0.000 A 
ATOM     18  C   UNL     1       1.995   4.413  20.876  0.00  0.00    +0.000 A 
ATOM     19  C   UNL     1       1.235   3.246  20.956  0.00  0.00    +0.000 A 
ATOM     20  C   UNL     1       0.713   2.667  19.800  0.00  0.00    +0.000 A 
ATOM     21  C   UNL     1       0.941   3.258  18.560  0.00  0.00    +0.000 A 
ATOM     22  C   UNL     1       1.706   4.418  18.476  0.00  0.00    +0.000 A 
ENDBRANCH   7  17
TORSDOF 1
ENDMDL
MODEL 6
REMARK VINA RESULT:      -7.6      2.564      4.601
REMARK  Name = 
REMARK  2 active torsions:
REMARK  status: ('A' for Active; 'I' for Inactive)
REMARK    1  A    between atoms: C_1  and  C_2
REMARK    2  A    between atoms: C_7  and  C_8
REMARK                            x       y       z     vdW  Elec       q    Type
REMARK                         _______ _______ _______ _____ _____    ______ ____
ROOT
ATOM      1  C   UNL     1       5.566   3.908  18.952  0.00  0.00    +0.000 C 
ATOM      2  C   UNL     1       5.160   5.046  18.088  0.00  0.00    +0.000 A 
ATOM      3  N   UNL     1       5.709   5.219  16.873  0.00  0.00    +0.000 NA
ATOM      4  N   UNL     1       5.080   6.305  16.372  0.00  0.00    +0.000 N 
ATOM      5  C   UNL     1       4.172   6.831  17.234  0.00  0.00    +0.000 A 
ATOM      6  C   UNL     1       4.187   6.036  18.363  0.00  0.00    +0.000 A 
ATOM      7  C   UNL     1       3.249   6.292  19.523  0.00  0.00    +0.000 C 
ATOM      8  C   UNL     1       2.445   7.519  19.235  0.00  0.00    +0.000 C 
ATOM      9  C   UNL     1       2.506   8.232  18.102  0.00  0.00    +0.000 C 
ATOM     10  C   UNL     1       1.534   9.340  18.143  0.00  0.00    +0.000 C 
ATOM     11  O   UNL     1       0.924   9.218  19.436  0.00  0.00    +0.000 OA
ATOM     12  C   UNL     1       1.470   8.159  20.104  0.00  0.00    +0.000 C 
ATOM     13  O   UNL     1       1.206   7.824  21.243  0.00  0.00    +0.000 OA
ATOM     14  N   UNL     1       3.361   7.905  17.058  0.00  0.00    +0.000 N 
ATOM     15  H   UNL     1       5.325   6.614  15.439  0.00  0.00    +0.000 HD
ATOM     16  H   UNL     1       3.334   8.477  16.219  0.00  0.00    +0.000 HD
ENDROOT
BRANCH   7  17
ATOM     17  C   UNL     1       2.403   5.033  19.612  0.00  0.00    +0.000 A 
ATOM     18  C   UNL     1       1.855   4.481  18.444  0.00  0.00    +0.000 A 
ATOM     19  C   UNL     1       1.002   3.379  18.517  0.00  0.00    +0.000 A 
ATOM     20  C   UNL     1       0.705   2.800  19.750  0.00  0.00    +0.000 A 
ATOM     21  C   UNL     1       1.268   3.314  20.915  0.00  0.00    +0.000 A 
ATOM     22  C   UNL     1       2.113   4.419  20.847  0.00  0.00    +0.000 A 
ENDBRANCH   7  17
TORSDOF 1
ENDMDL
MODEL 7
REMARK VINA RESULT:      -7.3      1.096      1.131
REMARK  Name = 
REMARK  2 active torsions:
REMARK  status: ('A' for Active; 'I' for Inactive)
REMARK    1  A    between atoms: C_1  and  C_2
REMARK    2  A    between atoms: C_7  and  C_8
REMARK                            x       y       z     vdW  Elec       q    Type
REMARK                         _______ _______ _______ _____ _____    ______ ____
ROOT
ATOM      1  C   UNL     1       5.092   6.634  15.981  0.00  0.00    +0.000 C 
ATOM      2  C   UNL     1       5.518   5.639  16.998  0.00  0.00    +0.000 A 
ATOM      3  N   UNL     1       6.821   5.424  17.248  0.00  0.00    +0.000 NA
ATOM      4  N   UNL     1       6.825   4.504  18.239  0.00  0.00    +0.000 N 
ATOM      5  C   UNL     1       5.574   4.120  18.605  0.00  0.00    +0.000 A 
ATOM      6  C   UNL     1       4.692   4.842  17.825  0.00  0.00    +0.000 A 
ATOM      7  C   UNL     1       3.194   4.714  18.002  0.00  0.00    +0.000 C 
ATOM      8  C   UNL     1       2.915   3.679  19.045  0.00  0.00    +0.000 C 
ATOM      9  C   UNL     1       3.848   3.024  19.749  0.00  0.00    +0.000 C 
ATOM     10  C   UNL     1       3.211   2.122  20.726  0.00  0.00    +0.000 C 
ATOM     11  O   UNL     1       1.806   2.296  20.492  0.00  0.00    +0.000 OA
ATOM     12  C   UNL     1       1.616   3.196  19.482  0.00  0.00    +0.000 C 
ATOM     13  O   UNL     1       0.542   3.519  19.011  0.00  0.00    +0.000 OA
ATOM     14  N   UNL     1       5.208   3.231  19.563  0.00  0.00    +0.000 N 
ATOM     15  H   UNL     1       7.717   4.200  18.608  0.00  0.00    +0.000 HD
ATOM     16  H   UNL     1       5.857   2.717  20.152  0.00  0.00    +0.000 HD
ENDROOT
BRANCH   7  17
ATOM     17  C   UNL     1       2.740   6.106  18.408  0.00  0.00    +0.000 A 
ATOM     18  C   UNL     1       2.572   6.413  19.767  0.00  0.00    +0.000 A 
ATOM     19  C   UNL     1       2.069   7.655  20.153  0.00  0.00    +0.000 A 
ATOM     20  C   UNL     1       1.750   8.614  19.193  0.00  0.00    +0.000 A 
ATOM     21  C   UNL     1       1.943   8.338  17.841  0.00  0.00    +0.000 A 
ATOM     22  C   UNL     1       2.437   7.096  17.451  0.00  0.00    +0.000 A 
ENDBRANCH   7  17
TORSDOF 1
ENDMDL
MODEL 8
REMARK VINA RESULT:      -7.3      2.688      4.408
REMARK  Name = 
REMARK  2 active torsions:
REMARK  status: ('A' for Active; 'I' for Inactive)
REMARK    1  A    between atoms: C_1  and  C_2
REMARK    2  A    between atoms: C_7  and  C_8
REMARK                            x       y       z     vdW  Elec       q    Type
REMARK                         _______ _______ _______ _____ _____    ______ ____
ROOT
ATOM      1  C   UNL     1       4.357   2.669  16.797  0.00  0.00    +0.000 C 
ATOM      2  C   UNL     1       3.556   2.899  18.026  0.00  0.00    +0.000 A 
ATOM      3  N   UNL     1       3.203   1.873  18.821  0.00  0.00    +0.000 NA
ATOM      4  N   UNL     1       2.534   2.454  19.841  0.00  0.00    +0.000 N 
ATOM      5  C   UNL     1       2.437   3.802  19.707  0.00  0.00    +0.000 A 
ATOM      6  C   UNL     1       3.096   4.134  18.540  0.00  0.00    +0.000 A 
ATOM      7  C   UNL     1       3.242   5.575  18.097  0.00  0.00    +0.000 C 
ATOM      8  C   UNL     1       2.516   6.455  19.063  0.00  0.00    +0.000 C 
ATOM      9  C   UNL     1       1.897   6.034  20.174  0.00  0.00    +0.000 C 
ATOM     10  C   UNL     1       1.339   7.181  20.915  0.00  0.00    +0.000 C 
ATOM     11  O   UNL     1       1.671   8.313  20.098  0.00  0.00    +0.000 OA
ATOM     12  C   UNL     1       2.346   7.897  18.987  0.00  0.00    +0.000 C 
ATOM     13  O   UNL     1       2.719   8.608  18.073  0.00  0.00    +0.000 OA
ATOM     14  N   UNL     1       1.846   4.695  20.540  0.00  0.00    +0.000 N 
ATOM     15  H   UNL     1       2.185   1.862  20.585  0.00  0.00    +0.000 HD
ATOM     16  H   UNL     1       1.381   4.454  21.410  0.00  0.00    +0.000 HD
ENDROOT
BRANCH   7  17
ATOM     17  C   UNL     1       4.742   5.817  18.081  0.00  0.00    +0.000 A 
ATOM     18  C   UNL     1       5.530   5.361  19.148  0.00  0.00    +0.000 A 
ATOM     19  C   UNL     1       6.894   5.653  19.194  0.00  0.00    +0.000 A 
ATOM     20  C   UNL     1       7.491   6.381  18.166  0.00  0.00    +0.000 A 
ATOM     21  C   UNL     1       6.730   6.812  17.083  0.00  0.00    +0.000 A 
ATOM     22  C   UNL     1       5.367   6.529  17.037  0.00  0.00    +0.000 A 
ENDBRANCH   7  17
TORSDOF 1
ENDMDL
MODEL 9
REMARK VINA RESULT:      -7.3      2.687      4.242
REMARK  Name = 
REMARK  2 active torsions:
REMARK  status: ('A' for Active; 'I' for Inactive)
REMARK    1  A    between atoms: C_1  and  C_2
REMARK    2  A    between atoms: C_7  and  C_8
REMARK                            x       y       z     vdW  Elec       q    Type
REMARK                         _______ _______ _______ _____ _____    ______ ____
ROOT
ATOM      1  C   UNL     1       1.615   3.761  20.601  0.00  0.00    +0.000 C 
ATOM      2  C   UNL     1       2.281   3.195  19.400  0.00  0.00    +0.000 A 
ATOM      3  N   UNL     1       1.768   2.125  18.767  0.00  0.00    +0.000 NA
ATOM      4  N   UNL     1       2.598   1.925  17.720  0.00  0.00    +0.000 N 
ATOM      5  C   UNL     1       3.623   2.816  17.684  0.00  0.00    +0.000 A 
ATOM      6  C   UNL     1       3.450   3.666  18.758  0.00  0.00    +0.000 A 
ATOM      7  C   UNL     1       4.383   4.833  19.000  0.00  0.00    +0.000 C 
ATOM      8  C   UNL     1       5.468   4.810  17.971  0.00  0.00    +0.000 C 
ATOM      9  C   UNL     1       5.553   3.932  16.962  0.00  0.00    +0.000 C 
ATOM     10  C   UNL     1       6.717   4.243  16.111  0.00  0.00    +0.000 C 
ATOM     11  O   UNL     1       7.321   5.375  16.753  0.00  0.00    +0.000 OA
ATOM     12  C   UNL     1       6.607   5.707  17.869  0.00  0.00    +0.000 C 
ATOM     13  O   UNL     1       6.891   6.587  18.659  0.00  0.00    +0.000 OA
ATOM     14  N   UNL     1       4.627   2.914  16.776  0.00  0.00    +0.000 N 
ATOM     15  H   UNL     1       2.391   1.168  17.081  0.00  0.00    +0.000 HD
ATOM     16  H   UNL     1       4.742   2.302  15.973  0.00  0.00    +0.000 HD
ENDROOT
BRANCH   7  17
ATOM     17  C   UNL     1       3.492   6.059  18.899  0.00  0.00    +0.000 A 
ATOM     18  C   UNL     1       3.420   6.767  17.690  0.00  0.00    +0.000 A 
ATOM     19  C   UNL     1       2.679   7.947  17.604  0.00  0.00    +0.000 A 
ATOM     20  C   UNL     1       1.982   8.420  18.715  0.00  0.00    +0.000 A 
ATOM     21  C   UNL     1       2.015   7.711  19.913  0.00  0.00    +0.000 A 
ATOM     22  C   UNL     1       2.761   6.538  20.004  0.00  0.00    +0.000 A 
ENDBRANCH   7  17
TORSDOF 1
ENDMDL
