MODEL 1
REMARK VINA RESULT:      -7.2      0.000      0.000
REMARK  Name = 
REMARK  9 active torsions:
REMARK  status: ('A' for Active; 'I' for Inactive)
REMARK    1  A    between atoms: C_1  and  O_2
REMARK    2  A    between atoms: O_2  and  C_3
REMARK    3  A    between atoms: C_6  and  C_7
REMARK    4  A    between atoms: C_8  and  C_9
REMARK    5  A    between atoms: C_8  and  C_10
REMARK    6  A    between atoms: C_12  and  O_13
REMARK    7  A    between atoms: C_15  and  O_16
REMARK    8  A    between atoms: C_19  and  O_20
REMARK    9  A    between atoms: O_20  and  C_21
REMARK                            x       y       z     vdW  Elec       q    Type
REMARK                         _______ _______ _______ _____ _____    ______ ____
ROOT
ATOM      1  C   UNL     1       4.560   4.163  16.466  0.00  0.00    +0.000 C 
ATOM      2  C   UNL     1       5.882   4.349  16.262  0.00  0.00    +0.000 C 
ATOM      3  C   UNL     1       6.947   4.597  17.289  0.00  0.00    +0.000 C 
ENDROOT
BRANCH   1   7
ATOM      4  C   UNL     1       2.593   3.932  20.279  0.00  0.00    +0.000 A 
ATOM      5  C   UNL     1       3.047   2.778  19.621  0.00  0.00    +0.000 A 
ATOM      6  C   UNL     1       3.671   2.865  18.371  0.00  0.00    +0.000 A 
ATOM      7  C   UNL     1       3.835   4.102  17.745  0.00  0.00    +0.000 A 
ATOM      8  C   UNL     1       3.368   5.242  18.403  0.00  0.00    +0.000 A 
ATOM      9  C   UNL     1       2.705   5.171  19.638  0.00  0.00    +0.000 A 
BRANCH   4  11
ATOM     10  C   UNL     1       1.470   2.599  21.870  0.00  0.00    +0.000 C 
ATOM     11  O   UNL     1       2.029   3.865  21.525  0.00  0.00    +0.000 OA
ENDBRANCH   4  11
BRANCH   9  12
ATOM     12  O   UNL     1       2.273   6.402  20.053  0.00  0.00    +0.000 OA
ATOM     13  C   UNL     1       2.314   7.491  19.147  0.00  0.00    +0.000 C 
ENDBRANCH   9  12
ENDBRANCH   1   7
BRANCH   2  14
ATOM     14  C   UNL     1       6.340   4.395  14.864  0.00  0.00    +0.000 A 
ATOM     15  C   UNL     1       5.736   3.560  13.914  0.00  0.00    +0.000 A 
ATOM     16  C   UNL     1       6.204   3.559  12.604  0.00  0.00    +0.000 A 
ATOM     17  C   UNL     1       7.255   4.384  12.217  0.00  0.00    +0.000 A 
ATOM     18  C   UNL     1       7.845   5.213  13.164  0.00  0.00    +0.000 A 
ATOM     19  C   UNL     1       7.400   5.225  14.484  0.00  0.00    +0.000 A 
BRANCH  16  20
ATOM     20  O   UNL     1       5.655   2.736  11.662  0.00  0.00    +0.000 OA
ATOM     21  H   UNL     1       6.298   2.620  10.941  0.00  0.00    +0.000 HD
ENDBRANCH  16  20
BRANCH  18  22
ATOM     22  O   UNL     1       8.887   6.029  12.833  0.00  0.00    +0.000 OA
ATOM     23  H   UNL     1       8.647   6.525  12.031  0.00  0.00    +0.000 HD
ENDBRANCH  18  22
ENDBRANCH   2  14
TORSDOF 6
ENDMDL
MODEL 2
REMARK VINA RESULT:      -7.2      0.086      1.808
REMARK  Name = 
REMARK  9 active torsions:
REMARK  status: ('A' for Active; 'I' for Inactive)
REMARK    1  A    between atoms: C_1  and  O_2
REMARK    2  A    between atoms: O_2  and  C_3
REMARK    3  A    between atoms: C_6  and  C_7
REMARK    4  A    between atoms: C_8  and  C_9
REMARK    5  A    between atoms: C_8  and  C_10
REMARK    6  A    between atoms: C_12  and  O_13
REMARK    7  A    between atoms: C_15  and  O_16
REMARK    8  A    between atoms: C_19  and  O_20
REMARK    9  A    between atoms: O_20  and  C_21
REMARK                            x       y       z     vdW  Elec       q    Type
REMARK                         _______ _______ _______ _____ _____    ______ ____
ROOT
ATOM      1  C   UNL     1       4.609   4.064  16.508  0.00  0.00    +0.000 C 
ATOM      2  C   UNL     1       5.924   4.303  16.313  0.00  0.00    +0.000 C 
ATOM      3  C   UNL     1       6.963   4.638  17.342  0.00  0.00    +0.000 C 
ENDROOT
BRANCH   1   7
ATOM      4  C   UNL     1       2.605   3.884  20.305  0.00  0.00    +0.000 A 
ATOM      5  C   UNL     1       3.106   2.727  19.689  0.00  0.00    +0.000 A 
ATOM      6  C   UNL     1       3.742   2.796  18.444  0.00  0.00    +0.000 A 
ATOM      7  C   UNL     1       3.872   4.018  17.781  0.00  0.00    +0.000 A 
ATOM      8  C   UNL     1       3.359   5.161  18.398  0.00  0.00    +0.000 A 
ATOM      9  C   UNL     1       2.684   5.106  19.626  0.00  0.00    +0.000 A 
BRANCH   4  11
ATOM     10  C   UNL     1       1.457   2.580  21.901  0.00  0.00    +0.000 C 
ATOM     11  O   UNL     1       2.029   3.837  21.546  0.00  0.00    +0.000 OA
ENDBRANCH   4  11
BRANCH   9  12
ATOM     12  O   UNL     1       2.205   6.334  19.997  0.00  0.00    +0.000 OA
ATOM     13  C   UNL     1       2.367   7.434  19.119  0.00  0.00    +0.000 C 
ENDBRANCH   9  12
ENDBRANCH   1   7
BRANCH   2  14
ATOM     14  C   UNL     1       6.398   4.316  14.919  0.00  0.00    +0.000 A 
ATOM     15  C   UNL     1       7.458   5.159  14.560  0.00  0.00    +0.000 A 
ATOM     16  C   UNL     1       7.872   5.217  13.233  0.00  0.00    +0.000 A 
ATOM     17  C   UNL     1       7.258   4.439  12.256  0.00  0.00    +0.000 A 
ATOM     18  C   UNL     1       6.210   3.601  12.621  0.00  0.00    +0.000 A 
ATOM     19  C   UNL     1       5.773   3.533  13.942  0.00  0.00    +0.000 A 
BRANCH  16  20
ATOM     20  O   UNL     1       8.883   6.049  12.847  0.00  0.00    +0.000 OA
ATOM     21  H   UNL     1       8.785   6.234  11.897  0.00  0.00    +0.000 HD
ENDBRANCH  16  20
BRANCH  18  22
ATOM     22  O   UNL     1       5.570   2.830  11.695  0.00  0.00    +0.000 OA
ATOM     23  H   UNL     1       5.055   2.151  12.163  0.00  0.00    +0.000 HD
ENDBRANCH  18  22
ENDBRANCH   2  14
TORSDOF 6
ENDMDL
MODEL 3
REMARK VINA RESULT:      -7.0      3.324      8.537
REMARK  Name = 
REMARK  9 active torsions:
REMARK  status: ('A' for Active; 'I' for Inactive)
REMARK    1  A    between atoms: C_1  and  O_2
REMARK    2  A    between atoms: O_2  and  C_3
REMARK    3  A    between atoms: C_6  and  C_7
REMARK    4  A    between atoms: C_8  and  C_9
REMARK    5  A    between atoms: C_8  and  C_10
REMARK    6  A    between atoms: C_12  and  O_13
REMARK    7  A    between atoms: C_15  and  O_16
REMARK    8  A    between atoms: C_19  and  O_20
REMARK    9  A    between atoms: O_20  and  C_21
REMARK                            x       y       z     vdW  Elec       q    Type
REMARK                         _______ _______ _______ _____ _____    ______ ____
ROOT
ATOM      1  C   UNL     1       2.153   7.063  19.818  0.00  0.00    +0.000 C 
ATOM      2  C   UNL     1       1.749   8.263  19.350  0.00  0.00    +0.000 C 
ATOM      3  C   UNL     1       2.041   8.878  18.012  0.00  0.00    +0.000 C 
ENDROOT
BRANCH   1   7
ATOM      4  C   UNL     1       4.431   4.145  17.636  0.00  0.00    +0.000 A 
ATOM      5  C   UNL     1       3.079   4.384  17.342  0.00  0.00    +0.000 A 
ATOM      6  C   UNL     1       2.343   5.325  18.071  0.00  0.00    +0.000 A 
ATOM      7  C   UNL     1       2.936   6.030  19.121  0.00  0.00    +0.000 A 
ATOM      8  C   UNL     1       4.278   5.775  19.412  0.00  0.00    +0.000 A 
ATOM      9  C   UNL     1       5.021   4.809  18.718  0.00  0.00    +0.000 A 
BRANCH   4  11
ATOM     10  C   UNL     1       5.775   3.817  15.724  0.00  0.00    +0.000 C 
ATOM     11  O   UNL     1       5.176   3.266  16.895  0.00  0.00    +0.000 OA
ENDBRANCH   4  11
BRANCH   9  12
ATOM     12  O   UNL     1       6.287   4.681  19.225  0.00  0.00    +0.000 OA
ATOM     13  C   UNL     1       7.319   5.511  18.723  0.00  0.00    +0.000 C 
ENDBRANCH   9  12
ENDBRANCH   1   7
BRANCH   2  14
ATOM     14  C   UNL     1       0.992   9.119  20.279  0.00  0.00    +0.000 A 
ATOM     15  C   UNL     1       1.139   8.934  21.660  0.00  0.00    +0.000 A 
ATOM     16  C   UNL     1       0.384   9.703  22.540  0.00  0.00    +0.000 A 
ATOM     17  C   UNL     1      -0.506  10.664  22.071  0.00  0.00    +0.000 A 
ATOM     18  C   UNL     1      -0.642  10.845  20.699  0.00  0.00    +0.000 A 
ATOM     19  C   UNL     1       0.097  10.081  19.798  0.00  0.00    +0.000 A 
BRANCH  16  20
ATOM     20  O   UNL     1       0.483   9.527  23.891  0.00  0.00    +0.000 OA
ATOM     21  H   UNL     1       0.900  10.317  24.275  0.00  0.00    +0.000 HD
ENDBRANCH  16  20
BRANCH  18  22
ATOM     22  O   UNL     1      -1.512  11.765  20.194  0.00  0.00    +0.000 OA
ATOM     23  H   UNL     1      -1.732  11.513  19.281  0.00  0.00    +0.000 HD
ENDBRANCH  18  22
ENDBRANCH   2  14
TORSDOF 6
ENDMDL
MODEL 4
REMARK VINA RESULT:      -6.9      3.305      8.497
REMARK  Name = 
REMARK  9 active torsions:
REMARK  status: ('A' for Active; 'I' for Inactive)
REMARK    1  A    between atoms: C_1  and  O_2
REMARK    2  A    between atoms: O_2  and  C_3
REMARK    3  A    between atoms: C_6  and  C_7
REMARK    4  A    between atoms: C_8  and  C_9
REMARK    5  A    between atoms: C_8  and  C_10
REMARK    6  A    between atoms: C_12  and  O_13
REMARK    7  A    between atoms: C_15  and  O_16
REMARK    8  A    between atoms: C_19  and  O_20
REMARK    9  A    between atoms: O_20  and  C_21
REMARK                            x       y       z     vdW  Elec       q    Type
REMARK                         _______ _______ _______ _____ _____    ______ ____
ROOT
ATOM      1  C   UNL     1       2.169   6.985  19.809  0.00  0.00    +0.000 C 
ATOM      2  C   UNL     1       1.772   8.199  19.370  0.00  0.00    +0.000 C 
ATOM      3  C   UNL     1       2.103   8.862  18.066  0.00  0.00    +0.000 C 
ENDROOT
BRANCH   1   7
ATOM      4  C   UNL     1       4.532   4.158  17.599  0.00  0.00    +0.000 A 
ATOM      5  C   UNL     1       3.179   4.376  17.293  0.00  0.00    +0.000 A 
ATOM      6  C   UNL     1       2.416   5.286  18.031  0.00  0.00    +0.000 A 
ATOM      7  C   UNL     1       2.981   5.983  19.101  0.00  0.00    +0.000 A 
ATOM      8  C   UNL     1       4.325   5.749  19.404  0.00  0.00    +0.000 A 
ATOM      9  C   UNL     1       5.096   4.812  18.701  0.00  0.00    +0.000 A 
BRANCH   4  11
ATOM     10  C   UNL     1       5.874   3.885  15.677  0.00  0.00    +0.000 C 
ATOM     11  O   UNL     1       5.303   3.309  16.850  0.00  0.00    +0.000 OA
ENDBRANCH   4  11
BRANCH   9  12
ATOM     12  O   UNL     1       6.357   4.699  19.221  0.00  0.00    +0.000 OA
ATOM     13  C   UNL     1       7.383   5.546  18.735  0.00  0.00    +0.000 C 
ENDBRANCH   9  12
ENDBRANCH   1   7
BRANCH   2  14
ATOM     14  C   UNL     1       0.980   9.017  20.304  0.00  0.00    +0.000 A 
ATOM     15  C   UNL     1       0.104   9.986  19.797  0.00  0.00    +0.000 A 
ATOM     16  C   UNL     1      -0.604  10.800  20.676  0.00  0.00    +0.000 A 
ATOM     17  C   UNL     1      -0.466  10.658  22.053  0.00  0.00    +0.000 A 
ATOM     18  C   UNL     1       0.402   9.692  22.548  0.00  0.00    +0.000 A 
ATOM     19  C   UNL     1       1.128   8.871  21.688  0.00  0.00    +0.000 A 
BRANCH  16  20
ATOM     20  O   UNL     1      -1.445  11.772  20.214  0.00  0.00    +0.000 OA
ATOM     21  H   UNL     1      -0.995  12.256  19.500  0.00  0.00    +0.000 HD
ENDBRANCH  16  20
BRANCH  18  22
ATOM     22  O   UNL     1       0.579   9.526  23.890  0.00  0.00    +0.000 OA
ATOM     23  H   UNL     1       0.047   8.765  24.180  0.00  0.00    +0.000 HD
ENDBRANCH  18  22
ENDBRANCH   2  14
TORSDOF 6
ENDMDL
MODEL 5
REMARK VINA RESULT:      -6.9      3.147      4.966
REMARK  Name = 
REMARK  9 active torsions:
REMARK  status: ('A' for Active; 'I' for Inactive)
REMARK    1  A    between atoms: C_1  and  O_2
REMARK    2  A    between atoms: O_2  and  C_3
REMARK    3  A    between atoms: C_6  and  C_7
REMARK    4  A    between atoms: C_8  and  C_9
REMARK    5  A    between atoms: C_8  and  C_10
REMARK    6  A    between atoms: C_12  and  O_13
REMARK    7  A    between atoms: C_15  and  O_16
REMARK    8  A    between atoms: C_19  and  O_20
REMARK    9  A    between atoms: O_20  and  C_21
REMARK                            x       y       z     vdW  Elec       q    Type
REMARK                         _______ _______ _______ _____ _____    ______ ____
ROOT
ATOM      1  C   UNL     1       3.138   7.518  18.344  0.00  0.00    +0.000 C 
ATOM      2  C   UNL     1       3.177   6.238  17.917  0.00  0.00    +0.000 C 
ATOM      3  C   UNL     1       2.135   5.173  18.097  0.00  0.00    +0.000 C 
ENDROOT
BRANCH   1   7
ATOM      4  C   UNL     1       0.067   9.616  20.496  0.00  0.00    +0.000 A 
ATOM      5  C   UNL     1       0.829   8.608  21.108  0.00  0.00    +0.000 A 
ATOM      6  C   UNL     1       1.814   7.920  20.392  0.00  0.00    +0.000 A 
ATOM      7  C   UNL     1       2.045   8.210  19.046  0.00  0.00    +0.000 A 
ATOM      8  C   UNL     1       1.273   9.207  18.444  0.00  0.00    +0.000 A 
ATOM      9  C   UNL     1       0.254   9.880  19.134  0.00  0.00    +0.000 A 
BRANCH   4  11
ATOM     10  C   UNL     1      -0.636  10.401  22.607  0.00  0.00    +0.000 C 
ATOM     11  O   UNL     1      -0.863  10.333  21.201  0.00  0.00    +0.000 OA
ENDBRANCH   4  11
BRANCH   9  12
ATOM     12  O   UNL     1      -0.415  10.757  18.323  0.00  0.00    +0.000 OA
ATOM     13  C   UNL     1      -1.528  10.296  17.578  0.00  0.00    +0.000 C 
ENDBRANCH   9  12
ENDBRANCH   1   7
BRANCH   2  14
ATOM     14  C   UNL     1       4.417   5.793  17.260  0.00  0.00    +0.000 A 
ATOM     15  C   UNL     1       4.496   4.491  16.747  0.00  0.00    +0.000 A 
ATOM     16  C   UNL     1       5.686   4.049  16.176  0.00  0.00    +0.000 A 
ATOM     17  C   UNL     1       6.796   4.884  16.093  0.00  0.00    +0.000 A 
ATOM     18  C   UNL     1       6.707   6.176  16.599  0.00  0.00    +0.000 A 
ATOM     19  C   UNL     1       5.530   6.638  17.183  0.00  0.00    +0.000 A 
BRANCH  16  20
ATOM     20  O   UNL     1       5.804   2.777  15.694  0.00  0.00    +0.000 OA
ATOM     21  H   UNL     1       5.658   2.796  14.732  0.00  0.00    +0.000 HD
ENDBRANCH  16  20
BRANCH  18  22
ATOM     22  O   UNL     1       7.774   7.025  16.551  0.00  0.00    +0.000 OA
ATOM     23  H   UNL     1       8.573   6.505  16.358  0.00  0.00    +0.000 HD
ENDBRANCH  18  22
ENDBRANCH   2  14
TORSDOF 6
ENDMDL
MODEL 6
REMARK VINA RESULT:      -6.9      2.911      8.253
REMARK  Name = 
REMARK  9 active torsions:
REMARK  status: ('A' for Active; 'I' for Inactive)
REMARK    1  A    between atoms: C_1  and  O_2
REMARK    2  A    between atoms: O_2  and  C_3
REMARK    3  A    between atoms: C_6  and  C_7
REMARK    4  A    between atoms: C_8  and  C_9
REMARK    5  A    between atoms: C_8  and  C_10
REMARK    6  A    between atoms: C_12  and  O_13
REMARK    7  A    between atoms: C_15  and  O_16
REMARK    8  A    between atoms: C_19  and  O_20
REMARK    9  A    between atoms: O_20  and  C_21
REMARK                            x       y       z     vdW  Elec       q    Type
REMARK                         _______ _______ _______ _____ _____    ______ ____
ROOT
ATOM      1  C   UNL     1       2.786   7.346  18.568  0.00  0.00    +0.000 C 
ATOM      2  C   UNL     1       2.134   7.173  19.738  0.00  0.00    +0.000 C 
ATOM      3  C   UNL     1       1.952   5.901  20.512  0.00  0.00    +0.000 C 
ENDROOT
BRANCH   1   7
ATOM      4  C   UNL     1       5.100   4.483  16.351  0.00  0.00    +0.000 A 
ATOM      5  C   UNL     1       5.237   5.863  16.127  0.00  0.00    +0.000 A 
ATOM      6  C   UNL     1       4.465   6.785  16.843  0.00  0.00    +0.000 A 
ATOM      7  C   UNL     1       3.528   6.347  17.782  0.00  0.00    +0.000 A 
ATOM      8  C   UNL     1       3.392   4.972  17.988  0.00  0.00    +0.000 A 
ATOM      9  C   UNL     1       4.128   4.032  17.252  0.00  0.00    +0.000 A 
BRANCH   4  11
ATOM     10  C   UNL     1       6.303   3.965  14.388  0.00  0.00    +0.000 C 
ATOM     11  O   UNL     1       5.887   3.574  15.695  0.00  0.00    +0.000 OA
ENDBRANCH   4  11
BRANCH   9  12
ATOM     12  O   UNL     1       3.774   2.749  17.570  0.00  0.00    +0.000 OA
ATOM     13  C   UNL     1       2.402   2.428  17.725  0.00  0.00    +0.000 C 
ENDBRANCH   9  12
ENDBRANCH   1   7
BRANCH   2  14
ATOM     14  C   UNL     1       1.448   8.349  20.297  0.00  0.00    +0.000 A 
ATOM     15  C   UNL     1       1.039   9.380  19.441  0.00  0.00    +0.000 A 
ATOM     16  C   UNL     1       0.440  10.518  19.972  0.00  0.00    +0.000 A 
ATOM     17  C   UNL     1       0.228  10.644  21.342  0.00  0.00    +0.000 A 
ATOM     18  C   UNL     1       0.631   9.614  22.184  0.00  0.00    +0.000 A 
ATOM     19  C   UNL     1       1.241   8.469  21.676  0.00  0.00    +0.000 A 
BRANCH  16  20
ATOM     20  O   UNL     1       0.057  11.552  19.167  0.00  0.00    +0.000 OA
ATOM     21  H   UNL     1      -0.903  11.490  19.020  0.00  0.00    +0.000 HD
ENDBRANCH  16  20
BRANCH  18  22
ATOM     22  O   UNL     1       0.455   9.699  23.534  0.00  0.00    +0.000 OA
ATOM     23  H   UNL     1       0.151  10.598  23.749  0.00  0.00    +0.000 HD
ENDBRANCH  18  22
ENDBRANCH   2  14
TORSDOF 6
ENDMDL
MODEL 7
REMARK VINA RESULT:      -6.9      2.879      8.189
REMARK  Name = 
REMARK  9 active torsions:
REMARK  status: ('A' for Active; 'I' for Inactive)
REMARK    1  A    between atoms: C_1  and  O_2
REMARK    2  A    between atoms: O_2  and  C_3
REMARK    3  A    between atoms: C_6  and  C_7
REMARK    4  A    between atoms: C_8  and  C_9
REMARK    5  A    between atoms: C_8  and  C_10
REMARK    6  A    between atoms: C_12  and  O_13
REMARK    7  A    between atoms: C_15  and  O_16
REMARK    8  A    between atoms: C_19  and  O_20
REMARK    9  A    between atoms: O_20  and  C_21
REMARK                            x       y       z     vdW  Elec       q    Type
REMARK                         _______ _______ _______ _____ _____    ______ ____
ROOT
ATOM      1  C   UNL     1       2.992   7.321  18.532  0.00  0.00    +0.000 C 
ATOM      2  C   UNL     1       2.250   7.103  19.638  0.00  0.00    +0.000 C 
ATOM      3  C   UNL     1       2.118   5.832  20.426  0.00  0.00    +0.000 C 
ENDROOT
BRANCH   1   7
ATOM      4  C   UNL     1       5.542   4.604  16.393  0.00  0.00    +0.000 A 
ATOM      5  C   UNL     1       4.249   4.231  16.790  0.00  0.00    +0.000 A 
ATOM      6  C   UNL     1       3.434   5.118  17.501  0.00  0.00    +0.000 A 
ATOM      7  C   UNL     1       3.901   6.388  17.847  0.00  0.00    +0.000 A 
ATOM      8  C   UNL     1       5.195   6.744  17.457  0.00  0.00    +0.000 A 
ATOM      9  C   UNL     1       6.040   5.854  16.778  0.00  0.00    +0.000 A 
BRANCH   4  11
ATOM     10  C   UNL     1       6.233   3.933  14.238  0.00  0.00    +0.000 C 
ATOM     11  O   UNL     1       6.329   3.763  15.651  0.00  0.00    +0.000 OA
ENDBRANCH   4  11
BRANCH   9  12
ATOM     12  O   UNL     1       7.281   6.393  16.568  0.00  0.00    +0.000 OA
ATOM     13  C   UNL     1       7.723   7.454  17.397  0.00  0.00    +0.000 C 
ENDBRANCH   9  12
ENDBRANCH   1   7
BRANCH   2  14
ATOM     14  C   UNL     1       1.399   8.214  20.098  0.00  0.00    +0.000 A 
ATOM     15  C   UNL     1       0.789   8.137  21.357  0.00  0.00    +0.000 A 
ATOM     16  C   UNL     1      -0.061   9.158  21.772  0.00  0.00    +0.000 A 
ATOM     17  C   UNL     1      -0.304  10.263  20.961  0.00  0.00    +0.000 A 
ATOM     18  C   UNL     1       0.310  10.334  19.716  0.00  0.00    +0.000 A 
ATOM     19  C   UNL     1       1.157   9.319  19.275  0.00  0.00    +0.000 A 
BRANCH  16  20
ATOM     20  O   UNL     1      -0.693   9.100  22.981  0.00  0.00    +0.000 OA
ATOM     21  H   UNL     1      -1.646   9.227  22.838  0.00  0.00    +0.000 HD
ENDBRANCH  16  20
BRANCH  18  22
ATOM     22  O   UNL     1       0.091  11.391  18.883  0.00  0.00    +0.000 OA
ATOM     23  H   UNL     1       0.671  11.297  18.108  0.00  0.00    +0.000 HD
ENDBRANCH  18  22
ENDBRANCH   2  14
TORSDOF 6
ENDMDL
MODEL 8
REMARK VINA RESULT:      -6.8      2.877      8.229
REMARK  Name = 
REMARK  9 active torsions:
REMARK  status: ('A' for Active; 'I' for Inactive)
REMARK    1  A    between atoms: C_1  and  O_2
REMARK    2  A    between atoms: O_2  and  C_3
REMARK    3  A    between atoms: C_6  and  C_7
REMARK    4  A    between atoms: C_8  and  C_9
REMARK    5  A    between atoms: C_8  and  C_10
REMARK    6  A    between atoms: C_12  and  O_13
REMARK    7  A    between atoms: C_15  and  O_16
REMARK    8  A    between atoms: C_19  and  O_20
REMARK    9  A    between atoms: O_20  and  C_21
REMARK                            x       y       z     vdW  Elec       q    Type
REMARK                         _______ _______ _______ _____ _____    ______ ____
ROOT
ATOM      1  C   UNL     1       2.952   7.291  18.517  0.00  0.00    +0.000 C 
ATOM      2  C   UNL     1       2.250   7.083  19.652  0.00  0.00    +0.000 C 
ATOM      3  C   UNL     1       2.190   5.837  20.485  0.00  0.00    +0.000 C 
ENDROOT
BRANCH   1   7
ATOM      4  C   UNL     1       5.548   4.607  16.392  0.00  0.00    +0.000 A 
ATOM      5  C   UNL     1       4.257   4.218  16.780  0.00  0.00    +0.000 A 
ATOM      6  C   UNL     1       3.427   5.095  17.487  0.00  0.00    +0.000 A 
ATOM      7  C   UNL     1       3.877   6.370  17.837  0.00  0.00    +0.000 A 
ATOM      8  C   UNL     1       5.168   6.741  17.456  0.00  0.00    +0.000 A 
ATOM      9  C   UNL     1       6.029   5.862  16.782  0.00  0.00    +0.000 A 
BRANCH   4  11
ATOM     10  C   UNL     1       6.251   3.937  14.241  0.00  0.00    +0.000 C 
ATOM     11  O   UNL     1       6.350   3.777  15.654  0.00  0.00    +0.000 OA
ENDBRANCH   4  11
BRANCH   9  12
ATOM     12  O   UNL     1       7.264   6.417  16.580  0.00  0.00    +0.000 OA
ATOM     13  C   UNL     1       7.684   7.488  17.406  0.00  0.00    +0.000 C 
ENDBRANCH   9  12
ENDBRANCH   1   7
BRANCH   2  14
ATOM     14  C   UNL     1       1.371   8.176  20.099  0.00  0.00    +0.000 A 
ATOM     15  C   UNL     1       1.202   9.302  19.282  0.00  0.00    +0.000 A 
ATOM     16  C   UNL     1       0.416  10.362  19.726  0.00  0.00    +0.000 A 
ATOM     17  C   UNL     1      -0.216  10.316  20.965  0.00  0.00    +0.000 A 
ATOM     18  C   UNL     1      -0.047   9.193  21.767  0.00  0.00    +0.000 A 
ATOM     19  C   UNL     1       0.741   8.124  21.348  0.00  0.00    +0.000 A 
BRANCH  16  20
ATOM     20  O   UNL     1       0.255  11.484  18.966  0.00  0.00    +0.000 OA
ATOM     21  H   UNL     1      -0.301  12.113  19.457  0.00  0.00    +0.000 HD
ENDBRANCH  16  20
BRANCH  18  22
ATOM     22  O   UNL     1      -0.636   9.110  22.994  0.00  0.00    +0.000 OA
ATOM     23  H   UNL     1      -0.741  10.011  23.347  0.00  0.00    +0.000 HD
ENDBRANCH  18  22
ENDBRANCH   2  14
TORSDOF 6
ENDMDL
MODEL 9
REMARK VINA RESULT:      -6.8      2.963      8.301
REMARK  Name = 
REMARK  9 active torsions:
REMARK  status: ('A' for Active; 'I' for Inactive)
REMARK    1  A    between atoms: C_1  and  O_2
REMARK    2  A    between atoms: O_2  and  C_3
REMARK    3  A    between atoms: C_6  and  C_7
REMARK    4  A    between atoms: C_8  and  C_9
REMARK    5  A    between atoms: C_8  and  C_10
REMARK    6  A    between atoms: C_12  and  O_13
REMARK    7  A    between atoms: C_15  and  O_16
REMARK    8  A    between atoms: C_19  and  O_20
REMARK    9  A    between atoms: O_20  and  C_21
REMARK                            x       y       z     vdW  Elec       q    Type
REMARK                         _______ _______ _______ _____ _____    ______ ____
ROOT
ATOM      1  C   UNL     1       2.779   7.444  18.577  0.00  0.00    +0.000 C 
ATOM      2  C   UNL     1       2.138   7.278  19.754  0.00  0.00    +0.000 C 
ATOM      3  C   UNL     1       1.965   6.012  20.540  0.00  0.00    +0.000 C 
ENDROOT
BRANCH   1   7
ATOM      4  C   UNL     1       5.072   4.553  16.376  0.00  0.00    +0.000 A 
ATOM      5  C   UNL     1       5.305   5.930  16.234  0.00  0.00    +0.000 A 
ATOM      6  C   UNL     1       4.540   6.863  16.944  0.00  0.00    +0.000 A 
ATOM      7  C   UNL     1       3.515   6.440  17.792  0.00  0.00    +0.000 A 
ATOM      8  C   UNL     1       3.284   5.067  17.916  0.00  0.00    +0.000 A 
ATOM      9  C   UNL     1       4.014   4.120  17.183  0.00  0.00    +0.000 A 
BRANCH   4  11
ATOM     10  C   UNL     1       6.143   3.934  14.366  0.00  0.00    +0.000 C 
ATOM     11  O   UNL     1       5.849   3.630  15.728  0.00  0.00    +0.000 OA
ENDBRANCH   4  11
BRANCH   9  12
ATOM     12  O   UNL     1       3.564   2.847  17.409  0.00  0.00    +0.000 OA
ATOM     13  C   UNL     1       2.250   2.656  17.904  0.00  0.00    +0.000 C 
ENDBRANCH   9  12
ENDBRANCH   1   7
BRANCH   2  14
ATOM     14  C   UNL     1       1.455   8.458  20.311  0.00  0.00    +0.000 A 
ATOM     15  C   UNL     1       1.257   8.548  21.695  0.00  0.00    +0.000 A 
ATOM     16  C   UNL     1       0.562   9.634  22.220  0.00  0.00    +0.000 A 
ATOM     17  C   UNL     1       0.071  10.639  21.393  0.00  0.00    +0.000 A 
ATOM     18  C   UNL     1       0.276  10.544  20.021  0.00  0.00    +0.000 A 
ATOM     19  C   UNL     1       0.961   9.463  19.472  0.00  0.00    +0.000 A 
BRANCH  16  20
ATOM     20  O   UNL     1       0.328   9.737  23.562  0.00  0.00    +0.000 OA
ATOM     21  H   UNL     1       0.657  10.599  23.868  0.00  0.00    +0.000 HD
ENDBRANCH  16  20
BRANCH  18  22
ATOM     22  O   UNL     1      -0.198  11.499  19.171  0.00  0.00    +0.000 OA
ATOM     23  H   UNL     1       0.126  11.303  18.276  0.00  0.00    +0.000 HD
ENDBRANCH  18  22
ENDBRANCH   2  14
TORSDOF 6
ENDMDL
