MODEL 1
REMARK VINA RESULT:      -7.3      0.000      0.000
REMARK  Name = 
REMARK  13 active torsions:
REMARK  status: ('A' for Active; 'I' for Inactive)
REMARK    1  A    between atoms: C_1  and  C_2
REMARK    2  A    between atoms: C_2  and  N_3
REMARK    3  A    between atoms: N_3  and  C_4
REMARK    4  A    between atoms: C_4  and  C_5
REMARK    5  A    between atoms: C_8  and  S_9
REMARK    6  A    between atoms: S_9  and  N_12
REMARK    7  A    between atoms: N_12  and  C_13
REMARK    8  A    between atoms: N_12  and  C_14
REMARK    9  A    between atoms: C_17  and  C_19
REMARK   10  A    between atoms: C_19  and  C_20
REMARK   11  A    between atoms: C_20  and  C_21
REMARK   12  A    between atoms: C_21  and  C_22
REMARK   13  A    between atoms: C_22  and  C_23
REMARK                            x       y       z     vdW  Elec       q    Type
REMARK                         _______ _______ _______ _____ _____    ______ ____
ROOT
ATOM      1  N   UNL     1       4.505   5.741  18.253  0.00  0.00    +0.000 N 
ATOM      2  C   UNL     1       5.406   6.586  17.592  0.00  0.00    +0.000 C 
ATOM      3  O   UNL     1       5.047   7.430  16.782  0.00  0.00    +0.000 OA
ENDROOT
BRANCH   1   5
ATOM      4  C   UNL     1       3.862   3.743  19.690  0.00  0.00    +0.000 C 
ATOM      5  C   UNL     1       4.920   4.760  19.270  0.00  0.00    +0.000 C 
ENDBRANCH   1   5
BRANCH   1   6
ATOM      6  C   UNL     1       3.085   5.844  17.889  0.00  0.00    +0.000 C 
BRANCH   6   7
ATOM      7  C   UNL     1       2.267   6.961  18.532  0.00  0.00    +0.000 A 
ATOM      8  C   UNL     1       2.054   7.027  19.920  0.00  0.00    +0.000 A 
ATOM      9  C   UNL     1       1.517   8.173  20.520  0.00  0.00    +0.000 A 
ATOM     10  C   UNL     1       1.215   9.287  19.738  0.00  0.00    +0.000 A 
ATOM     11  C   UNL     1       1.357   9.226  18.351  0.00  0.00    +0.000 A 
ATOM     12  C   UNL     1       1.885   8.073  17.755  0.00  0.00    +0.000 A 
BRANCH  10  13
ATOM     13  S   UNL     1       0.634  10.793  20.503  0.00  0.00    +0.000 S 
ATOM     14  O   UNL     1      -0.804  10.830  20.335  0.00  0.00    +0.000 OA
ATOM     15  O   UNL     1       1.238  10.881  21.817  0.00  0.00    +0.000 OA
BRANCH  13  16
ATOM     16  N   UNL     1       1.307  12.023  19.532  0.00  0.00    +0.000 NA
ATOM     17  C   UNL     1       0.406  12.698  18.579  0.00  0.00    +0.000 C 
ATOM     18  C   UNL     1       2.233  12.952  20.200  0.00  0.00    +0.000 C 
ENDBRANCH  13  16
ENDBRANCH  10  13
ENDBRANCH   6   7
ENDBRANCH   1   6
BRANCH   2  19
ATOM     19  C   UNL     1       6.878   6.404  17.937  0.00  0.00    +0.000 C 
BRANCH  19  20
ATOM     20  C   UNL     1       7.784   7.468  17.332  0.00  0.00    +0.000 C 
BRANCH  20  21
ATOM     21  C   UNL     1       8.312   8.385  18.433  0.00  0.00    +0.000 C 
BRANCH  21  22
ATOM     22  C   UNL     1       8.228   9.857  18.034  0.00  0.00    +0.000 C 
BRANCH  22  23
ATOM     23  C   UNL     1       9.378  10.608  18.652  0.00  0.00    +0.000 A 
ATOM     24  C   UNL     1       9.453  10.768  20.041  0.00  0.00    +0.000 A 
ATOM     25  C   UNL     1      10.441  11.577  20.601  0.00  0.00    +0.000 A 
ATOM     26  C   UNL     1      11.359  12.230  19.780  0.00  0.00    +0.000 A 
ATOM     27  C   UNL     1      11.306  12.056  18.398  0.00  0.00    +0.000 A 
ATOM     28  C   UNL     1      10.321  11.246  17.835  0.00  0.00    +0.000 A 
ENDBRANCH  22  23
ENDBRANCH  21  22
ENDBRANCH  20  21
ENDBRANCH  19  20
ENDBRANCH   2  19
TORSDOF 10
ENDMDL
MODEL 2
REMARK VINA RESULT:      -7.3      0.630      1.440
REMARK  Name = 
REMARK  13 active torsions:
REMARK  status: ('A' for Active; 'I' for Inactive)
REMARK    1  A    between atoms: C_1  and  C_2
REMARK    2  A    between atoms: C_2  and  N_3
REMARK    3  A    between atoms: N_3  and  C_4
REMARK    4  A    between atoms: C_4  and  C_5
REMARK    5  A    between atoms: C_8  and  S_9
REMARK    6  A    between atoms: S_9  and  N_12
REMARK    7  A    between atoms: N_12  and  C_13
REMARK    8  A    between atoms: N_12  and  C_14
REMARK    9  A    between atoms: C_17  and  C_19
REMARK   10  A    between atoms: C_19  and  C_20
REMARK   11  A    between atoms: C_20  and  C_21
REMARK   12  A    between atoms: C_21  and  C_22
REMARK   13  A    between atoms: C_22  and  C_23
REMARK                            x       y       z     vdW  Elec       q    Type
REMARK                         _______ _______ _______ _____ _____    ______ ____
ROOT
ATOM      1  N   UNL     1       4.624   6.006  18.332  0.00  0.00    +0.000 N 
ATOM      2  C   UNL     1       5.504   6.694  17.487  0.00  0.00    +0.000 C 
ATOM      3  O   UNL     1       5.119   7.449  16.605  0.00  0.00    +0.000 OA
ENDROOT
BRANCH   1   5
ATOM      4  C   UNL     1       4.526   3.714  19.432  0.00  0.00    +0.000 C 
ATOM      5  C   UNL     1       5.076   5.138  19.432  0.00  0.00    +0.000 C 
ENDBRANCH   1   5
BRANCH   1   6
ATOM      6  C   UNL     1       3.184   6.162  18.083  0.00  0.00    +0.000 C 
BRANCH   6   7
ATOM      7  C   UNL     1       2.512   7.440  18.577  0.00  0.00    +0.000 A 
ATOM      8  C   UNL     1       2.146   8.479  17.703  0.00  0.00    +0.000 A 
ATOM      9  C   UNL     1       1.321   9.528  18.126  0.00  0.00    +0.000 A 
ATOM     10  C   UNL     1       0.820   9.535  19.428  0.00  0.00    +0.000 A 
ATOM     11  C   UNL     1       1.218   8.550  20.333  0.00  0.00    +0.000 A 
ATOM     12  C   UNL     1       2.053   7.509  19.908  0.00  0.00    +0.000 A 
BRANCH  10  13
ATOM     13  S   UNL     1      -0.322  10.806  19.947  0.00  0.00    +0.000 S 
ATOM     14  O   UNL     1      -1.491  10.701  19.099  0.00  0.00    +0.000 OA
ATOM     15  O   UNL     1      -0.434  10.734  21.389  0.00  0.00    +0.000 OA
BRANCH  13  16
ATOM     16  N   UNL     1       0.483  12.256  19.554  0.00  0.00    +0.000 NA
ATOM     17  C   UNL     1      -0.323  13.330  18.943  0.00  0.00    +0.000 C 
ATOM     18  C   UNL     1       1.450  12.757  20.544  0.00  0.00    +0.000 C 
ENDBRANCH  13  16
ENDBRANCH  10  13
ENDBRANCH   6   7
ENDBRANCH   1   6
BRANCH   2  19
ATOM     19  C   UNL     1       6.990   6.454  17.723  0.00  0.00    +0.000 C 
BRANCH  19  20
ATOM     20  C   UNL     1       7.882   7.563  17.182  0.00  0.00    +0.000 C 
BRANCH  20  21
ATOM     21  C   UNL     1       8.422   8.403  18.336  0.00  0.00    +0.000 C 
BRANCH  21  22
ATOM     22  C   UNL     1       8.149   9.892  18.131  0.00  0.00    +0.000 C 
BRANCH  22  23
ATOM     23  C   UNL     1       9.305  10.691  18.673  0.00  0.00    +0.000 A 
ATOM     24  C   UNL     1      10.364  11.062  17.834  0.00  0.00    +0.000 A 
ATOM     25  C   UNL     1      11.494  11.681  18.364  0.00  0.00    +0.000 A 
ATOM     26  C   UNL     1      11.576  11.935  19.731  0.00  0.00    +0.000 A 
ATOM     27  C   UNL     1      10.517  11.591  20.570  0.00  0.00    +0.000 A 
ATOM     28  C   UNL     1       9.384  10.974  20.043  0.00  0.00    +0.000 A 
ENDBRANCH  22  23
ENDBRANCH  21  22
ENDBRANCH  20  21
ENDBRANCH  19  20
ENDBRANCH   2  19
TORSDOF 10
ENDMDL
MODEL 3
REMARK VINA RESULT:      -7.2      4.816      7.702
REMARK  Name = 
REMARK  13 active torsions:
REMARK  status: ('A' for Active; 'I' for Inactive)
REMARK    1  A    between atoms: C_1  and  C_2
REMARK    2  A    between atoms: C_2  and  N_3
REMARK    3  A    between atoms: N_3  and  C_4
REMARK    4  A    between atoms: C_4  and  C_5
REMARK    5  A    between atoms: C_8  and  S_9
REMARK    6  A    between atoms: S_9  and  N_12
REMARK    7  A    between atoms: N_12  and  C_13
REMARK    8  A    between atoms: N_12  and  C_14
REMARK    9  A    between atoms: C_17  and  C_19
REMARK   10  A    between atoms: C_19  and  C_20
REMARK   11  A    between atoms: C_20  and  C_21
REMARK   12  A    between atoms: C_21  and  C_22
REMARK   13  A    between atoms: C_22  and  C_23
REMARK                            x       y       z     vdW  Elec       q    Type
REMARK                         _______ _______ _______ _____ _____    ______ ____
ROOT
ATOM      1  N   UNL     1       0.906   9.549  19.191  0.00  0.00    +0.000 N 
ATOM      2  C   UNL     1       1.829   8.950  18.324  0.00  0.00    +0.000 C 
ATOM      3  O   UNL     1       2.188   9.472  17.278  0.00  0.00    +0.000 OA
ENDROOT
BRANCH   1   5
ATOM      4  C   UNL     1       0.948   9.715  21.729  0.00  0.00    +0.000 C 
ATOM      5  C   UNL     1       0.508   8.957  20.479  0.00  0.00    +0.000 C 
ENDBRANCH   1   5
BRANCH   1   6
ATOM      6  C   UNL     1       0.308  10.824  18.768  0.00  0.00    +0.000 C 
BRANCH   6   7
ATOM      7  C   UNL     1      -1.213  10.939  18.800  0.00  0.00    +0.000 A 
ATOM      8  C   UNL     1      -1.873  11.919  19.562  0.00  0.00    +0.000 A 
ATOM      9  C   UNL     1      -3.242  12.170  19.395  0.00  0.00    +0.000 A 
ATOM     10  C   UNL     1      -3.964  11.463  18.435  0.00  0.00    +0.000 A 
ATOM     11  C   UNL     1      -3.348  10.442  17.711  0.00  0.00    +0.000 A 
ATOM     12  C   UNL     1      -1.982  10.187  17.889  0.00  0.00    +0.000 A 
BRANCH  10  13
ATOM     13  S   UNL     1      -5.682  11.850  18.135  0.00  0.00    +0.000 S 
ATOM     14  O   UNL     1      -5.738  12.623  16.912  0.00  0.00    +0.000 OA
ATOM     15  O   UNL     1      -6.441  10.625  18.284  0.00  0.00    +0.000 OA
BRANCH  13  16
ATOM     16  N   UNL     1      -6.093  12.883  19.428  0.00  0.00    +0.000 NA
ATOM     17  C   UNL     1      -6.466  14.270  19.089  0.00  0.00    +0.000 C 
ATOM     18  C   UNL     1      -6.939  12.305  20.484  0.00  0.00    +0.000 C 
ENDBRANCH  13  16
ENDBRANCH  10  13
ENDBRANCH   6   7
ENDBRANCH   1   6
BRANCH   2  19
ATOM     19  C   UNL     1       2.375   7.595  18.755  0.00  0.00    +0.000 C 
BRANCH  19  20
ATOM     20  C   UNL     1       3.167   6.881  17.667  0.00  0.00    +0.000 C 
BRANCH  20  21
ATOM     21  C   UNL     1       4.289   6.060  18.297  0.00  0.00    +0.000 C 
BRANCH  21  22
ATOM     22  C   UNL     1       4.170   4.577  17.949  0.00  0.00    +0.000 C 
BRANCH  22  23
ATOM     23  C   UNL     1       3.042   3.968  18.740  0.00  0.00    +0.000 A 
ATOM     24  C   UNL     1       2.003   3.293  18.084  0.00  0.00    +0.000 A 
ATOM     25  C   UNL     1       0.894   2.849  18.802  0.00  0.00    +0.000 A 
ATOM     26  C   UNL     1       0.813   3.074  20.175  0.00  0.00    +0.000 A 
ATOM     27  C   UNL     1       1.853   3.722  20.838  0.00  0.00    +0.000 A 
ATOM     28  C   UNL     1       2.965   4.166  20.124  0.00  0.00    +0.000 A 
ENDBRANCH  22  23
ENDBRANCH  21  22
ENDBRANCH  20  21
ENDBRANCH  19  20
ENDBRANCH   2  19
TORSDOF 10
ENDMDL
MODEL 4
REMARK VINA RESULT:      -7.2      0.701      1.143
REMARK  Name = 
REMARK  13 active torsions:
REMARK  status: ('A' for Active; 'I' for Inactive)
REMARK    1  A    between atoms: C_1  and  C_2
REMARK    2  A    between atoms: C_2  and  N_3
REMARK    3  A    between atoms: N_3  and  C_4
REMARK    4  A    between atoms: C_4  and  C_5
REMARK    5  A    between atoms: C_8  and  S_9
REMARK    6  A    between atoms: S_9  and  N_12
REMARK    7  A    between atoms: N_12  and  C_13
REMARK    8  A    between atoms: N_12  and  C_14
REMARK    9  A    between atoms: C_17  and  C_19
REMARK   10  A    between atoms: C_19  and  C_20
REMARK   11  A    between atoms: C_20  and  C_21
REMARK   12  A    between atoms: C_21  and  C_22
REMARK   13  A    between atoms: C_22  and  C_23
REMARK                            x       y       z     vdW  Elec       q    Type
REMARK                         _______ _______ _______ _____ _____    ______ ____
ROOT
ATOM      1  N   UNL     1       4.462   5.938  18.278  0.00  0.00    +0.000 N 
ATOM      2  C   UNL     1       5.323   6.413  17.281  0.00  0.00    +0.000 C 
ATOM      3  O   UNL     1       4.933   7.087  16.338  0.00  0.00    +0.000 OA
ENDROOT
BRANCH   1   5
ATOM      4  C   UNL     1       4.671   3.669  19.408  0.00  0.00    +0.000 C 
ATOM      5  C   UNL     1       4.928   5.173  19.447  0.00  0.00    +0.000 C 
ENDBRANCH   1   5
BRANCH   1   6
ATOM      6  C   UNL     1       3.027   6.217  18.125  0.00  0.00    +0.000 C 
BRANCH   6   7
ATOM      7  C   UNL     1       2.498   7.538  18.677  0.00  0.00    +0.000 A 
ATOM      8  C   UNL     1       2.311   8.668  17.862  0.00  0.00    +0.000 A 
ATOM      9  C   UNL     1       1.603   9.787  18.321  0.00  0.00    +0.000 A 
ATOM     10  C   UNL     1       1.042   9.776  19.597  0.00  0.00    +0.000 A 
ATOM     11  C   UNL     1       1.267   8.694  20.449  0.00  0.00    +0.000 A 
ATOM     12  C   UNL     1       1.984   7.582  19.989  0.00  0.00    +0.000 A 
BRANCH  10  13
ATOM     13  S   UNL     1       0.044  11.149  20.154  0.00  0.00    +0.000 S 
ATOM     14  O   UNL     1      -1.340  10.730  20.075  0.00  0.00    +0.000 OA
ATOM     15  O   UNL     1       0.612  11.630  21.397  0.00  0.00    +0.000 OA
BRANCH  13  16
ATOM     16  N   UNL     1       0.300  12.342  18.963  0.00  0.00    +0.000 NA
ATOM     17  C   UNL     1      -0.874  12.779  18.184  0.00  0.00    +0.000 C 
ATOM     18  C   UNL     1       1.190  13.455  19.331  0.00  0.00    +0.000 C 
ENDBRANCH  13  16
ENDBRANCH  10  13
ENDBRANCH   6   7
ENDBRANCH   1   6
BRANCH   2  19
ATOM     19  C   UNL     1       6.794   6.045  17.429  0.00  0.00    +0.000 C 
BRANCH  19  20
ATOM     20  C   UNL     1       7.747   7.153  17.004  0.00  0.00    +0.000 C 
BRANCH  20  21
ATOM     21  C   UNL     1       8.001   8.096  18.178  0.00  0.00    +0.000 C 
BRANCH  21  22
ATOM     22  C   UNL     1       8.027   9.558  17.735  0.00  0.00    +0.000 C 
BRANCH  22  23
ATOM     23  C   UNL     1       9.137  10.278  18.455  0.00  0.00    +0.000 A 
ATOM     24  C   UNL     1       9.156  10.328  19.854  0.00  0.00    +0.000 A 
ATOM     25  C   UNL     1      10.105  11.107  20.515  0.00  0.00    +0.000 A 
ATOM     26  C   UNL     1      11.039  11.840  19.785  0.00  0.00    +0.000 A 
ATOM     27  C   UNL     1      11.042  11.777  18.393  0.00  0.00    +0.000 A 
ATOM     28  C   UNL     1      10.096  10.997  17.729  0.00  0.00    +0.000 A 
ENDBRANCH  22  23
ENDBRANCH  21  22
ENDBRANCH  20  21
ENDBRANCH  19  20
ENDBRANCH   2  19
TORSDOF 10
ENDMDL
MODEL 5
REMARK VINA RESULT:      -7.1      1.595      2.242
REMARK  Name = 
REMARK  13 active torsions:
REMARK  status: ('A' for Active; 'I' for Inactive)
REMARK    1  A    between atoms: C_1  and  C_2
REMARK    2  A    between atoms: C_2  and  N_3
REMARK    3  A    between atoms: N_3  and  C_4
REMARK    4  A    between atoms: C_4  and  C_5
REMARK    5  A    between atoms: C_8  and  S_9
REMARK    6  A    between atoms: S_9  and  N_12
REMARK    7  A    between atoms: N_12  and  C_13
REMARK    8  A    between atoms: N_12  and  C_14
REMARK    9  A    between atoms: C_17  and  C_19
REMARK   10  A    between atoms: C_19  and  C_20
REMARK   11  A    between atoms: C_20  and  C_21
REMARK   12  A    between atoms: C_21  and  C_22
REMARK   13  A    between atoms: C_22  and  C_23
REMARK                            x       y       z     vdW  Elec       q    Type
REMARK                         _______ _______ _______ _____ _____    ______ ____
ROOT
ATOM      1  N   UNL     1       5.521   5.563  17.584  0.00  0.00    +0.000 N 
ATOM      2  C   UNL     1       6.443   5.982  18.552  0.00  0.00    +0.000 C 
ATOM      3  O   UNL     1       6.295   5.758  19.746  0.00  0.00    +0.000 OA
ENDROOT
BRANCH   1   5
ATOM      4  C   UNL     1       4.841   6.855  15.501  0.00  0.00    +0.000 C 
ATOM      5  C   UNL     1       5.714   5.779  16.140  0.00  0.00    +0.000 C 
ENDBRANCH   1   5
BRANCH   1   6
ATOM      6  C   UNL     1       4.302   4.889  18.055  0.00  0.00    +0.000 C 
BRANCH   6   7
ATOM      7  C   UNL     1       3.242   5.742  18.748  0.00  0.00    +0.000 A 
ATOM      8  C   UNL     1       2.655   5.359  19.967  0.00  0.00    +0.000 A 
ATOM      9  C   UNL     1       1.873   6.253  20.710  0.00  0.00    +0.000 A 
ATOM     10  C   UNL     1       1.695   7.560  20.257  0.00  0.00    +0.000 A 
ATOM     11  C   UNL     1       2.214   7.946  19.020  0.00  0.00    +0.000 A 
ATOM     12  C   UNL     1       2.986   7.045  18.276  0.00  0.00    +0.000 A 
BRANCH  10  13
ATOM     13  S   UNL     1       0.795   8.742  21.248  0.00  0.00    +0.000 S 
ATOM     14  O   UNL     1      -0.517   8.181  21.494  0.00  0.00    +0.000 OA
ATOM     15  O   UNL     1       1.655   9.146  22.341  0.00  0.00    +0.000 OA
BRANCH  13  16
ATOM     16  N   UNL     1       0.607  10.080  20.207  0.00  0.00    +0.000 NA
ATOM     17  C   UNL     1      -0.650  10.164  19.439  0.00  0.00    +0.000 C 
ATOM     18  C   UNL     1       1.048  11.383  20.729  0.00  0.00    +0.000 C 
ENDBRANCH  13  16
ENDBRANCH  10  13
ENDBRANCH   6   7
ENDBRANCH   1   6
BRANCH   2  19
ATOM     19  C   UNL     1       7.659   6.742  18.040  0.00  0.00    +0.000 C 
BRANCH  19  20
ATOM     20  C   UNL     1       7.361   8.186  17.658  0.00  0.00    +0.000 C 
BRANCH  20  21
ATOM     21  C   UNL     1       8.639   9.017  17.744  0.00  0.00    +0.000 C 
BRANCH  21  22
ATOM     22  C   UNL     1       8.887   9.529  19.162  0.00  0.00    +0.000 C 
BRANCH  22  23
ATOM     23  C   UNL     1       9.787  10.735  19.107  0.00  0.00    +0.000 A 
ATOM     24  C   UNL     1      10.272  11.200  17.878  0.00  0.00    +0.000 A 
ATOM     25  C   UNL     1      11.211  12.230  17.839  0.00  0.00    +0.000 A 
ATOM     26  C   UNL     1      11.672  12.802  19.023  0.00  0.00    +0.000 A 
ATOM     27  C   UNL     1      11.176  12.362  20.249  0.00  0.00    +0.000 A 
ATOM     28  C   UNL     1      10.235  11.334  20.292  0.00  0.00    +0.000 A 
ENDBRANCH  22  23
ENDBRANCH  21  22
ENDBRANCH  20  21
ENDBRANCH  19  20
ENDBRANCH   2  19
TORSDOF 10
ENDMDL
MODEL 6
REMARK VINA RESULT:      -7.0      3.458      6.016
REMARK  Name = 
REMARK  13 active torsions:
REMARK  status: ('A' for Active; 'I' for Inactive)
REMARK    1  A    between atoms: C_1  and  C_2
REMARK    2  A    between atoms: C_2  and  N_3
REMARK    3  A    between atoms: N_3  and  C_4
REMARK    4  A    between atoms: C_4  and  C_5
REMARK    5  A    between atoms: C_8  and  S_9
REMARK    6  A    between atoms: S_9  and  N_12
REMARK    7  A    between atoms: N_12  and  C_13
REMARK    8  A    between atoms: N_12  and  C_14
REMARK    9  A    between atoms: C_17  and  C_19
REMARK   10  A    between atoms: C_19  and  C_20
REMARK   11  A    between atoms: C_20  and  C_21
REMARK   12  A    between atoms: C_21  and  C_22
REMARK   13  A    between atoms: C_22  and  C_23
REMARK                            x       y       z     vdW  Elec       q    Type
REMARK                         _______ _______ _______ _____ _____    ______ ____
ROOT
ATOM      1  N   UNL     1       1.210   9.291  19.770  0.00  0.00    +0.000 N 
ATOM      2  C   UNL     1       1.989   8.580  18.849  0.00  0.00    +0.000 C 
ATOM      3  O   UNL     1       2.448   9.093  17.837  0.00  0.00    +0.000 OA
ENDROOT
BRANCH   1   5
ATOM      4  C   UNL     1       0.556   9.653  22.202  0.00  0.00    +0.000 C 
ATOM      5  C   UNL     1       0.699   8.700  21.019  0.00  0.00    +0.000 C 
ENDBRANCH   1   5
BRANCH   1   6
ATOM      6  C   UNL     1       0.888  10.690  19.451  0.00  0.00    +0.000 C 
BRANCH   6   7
ATOM      7  C   UNL     1      -0.511  10.993  18.924  0.00  0.00    +0.000 A 
ATOM      8  C   UNL     1      -1.170  10.142  18.018  0.00  0.00    +0.000 A 
ATOM      9  C   UNL     1      -2.533  10.298  17.733  0.00  0.00    +0.000 A 
ATOM     10  C   UNL     1      -3.266  11.293  18.379  0.00  0.00    +0.000 A 
ATOM     11  C   UNL     1      -2.623  12.190  19.233  0.00  0.00    +0.000 A 
ATOM     12  C   UNL     1      -1.258  12.036  19.507  0.00  0.00    +0.000 A 
BRANCH  10  13
ATOM     13  S   UNL     1      -5.026  11.433  18.109  0.00  0.00    +0.000 S 
ATOM     14  O   UNL     1      -5.212  11.978  16.781  0.00  0.00    +0.000 OA
ATOM     15  O   UNL     1      -5.632  10.175  18.495  0.00  0.00    +0.000 OA
BRANCH  13  16
ATOM     16  N   UNL     1      -5.513  12.617  19.235  0.00  0.00    +0.000 NA
ATOM     17  C   UNL     1      -6.312  13.747  18.722  0.00  0.00    +0.000 C 
ATOM     18  C   UNL     1      -5.988  12.125  20.538  0.00  0.00    +0.000 C 
ENDBRANCH  13  16
ENDBRANCH  10  13
ENDBRANCH   6   7
ENDBRANCH   1   6
BRANCH   2  19
ATOM     19  C   UNL     1       2.244   7.114  19.171  0.00  0.00    +0.000 C 
BRANCH  19  20
ATOM     20  C   UNL     1       2.399   6.234  17.938  0.00  0.00    +0.000 C 
BRANCH  20  21
ATOM     21  C   UNL     1       3.290   5.038  18.264  0.00  0.00    +0.000 C 
BRANCH  21  22
ATOM     22  C   UNL     1       4.427   4.887  17.254  0.00  0.00    +0.000 C 
BRANCH  22  23
ATOM     23  C   UNL     1       5.631   5.651  17.740  0.00  0.00    +0.000 A 
ATOM     24  C   UNL     1       6.064   6.795  17.058  0.00  0.00    +0.000 A 
ATOM     25  C   UNL     1       7.254   7.422  17.426  0.00  0.00    +0.000 A 
ATOM     26  C   UNL     1       8.018   6.911  18.474  0.00  0.00    +0.000 A 
ATOM     27  C   UNL     1       7.582   5.787  19.173  0.00  0.00    +0.000 A 
ATOM     28  C   UNL     1       6.391   5.160  18.809  0.00  0.00    +0.000 A 
ENDBRANCH  22  23
ENDBRANCH  21  22
ENDBRANCH  20  21
ENDBRANCH  19  20
ENDBRANCH   2  19
TORSDOF 10
ENDMDL
MODEL 7
REMARK VINA RESULT:      -6.9      3.015      4.112
REMARK  Name = 
REMARK  13 active torsions:
REMARK  status: ('A' for Active; 'I' for Inactive)
REMARK    1  A    between atoms: C_1  and  C_2
REMARK    2  A    between atoms: C_2  and  N_3
REMARK    3  A    between atoms: N_3  and  C_4
REMARK    4  A    between atoms: C_4  and  C_5
REMARK    5  A    between atoms: C_8  and  S_9
REMARK    6  A    between atoms: S_9  and  N_12
REMARK    7  A    between atoms: N_12  and  C_13
REMARK    8  A    between atoms: N_12  and  C_14
REMARK    9  A    between atoms: C_17  and  C_19
REMARK   10  A    between atoms: C_19  and  C_20
REMARK   11  A    between atoms: C_20  and  C_21
REMARK   12  A    between atoms: C_21  and  C_22
REMARK   13  A    between atoms: C_22  and  C_23
REMARK                            x       y       z     vdW  Elec       q    Type
REMARK                         _______ _______ _______ _____ _____    ______ ____
ROOT
ATOM      1  N   UNL     1       2.479   4.832  19.315  0.00  0.00    +0.000 N 
ATOM      2  C   UNL     1       3.837   4.813  18.973  0.00  0.00    +0.000 C 
ATOM      3  O   UNL     1       4.695   5.370  19.643  0.00  0.00    +0.000 OA
ENDROOT
BRANCH   1   5
ATOM      4  C   UNL     1       0.973   2.789  19.132  0.00  0.00    +0.000 C 
ATOM      5  C   UNL     1       1.444   4.118  18.548  0.00  0.00    +0.000 C 
ENDBRANCH   1   5
BRANCH   1   6
ATOM      6  C   UNL     1       2.088   5.618  20.494  0.00  0.00    +0.000 C 
BRANCH   6   7
ATOM      7  C   UNL     1       1.589   7.042  20.264  0.00  0.00    +0.000 A 
ATOM      8  C   UNL     1       0.993   7.800  21.288  0.00  0.00    +0.000 A 
ATOM      9  C   UNL     1       0.764   9.174  21.135  0.00  0.00    +0.000 A 
ATOM     10  C   UNL     1       1.159   9.817  19.963  0.00  0.00    +0.000 A 
ATOM     11  C   UNL     1       1.693   9.076  18.907  0.00  0.00    +0.000 A 
ATOM     12  C   UNL     1       1.911   7.701  19.061  0.00  0.00    +0.000 A 
BRANCH  10  13
ATOM     13  S   UNL     1       0.974  11.585  19.800  0.00  0.00    +0.000 S 
ATOM     14  O   UNL     1       1.320  12.171  21.078  0.00  0.00    +0.000 OA
ATOM     15  O   UNL     1       1.650  11.988  18.583  0.00  0.00    +0.000 OA
BRANCH  13  16
ATOM     16  N   UNL     1      -0.702  11.795  19.563  0.00  0.00    +0.000 NA
ATOM     17  C   UNL     1      -1.352  10.934  18.556  0.00  0.00    +0.000 C 
ATOM     18  C   UNL     1      -1.517  11.975  20.774  0.00  0.00    +0.000 C 
ENDBRANCH  13  16
ENDBRANCH  10  13
ENDBRANCH   6   7
ENDBRANCH   1   6
BRANCH   2  19
ATOM     19  C   UNL     1       4.201   4.051  17.705  0.00  0.00    +0.000 C 
BRANCH  19  20
ATOM     20  C   UNL     1       4.642   4.949  16.557  0.00  0.00    +0.000 C 
BRANCH  20  21
ATOM     21  C   UNL     1       5.241   4.102  15.437  0.00  0.00    +0.000 C 
BRANCH  21  22
ATOM     22  C   UNL     1       6.749   4.307  15.316  0.00  0.00    +0.000 C 
BRANCH  22  23
ATOM     23  C   UNL     1       7.236   5.135  16.477  0.00  0.00    +0.000 A 
ATOM     24  C   UNL     1       7.707   4.514  17.640  0.00  0.00    +0.000 A 
ATOM     25  C   UNL     1       8.028   5.277  18.762  0.00  0.00    +0.000 A 
ATOM     26  C   UNL     1       7.881   6.663  18.730  0.00  0.00    +0.000 A 
ATOM     27  C   UNL     1       7.436   7.291  17.569  0.00  0.00    +0.000 A 
ATOM     28  C   UNL     1       7.116   6.531  16.444  0.00  0.00    +0.000 A 
ENDBRANCH  22  23
ENDBRANCH  21  22
ENDBRANCH  20  21
ENDBRANCH  19  20
ENDBRANCH   2  19
TORSDOF 10
ENDMDL
MODEL 8
REMARK VINA RESULT:      -6.9      3.184      4.654
REMARK  Name = 
REMARK  13 active torsions:
REMARK  status: ('A' for Active; 'I' for Inactive)
REMARK    1  A    between atoms: C_1  and  C_2
REMARK    2  A    between atoms: C_2  and  N_3
REMARK    3  A    between atoms: N_3  and  C_4
REMARK    4  A    between atoms: C_4  and  C_5
REMARK    5  A    between atoms: C_8  and  S_9
REMARK    6  A    between atoms: S_9  and  N_12
REMARK    7  A    between atoms: N_12  and  C_13
REMARK    8  A    between atoms: N_12  and  C_14
REMARK    9  A    between atoms: C_17  and  C_19
REMARK   10  A    between atoms: C_19  and  C_20
REMARK   11  A    between atoms: C_20  and  C_21
REMARK   12  A    between atoms: C_21  and  C_22
REMARK   13  A    between atoms: C_22  and  C_23
REMARK                            x       y       z     vdW  Elec       q    Type
REMARK                         _______ _______ _______ _____ _____    ______ ____
ROOT
ATOM      1  N   UNL     1       2.942   4.527  19.499  0.00  0.00    +0.000 N 
ATOM      2  C   UNL     1       3.954   3.566  19.375  0.00  0.00    +0.000 C 
ATOM      3  O   UNL     1       5.103   3.767  19.743  0.00  0.00    +0.000 OA
ENDROOT
BRANCH   1   5
ATOM      4  C   UNL     1       0.635   3.717  20.203  0.00  0.00    +0.000 C 
ATOM      5  C   UNL     1       1.543   4.278  19.112  0.00  0.00    +0.000 C 
ENDBRANCH   1   5
BRANCH   1   6
ATOM      6  C   UNL     1       3.318   5.844  20.033  0.00  0.00    +0.000 C 
BRANCH   6   7
ATOM      7  C   UNL     1       2.409   7.027  19.709  0.00  0.00    +0.000 A 
ATOM      8  C   UNL     1       1.626   7.658  20.692  0.00  0.00    +0.000 A 
ATOM      9  C   UNL     1       0.990   8.881  20.439  0.00  0.00    +0.000 A 
ATOM     10  C   UNL     1       1.157   9.507  19.205  0.00  0.00    +0.000 A 
ATOM     11  C   UNL     1       1.876   8.871  18.192  0.00  0.00    +0.000 A 
ATOM     12  C   UNL     1       2.501   7.644  18.445  0.00  0.00    +0.000 A 
BRANCH  10  13
ATOM     13  S   UNL     1       0.445  11.118  18.908  0.00  0.00    +0.000 S 
ATOM     14  O   UNL     1       1.493  11.955  18.364  0.00  0.00    +0.000 OA
ATOM     15  O   UNL     1      -0.803  10.923  18.199  0.00  0.00    +0.000 OA
BRANCH  13  16
ATOM     16  N   UNL     1       0.075  11.689  20.472  0.00  0.00    +0.000 NA
ATOM     17  C   UNL     1       0.866  12.827  20.978  0.00  0.00    +0.000 C 
ATOM     18  C   UNL     1      -1.353  11.788  20.813  0.00  0.00    +0.000 C 
ENDBRANCH  13  16
ENDBRANCH  10  13
ENDBRANCH   6   7
ENDBRANCH   1   6
BRANCH   2  19
ATOM     19  C   UNL     1       3.548   2.238  18.751  0.00  0.00    +0.000 C 
BRANCH  19  20
ATOM     20  C   UNL     1       4.014   2.071  17.311  0.00  0.00    +0.000 C 
BRANCH  20  21
ATOM     21  C   UNL     1       3.863   3.392  16.562  0.00  0.00    +0.000 C 
BRANCH  21  22
ATOM     22  C   UNL     1       5.151   3.786  15.842  0.00  0.00    +0.000 C 
BRANCH  22  23
ATOM     23  C   UNL     1       5.845   4.874  16.617  0.00  0.00    +0.000 A 
ATOM     24  C   UNL     1       5.387   6.196  16.546  0.00  0.00    +0.000 A 
ATOM     25  C   UNL     1       6.109   7.222  17.153  0.00  0.00    +0.000 A 
ATOM     26  C   UNL     1       7.290   6.937  17.835  0.00  0.00    +0.000 A 
ATOM     27  C   UNL     1       7.740   5.622  17.932  0.00  0.00    +0.000 A 
ATOM     28  C   UNL     1       7.020   4.593  17.328  0.00  0.00    +0.000 A 
ENDBRANCH  22  23
ENDBRANCH  21  22
ENDBRANCH  20  21
ENDBRANCH  19  20
ENDBRANCH   2  19
TORSDOF 10
ENDMDL
MODEL 9
REMARK VINA RESULT:      -6.9      1.206      1.495
REMARK  Name = 
REMARK  13 active torsions:
REMARK  status: ('A' for Active; 'I' for Inactive)
REMARK    1  A    between atoms: C_1  and  C_2
REMARK    2  A    between atoms: C_2  and  N_3
REMARK    3  A    between atoms: N_3  and  C_4
REMARK    4  A    between atoms: C_4  and  C_5
REMARK    5  A    between atoms: C_8  and  S_9
REMARK    6  A    between atoms: S_9  and  N_12
REMARK    7  A    between atoms: N_12  and  C_13
REMARK    8  A    between atoms: N_12  and  C_14
REMARK    9  A    between atoms: C_17  and  C_19
REMARK   10  A    between atoms: C_19  and  C_20
REMARK   11  A    between atoms: C_20  and  C_21
REMARK   12  A    between atoms: C_21  and  C_22
REMARK   13  A    between atoms: C_22  and  C_23
REMARK                            x       y       z     vdW  Elec       q    Type
REMARK                         _______ _______ _______ _____ _____    ______ ____
ROOT
ATOM      1  N   UNL     1       5.026   6.106  18.089  0.00  0.00    +0.000 N 
ATOM      2  C   UNL     1       5.944   6.842  17.330  0.00  0.00    +0.000 C 
ATOM      3  O   UNL     1       5.615   7.511  16.360  0.00  0.00    +0.000 OA
ENDROOT
BRANCH   1   5
ATOM      4  C   UNL     1       4.823   3.933  19.397  0.00  0.00    +0.000 C 
ATOM      5  C   UNL     1       5.401   5.342  19.291  0.00  0.00    +0.000 C 
ENDBRANCH   1   5
BRANCH   1   6
ATOM      6  C   UNL     1       3.626   6.097  17.638  0.00  0.00    +0.000 C 
BRANCH   6   7
ATOM      7  C   UNL     1       2.652   7.048  18.329  0.00  0.00    +0.000 A 
ATOM      8  C   UNL     1       2.229   6.849  19.656  0.00  0.00    +0.000 A 
ATOM      9  C   UNL     1       1.536   7.846  20.355  0.00  0.00    +0.000 A 
ATOM     10  C   UNL     1       1.286   9.074  19.744  0.00  0.00    +0.000 A 
ATOM     11  C   UNL     1       1.639   9.274  18.408  0.00  0.00    +0.000 A 
ATOM     12  C   UNL     1       2.322   8.270  17.710  0.00  0.00    +0.000 A 
BRANCH  10  13
ATOM     13  S   UNL     1       0.503  10.393  20.659  0.00  0.00    +0.000 S 
ATOM     14  O   UNL     1      -0.372   9.775  21.633  0.00  0.00    +0.000 OA
ATOM     15  O   UNL     1       1.538  11.322  21.065  0.00  0.00    +0.000 OA
BRANCH  13  16
ATOM     16  N   UNL     1      -0.471  11.169  19.494  0.00  0.00    +0.000 NA
ATOM     17  C   UNL     1      -1.537  10.366  18.865  0.00  0.00    +0.000 C 
ATOM     18  C   UNL     1      -0.897  12.542  19.807  0.00  0.00    +0.000 C 
ENDBRANCH  13  16
ENDBRANCH  10  13
ENDBRANCH   6   7
ENDBRANCH   1   6
BRANCH   2  19
ATOM     19  C   UNL     1       7.398   6.772  17.779  0.00  0.00    +0.000 C 
BRANCH  19  20
ATOM     20  C   UNL     1       8.257   7.914  17.253  0.00  0.00    +0.000 C 
BRANCH  20  21
ATOM     21  C   UNL     1       7.904   9.206  17.985  0.00  0.00    +0.000 C 
BRANCH  21  22
ATOM     22  C   UNL     1       9.008   9.629  18.953  0.00  0.00    +0.000 C 
BRANCH  22  23
ATOM     23  C   UNL     1       9.606  10.931  18.491  0.00  0.00    +0.000 A 
ATOM     24  C   UNL     1       8.779  11.976  18.060  0.00  0.00    +0.000 A 
ATOM     25  C   UNL     1       9.336  13.128  17.505  0.00  0.00    +0.000 A 
ATOM     26  C   UNL     1      10.719  13.244  17.378  0.00  0.00    +0.000 A 
ATOM     27  C   UNL     1      11.550  12.219  17.826  0.00  0.00    +0.000 A 
ATOM     28  C   UNL     1      10.997  11.067  18.383  0.00  0.00    +0.000 A 
ENDBRANCH  22  23
ENDBRANCH  21  22
ENDBRANCH  20  21
ENDBRANCH  19  20
ENDBRANCH   2  19
TORSDOF 10
ENDMDL
