MODEL 1
REMARK VINA RESULT:      -6.0      0.000      0.000
REMARK  Name = 
REMARK  4 active torsions:
REMARK  status: ('A' for Active; 'I' for Inactive)
REMARK    1  A    between atoms: C_1  and  C_2
REMARK    2  A    between atoms: C_5  and  C_6
REMARK    3  A    between atoms: C_7  and  C_8
REMARK    4  A    between atoms: C_7  and  C_10
REMARK                            x       y       z     vdW  Elec       q    Type
REMARK                         _______ _______ _______ _____ _____    ______ ____
ROOT
ATOM      1  C   UNL     1       0.800   3.162  20.050  0.00  0.00    +0.000 C 
ATOM      2  C   UNL     1       1.883   3.505  19.070  0.00  0.00    +0.000 A 
ATOM      3  C   UNL     1       2.149   4.834  18.722  0.00  0.00    +0.000 A 
ATOM      4  C   UNL     1       3.129   5.136  17.772  0.00  0.00    +0.000 A 
ATOM      5  C   UNL     1       3.858   4.110  17.161  0.00  0.00    +0.000 A 
ATOM      6  C   UNL     1       3.616   2.783  17.526  0.00  0.00    +0.000 A 
ATOM      7  C   UNL     1       2.632   2.484  18.472  0.00  0.00    +0.000 A 
ENDROOT
BRANCH   5   8
ATOM      8  C   UNL     1       4.841   4.427  16.120  0.00  0.00    +0.000 C 
ATOM      9  C   UNL     1       6.149   4.679  16.330  0.00  0.00    +0.000 C 
BRANCH   9  10
ATOM     10  C   UNL     1       6.734   4.650  17.627  0.00  0.00    +0.000 C 
ATOM     11  N   UNL     1       7.225   4.630  18.677  0.00  0.00    +0.000 NA
ENDBRANCH   9  10
BRANCH   9  12
ATOM     12  C   UNL     1       6.982   4.991  15.216  0.00  0.00    +0.000 C 
ATOM     13  N   UNL     1       7.672   5.259  14.323  0.00  0.00    +0.000 NA
ENDBRANCH   9  12
ENDBRANCH   5   8
TORSDOF 3
ENDMDL
MODEL 2
REMARK VINA RESULT:      -6.0      0.385      1.391
REMARK  Name = 
REMARK  4 active torsions:
REMARK  status: ('A' for Active; 'I' for Inactive)
REMARK    1  A    between atoms: C_1  and  C_2
REMARK    2  A    between atoms: C_5  and  C_6
REMARK    3  A    between atoms: C_7  and  C_8
REMARK    4  A    between atoms: C_7  and  C_10
REMARK                            x       y       z     vdW  Elec       q    Type
REMARK                         _______ _______ _______ _____ _____    ______ ____
ROOT
ATOM      1  C   UNL     1       1.089   2.965  20.644  0.00  0.00    +0.000 C 
ATOM      2  C   UNL     1       1.996   3.277  19.491  0.00  0.00    +0.000 A 
ATOM      3  C   UNL     1       2.749   2.273  18.871  0.00  0.00    +0.000 A 
ATOM      4  C   UNL     1       3.625   2.585  17.828  0.00  0.00    +0.000 A 
ATOM      5  C   UNL     1       3.758   3.907  17.391  0.00  0.00    +0.000 A 
ATOM      6  C   UNL     1       2.987   4.909  17.988  0.00  0.00    +0.000 A 
ATOM      7  C   UNL     1       2.115   4.595  19.033  0.00  0.00    +0.000 A 
ENDROOT
BRANCH   5   8
ATOM      8  C   UNL     1       4.724   4.240  16.340  0.00  0.00    +0.000 C 
ATOM      9  C   UNL     1       6.004   4.612  16.541  0.00  0.00    +0.000 C 
BRANCH   9  10
ATOM     10  C   UNL     1       6.575   4.709  17.841  0.00  0.00    +0.000 C 
ATOM     11  N   UNL     1       7.050   4.777  18.897  0.00  0.00    +0.000 NA
ENDBRANCH   9  10
BRANCH   9  12
ATOM     12  C   UNL     1       6.821   4.922  15.416  0.00  0.00    +0.000 C 
ATOM     13  N   UNL     1       7.503   5.183  14.515  0.00  0.00    +0.000 NA
ENDBRANCH   9  12
ENDBRANCH   5   8
TORSDOF 3
ENDMDL
MODEL 3
REMARK VINA RESULT:      -5.7      1.173      1.204
REMARK  Name = 
REMARK  4 active torsions:
REMARK  status: ('A' for Active; 'I' for Inactive)
REMARK    1  A    between atoms: C_1  and  C_2
REMARK    2  A    between atoms: C_5  and  C_6
REMARK    3  A    between atoms: C_7  and  C_8
REMARK    4  A    between atoms: C_7  and  C_10
REMARK                            x       y       z     vdW  Elec       q    Type
REMARK                         _______ _______ _______ _____ _____    ______ ____
ROOT
ATOM      1  C   UNL     1       1.155   2.885  21.312  0.00  0.00    +0.000 C 
ATOM      2  C   UNL     1       2.158   3.315  20.282  0.00  0.00    +0.000 A 
ATOM      3  C   UNL     1       2.036   4.545  19.624  0.00  0.00    +0.000 A 
ATOM      4  C   UNL     1       2.951   4.912  18.633  0.00  0.00    +0.000 A 
ATOM      5  C   UNL     1       4.001   4.053  18.290  0.00  0.00    +0.000 A 
ATOM      6  C   UNL     1       4.143   2.838  18.964  0.00  0.00    +0.000 A 
ATOM      7  C   UNL     1       3.224   2.470  19.951  0.00  0.00    +0.000 A 
ENDROOT
BRANCH   5   8
ATOM      8  C   UNL     1       4.921   4.414  17.207  0.00  0.00    +0.000 C 
ATOM      9  C   UNL     1       6.147   4.951  17.368  0.00  0.00    +0.000 C 
BRANCH   9  10
ATOM     10  C   UNL     1       6.701   5.220  18.652  0.00  0.00    +0.000 C 
ATOM     11  N   UNL     1       7.150   5.454  19.695  0.00  0.00    +0.000 NA
ENDBRANCH   9  10
BRANCH   9  12
ATOM     12  C   UNL     1       6.923   5.267  16.215  0.00  0.00    +0.000 C 
ATOM     13  N   UNL     1       7.570   5.534  15.291  0.00  0.00    +0.000 NA
ENDBRANCH   9  12
ENDBRANCH   5   8
TORSDOF 3
ENDMDL
MODEL 4
REMARK VINA RESULT:      -5.6      1.538      1.733
REMARK  Name = 
REMARK  4 active torsions:
REMARK  status: ('A' for Active; 'I' for Inactive)
REMARK    1  A    between atoms: C_1  and  C_2
REMARK    2  A    between atoms: C_5  and  C_6
REMARK    3  A    between atoms: C_7  and  C_8
REMARK    4  A    between atoms: C_7  and  C_10
REMARK                            x       y       z     vdW  Elec       q    Type
REMARK                         _______ _______ _______ _____ _____    ______ ____
ROOT
ATOM      1  C   UNL     1       0.996   3.083  20.626  0.00  0.00    +0.000 C 
ATOM      2  C   UNL     1       2.066   3.224  19.583  0.00  0.00    +0.000 A 
ATOM      3  C   UNL     1       3.419   3.273  19.938  0.00  0.00    +0.000 A 
ATOM      4  C   UNL     1       4.402   3.453  18.961  0.00  0.00    +0.000 A 
ATOM      5  C   UNL     1       4.043   3.583  17.615  0.00  0.00    +0.000 A 
ATOM      6  C   UNL     1       2.695   3.506  17.253  0.00  0.00    +0.000 A 
ATOM      7  C   UNL     1       1.713   3.331  18.233  0.00  0.00    +0.000 A 
ENDROOT
BRANCH   5   8
ATOM      8  C   UNL     1       5.071   3.833  16.601  0.00  0.00    +0.000 C 
ATOM      9  C   UNL     1       5.517   5.047  16.220  0.00  0.00    +0.000 C 
BRANCH   9  10
ATOM     10  C   UNL     1       5.029   6.255  16.795  0.00  0.00    +0.000 C 
ATOM     11  N   UNL     1       4.631   7.245  17.249  0.00  0.00    +0.000 NA
ENDBRANCH   9  10
BRANCH   9  12
ATOM     12  C   UNL     1       6.513   5.133  15.204  0.00  0.00    +0.000 C 
ATOM     13  N   UNL     1       7.328   5.181  14.381  0.00  0.00    +0.000 NA
ENDBRANCH   9  12
ENDBRANCH   5   8
TORSDOF 3
ENDMDL
MODEL 5
REMARK VINA RESULT:      -5.5      1.542      1.685
REMARK  Name = 
REMARK  4 active torsions:
REMARK  status: ('A' for Active; 'I' for Inactive)
REMARK    1  A    between atoms: C_1  and  C_2
REMARK    2  A    between atoms: C_5  and  C_6
REMARK    3  A    between atoms: C_7  and  C_8
REMARK    4  A    between atoms: C_7  and  C_10
REMARK                            x       y       z     vdW  Elec       q    Type
REMARK                         _______ _______ _______ _____ _____    ______ ____
ROOT
ATOM      1  C   UNL     1       1.018   2.921  20.562  0.00  0.00    +0.000 C 
ATOM      2  C   UNL     1       2.052   3.228  19.519  0.00  0.00    +0.000 A 
ATOM      3  C   UNL     1       1.703   3.342  18.168  0.00  0.00    +0.000 A 
ATOM      4  C   UNL     1       2.683   3.581  17.201  0.00  0.00    +0.000 A 
ATOM      5  C   UNL     1       4.025   3.712  17.574  0.00  0.00    +0.000 A 
ATOM      6  C   UNL     1       4.374   3.628  18.925  0.00  0.00    +0.000 A 
ATOM      7  C   UNL     1       3.393   3.384  19.890  0.00  0.00    +0.000 A 
ENDROOT
BRANCH   5   8
ATOM      8  C   UNL     1       5.057   3.902  16.551  0.00  0.00    +0.000 C 
ATOM      9  C   UNL     1       5.548   5.090  16.143  0.00  0.00    +0.000 C 
BRANCH   9  10
ATOM     10  C   UNL     1       5.108   6.326  16.693  0.00  0.00    +0.000 C 
ATOM     11  N   UNL     1       4.759   7.342  17.132  0.00  0.00    +0.000 NA
ENDBRANCH   9  10
BRANCH   9  12
ATOM     12  C   UNL     1       6.541   5.116  15.121  0.00  0.00    +0.000 C 
ATOM     13  N   UNL     1       7.336   5.152  14.278  0.00  0.00    +0.000 NA
ENDBRANCH   9  12
ENDBRANCH   5   8
TORSDOF 3
ENDMDL
MODEL 6
REMARK VINA RESULT:      -5.5      1.825      2.224
REMARK  Name = 
REMARK  4 active torsions:
REMARK  status: ('A' for Active; 'I' for Inactive)
REMARK    1  A    between atoms: C_1  and  C_2
REMARK    2  A    between atoms: C_5  and  C_6
REMARK    3  A    between atoms: C_7  and  C_8
REMARK    4  A    between atoms: C_7  and  C_10
REMARK                            x       y       z     vdW  Elec       q    Type
REMARK                         _______ _______ _______ _____ _____    ______ ____
ROOT
ATOM      1  C   UNL     1       0.631   2.090  18.642  0.00  0.00    +0.000 C 
ATOM      2  C   UNL     1       1.646   3.092  18.175  0.00  0.00    +0.000 A 
ATOM      3  C   UNL     1       2.691   2.719  17.323  0.00  0.00    +0.000 A 
ATOM      4  C   UNL     1       3.657   3.652  16.934  0.00  0.00    +0.000 A 
ATOM      5  C   UNL     1       3.586   4.971  17.392  0.00  0.00    +0.000 A 
ATOM      6  C   UNL     1       2.528   5.356  18.220  0.00  0.00    +0.000 A 
ATOM      7  C   UNL     1       1.566   4.420  18.611  0.00  0.00    +0.000 A 
ENDROOT
BRANCH   5   8
ATOM      8  C   UNL     1       4.634   5.931  17.032  0.00  0.00    +0.000 C 
ATOM      9  C   UNL     1       5.747   6.181  17.750  0.00  0.00    +0.000 C 
BRANCH   9  10
ATOM     10  C   UNL     1       6.038   5.505  18.968  0.00  0.00    +0.000 C 
ATOM     11  N   UNL     1       6.266   4.943  19.957  0.00  0.00    +0.000 NA
ENDBRANCH   9  10
BRANCH   9  12
ATOM     12  C   UNL     1       6.671   7.159  17.280  0.00  0.00    +0.000 C 
ATOM     13  N   UNL     1       7.440   7.939  16.897  0.00  0.00    +0.000 NA
ENDBRANCH   9  12
ENDBRANCH   5   8
TORSDOF 3
ENDMDL
MODEL 7
REMARK VINA RESULT:      -5.5      1.315      1.434
REMARK  Name = 
REMARK  4 active torsions:
REMARK  status: ('A' for Active; 'I' for Inactive)
REMARK    1  A    between atoms: C_1  and  C_2
REMARK    2  A    between atoms: C_5  and  C_6
REMARK    3  A    between atoms: C_7  and  C_8
REMARK    4  A    between atoms: C_7  and  C_10
REMARK                            x       y       z     vdW  Elec       q    Type
REMARK                         _______ _______ _______ _____ _____    ______ ____
ROOT
ATOM      1  C   UNL     1       2.224   4.975  20.820  0.00  0.00    +0.000 C 
ATOM      2  C   UNL     1       2.938   4.842  19.507  0.00  0.00    +0.000 A 
ATOM      3  C   UNL     1       3.451   5.964  18.846  0.00  0.00    +0.000 A 
ATOM      4  C   UNL     1       4.071   5.830  17.600  0.00  0.00    +0.000 A 
ATOM      5  C   UNL     1       4.189   4.571  17.003  0.00  0.00    +0.000 A 
ATOM      6  C   UNL     1       3.704   3.444  17.672  0.00  0.00    +0.000 A 
ATOM      7  C   UNL     1       3.079   3.581  18.915  0.00  0.00    +0.000 A 
ENDROOT
BRANCH   5   8
ATOM      8  C   UNL     1       4.784   4.443  15.669  0.00  0.00    +0.000 C 
ATOM      9  C   UNL     1       6.105   4.378  15.404  0.00  0.00    +0.000 C 
BRANCH   9  10
ATOM     10  C   UNL     1       7.092   4.414  16.429  0.00  0.00    +0.000 C 
ATOM     11  N   UNL     1       7.890   4.456  17.269  0.00  0.00    +0.000 NA
ENDBRANCH   9  10
BRANCH   9  12
ATOM     12  C   UNL     1       6.536   4.273  14.050  0.00  0.00    +0.000 C 
ATOM     13  N   UNL     1       6.903   4.171  12.955  0.00  0.00    +0.000 NA
ENDBRANCH   9  12
ENDBRANCH   5   8
TORSDOF 3
ENDMDL
MODEL 8
REMARK VINA RESULT:      -5.4      1.773      2.529
REMARK  Name = 
REMARK  4 active torsions:
REMARK  status: ('A' for Active; 'I' for Inactive)
REMARK    1  A    between atoms: C_1  and  C_2
REMARK    2  A    between atoms: C_5  and  C_6
REMARK    3  A    between atoms: C_7  and  C_8
REMARK    4  A    between atoms: C_7  and  C_10
REMARK                            x       y       z     vdW  Elec       q    Type
REMARK                         _______ _______ _______ _____ _____    ______ ____
ROOT
ATOM      1  C   UNL     1       0.702   2.164  18.731  0.00  0.00    +0.000 C 
ATOM      2  C   UNL     1       1.856   3.104  18.545  0.00  0.00    +0.000 A 
ATOM      3  C   UNL     1       3.166   2.707  18.837  0.00  0.00    +0.000 A 
ATOM      4  C   UNL     1       4.227   3.608  18.705  0.00  0.00    +0.000 A 
ATOM      5  C   UNL     1       3.989   4.918  18.276  0.00  0.00    +0.000 A 
ATOM      6  C   UNL     1       2.687   5.310  17.955  0.00  0.00    +0.000 A 
ATOM      7  C   UNL     1       1.627   4.409  18.093  0.00  0.00    +0.000 A 
ENDROOT
BRANCH   5   8
ATOM      8  C   UNL     1       5.095   5.877  18.197  0.00  0.00    +0.000 C 
ATOM      9  C   UNL     1       5.844   6.121  17.103  0.00  0.00    +0.000 C 
BRANCH   9  10
ATOM     10  C   UNL     1       5.623   5.459  15.863  0.00  0.00    +0.000 C 
ATOM     11  N   UNL     1       5.431   4.911  14.859  0.00  0.00    +0.000 NA
ENDBRANCH   9  10
BRANCH   9  12
ATOM     12  C   UNL     1       6.901   7.074  17.185  0.00  0.00    +0.000 C 
ATOM     13  N   UNL     1       7.748   7.861  17.267  0.00  0.00    +0.000 NA
ENDBRANCH   9  12
ENDBRANCH   5   8
TORSDOF 3
ENDMDL
MODEL 9
REMARK VINA RESULT:      -5.4      1.589      2.014
REMARK  Name = 
REMARK  4 active torsions:
REMARK  status: ('A' for Active; 'I' for Inactive)
REMARK    1  A    between atoms: C_1  and  C_2
REMARK    2  A    between atoms: C_5  and  C_6
REMARK    3  A    between atoms: C_7  and  C_8
REMARK    4  A    between atoms: C_7  and  C_10
REMARK                            x       y       z     vdW  Elec       q    Type
REMARK                         _______ _______ _______ _____ _____    ______ ____
ROOT
ATOM      1  C   UNL     1       1.205   2.403  22.153  0.00  0.00    +0.000 C 
ATOM      2  C   UNL     1       1.836   3.132  21.003  0.00  0.00    +0.000 A 
ATOM      3  C   UNL     1       2.129   4.498  21.087  0.00  0.00    +0.000 A 
ATOM      4  C   UNL     1       2.673   5.175  19.992  0.00  0.00    +0.000 A 
ATOM      5  C   UNL     1       2.933   4.492  18.800  0.00  0.00    +0.000 A 
ATOM      6  C   UNL     1       2.669   3.122  18.721  0.00  0.00    +0.000 A 
ATOM      7  C   UNL     1       2.120   2.448  19.815  0.00  0.00    +0.000 A 
ENDROOT
BRANCH   5   8
ATOM      8  C   UNL     1       3.446   5.218  17.634  0.00  0.00    +0.000 C 
ATOM      9  C   UNL     1       4.747   5.446  17.362  0.00  0.00    +0.000 C 
BRANCH   9  10
ATOM     10  C   UNL     1       5.795   4.976  18.202  0.00  0.00    +0.000 C 
ATOM     11  N   UNL     1       6.648   4.579  18.881  0.00  0.00    +0.000 NA
ENDBRANCH   9  10
BRANCH   9  12
ATOM     12  C   UNL     1       5.093   6.186  16.194  0.00  0.00    +0.000 C 
ATOM     13  N   UNL     1       5.355   6.780  15.234  0.00  0.00    +0.000 NA
ENDBRANCH   9  12
ENDBRANCH   5   8
TORSDOF 3
ENDMDL
