MODEL 1
REMARK VINA RESULT:      -9.6      0.000      0.000
REMARK  Name = 
REMARK  2 active torsions:
REMARK  status: ('A' for Active; 'I' for Inactive)
REMARK    1  A    between atoms: C_12  and  C_13
REMARK    2  A    between atoms: C_16  and  C_17
REMARK                            x       y       z     vdW  Elec       q    Type
REMARK                         _______ _______ _______ _____ _____    ______ ____
ROOT
ATOM      1  O   UNL     1       5.767   5.473  15.689  0.00  0.00    +0.000 OA
ATOM      2  C   UNL     1       5.004   4.890  16.433  0.00  0.00    +0.000 C 
ATOM      3  N   UNL     1       4.925   3.527  16.662  0.00  0.00    +0.000 N 
ATOM      4  C   UNL     1       3.926   3.223  17.581  0.00  0.00    +0.000 A 
ATOM      5  C   UNL     1       3.582   1.965  18.033  0.00  0.00    +0.000 A 
ATOM      6  C   UNL     1       2.538   1.881  18.956  0.00  0.00    +0.000 A 
ATOM      7  C   UNL     1       1.870   3.041  19.386  0.00  0.00    +0.000 A 
ATOM      8 CL   UNL     1       0.584   2.898  20.524  0.00  0.00    +0.000 Cl
ATOM      9  C   UNL     1       2.230   4.308  18.915  0.00  0.00    +0.000 A 
ATOM     10  C   UNL     1       3.277   4.388  18.013  0.00  0.00    +0.000 A 
ATOM     11  C   UNL     1       3.946   5.492  17.322  0.00  0.00    +0.000 C 
ATOM     12  C   UNL     1       3.806   6.824  17.387  0.00  0.00    +0.000 C 
ATOM     13  H   UNL     1       5.532   2.865  16.201  0.00  0.00    +0.000 HD
ENDROOT
BRANCH  12  14
ATOM     14  C   UNL     1       2.887   7.539  18.262  0.00  0.00    +0.000 A 
ATOM     15  C   UNL     1       2.710   7.114  19.577  0.00  0.00    +0.000 A 
ATOM     16  C   UNL     1       1.854   7.817  20.431  0.00  0.00    +0.000 A 
ATOM     17  C   UNL     1       1.169   8.970  20.004  0.00  0.00    +0.000 A 
ATOM     18  C   UNL     1       1.353   9.366  18.667  0.00  0.00    +0.000 A 
ATOM     19  C   UNL     1       2.195   8.657  17.801  0.00  0.00    +0.000 A 
BRANCH  17  20
ATOM     20  C   UNL     1       0.295   9.728  20.932  0.00  0.00    +0.000 A 
ATOM     21  C   UNL     1      -0.352  10.911  20.525  0.00  0.00    +0.000 A 
ATOM     22  C   UNL     1      -1.145  11.652  21.403  0.00  0.00    +0.000 A 
ATOM     23  C   UNL     1      -1.330  11.215  22.710  0.00  0.00    +0.000 A 
ATOM     24  C   UNL     1      -0.725  10.037  23.135  0.00  0.00    +0.000 A 
ATOM     25  C   UNL     1       0.081   9.306  22.257  0.00  0.00    +0.000 A 
ENDBRANCH  17  20
ENDBRANCH  12  14
TORSDOF 2
ENDMDL
MODEL 2
REMARK VINA RESULT:      -9.1      0.280      1.415
REMARK  Name = 
REMARK  2 active torsions:
REMARK  status: ('A' for Active; 'I' for Inactive)
REMARK    1  A    between atoms: C_12  and  C_13
REMARK    2  A    between atoms: C_16  and  C_17
REMARK                            x       y       z     vdW  Elec       q    Type
REMARK                         _______ _______ _______ _____ _____    ______ ____
ROOT
ATOM      1  O   UNL     1       5.435   5.158  15.492  0.00  0.00    +0.000 OA
ATOM      2  C   UNL     1       4.768   4.630  16.358  0.00  0.00    +0.000 C 
ATOM      3  N   UNL     1       4.710   3.283  16.675  0.00  0.00    +0.000 N 
ATOM      4  C   UNL     1       3.832   3.045  17.728  0.00  0.00    +0.000 A 
ATOM      5  C   UNL     1       3.540   1.820  18.293  0.00  0.00    +0.000 A 
ATOM      6  C   UNL     1       2.620   1.804  19.343  0.00  0.00    +0.000 A 
ATOM      7  C   UNL     1       2.018   2.996  19.784  0.00  0.00    +0.000 A 
ATOM      8 CL   UNL     1       0.884   2.936  21.080  0.00  0.00    +0.000 Cl
ATOM      9  C   UNL     1       2.323   4.228  19.197  0.00  0.00    +0.000 A 
ATOM     10  C   UNL     1       3.249   4.242  18.169  0.00  0.00    +0.000 A 
ATOM     11  C   UNL     1       3.834   5.296  17.336  0.00  0.00    +0.000 C 
ATOM     12  C   UNL     1       3.711   6.630  17.339  0.00  0.00    +0.000 C 
ATOM     13  H   UNL     1       5.250   2.588  16.182  0.00  0.00    +0.000 HD
ENDROOT
BRANCH  12  14
ATOM     14  C   UNL     1       2.913   7.407  18.279  0.00  0.00    +0.000 A 
ATOM     15  C   UNL     1       2.299   8.585  17.858  0.00  0.00    +0.000 A 
ATOM     16  C   UNL     1       1.505   9.316  18.746  0.00  0.00    +0.000 A 
ATOM     17  C   UNL     1       1.283   8.884  20.067  0.00  0.00    +0.000 A 
ATOM     18  C   UNL     1       1.928   7.701  20.469  0.00  0.00    +0.000 A 
ATOM     19  C   UNL     1       2.740   6.972  19.591  0.00  0.00    +0.000 A 
BRANCH  17  20
ATOM     20  C   UNL     1       0.407   9.649  20.986  0.00  0.00    +0.000 A 
ATOM     21  C   UNL     1       0.193   9.229  22.313  0.00  0.00    +0.000 A 
ATOM     22  C   UNL     1      -0.662   9.921  23.173  0.00  0.00    +0.000 A 
ATOM     23  C   UNL     1      -1.311  11.069  22.732  0.00  0.00    +0.000 A 
ATOM     24  C   UNL     1      -1.101  11.524  21.435  0.00  0.00    +0.000 A 
ATOM     25  C   UNL     1      -0.256  10.819  20.572  0.00  0.00    +0.000 A 
ENDBRANCH  17  20
ENDBRANCH  12  14
TORSDOF 2
ENDMDL
MODEL 3
REMARK VINA RESULT:      -8.8      2.620      3.707
REMARK  Name = 
REMARK  2 active torsions:
REMARK  status: ('A' for Active; 'I' for Inactive)
REMARK    1  A    between atoms: C_12  and  C_13
REMARK    2  A    between atoms: C_16  and  C_17
REMARK                            x       y       z     vdW  Elec       q    Type
REMARK                         _______ _______ _______ _____ _____    ______ ____
ROOT
ATOM      1  O   UNL     1       2.766   2.421  17.498  0.00  0.00    +0.000 OA
ATOM      2  C   UNL     1       3.632   3.270  17.426  0.00  0.00    +0.000 C 
ATOM      3  N   UNL     1       4.920   3.122  16.940  0.00  0.00    +0.000 N 
ATOM      4  C   UNL     1       5.632   4.315  17.013  0.00  0.00    +0.000 A 
ATOM      5  C   UNL     1       6.938   4.518  16.615  0.00  0.00    +0.000 A 
ATOM      6  C   UNL     1       7.465   5.799  16.784  0.00  0.00    +0.000 A 
ATOM      7  C   UNL     1       6.686   6.824  17.350  0.00  0.00    +0.000 A 
ATOM      8 CL   UNL     1       7.373   8.392  17.547  0.00  0.00    +0.000 Cl
ATOM      9  C   UNL     1       5.366   6.600  17.752  0.00  0.00    +0.000 A 
ATOM     10  C   UNL     1       4.841   5.333  17.566  0.00  0.00    +0.000 A 
ATOM     11  C   UNL     1       3.537   4.719  17.828  0.00  0.00    +0.000 C 
ATOM     12  C   UNL     1       2.376   5.211  18.284  0.00  0.00    +0.000 C 
ATOM     13  H   UNL     1       5.267   2.243  16.585  0.00  0.00    +0.000 HD
ENDROOT
BRANCH  12  14
ATOM     14  C   UNL     1       2.121   6.603  18.628  0.00  0.00    +0.000 A 
ATOM     15  C   UNL     1       2.004   7.557  17.619  0.00  0.00    +0.000 A 
ATOM     16  C   UNL     1       1.726   8.888  17.942  0.00  0.00    +0.000 A 
ATOM     17  C   UNL     1       1.537   9.301  19.274  0.00  0.00    +0.000 A 
ATOM     18  C   UNL     1       1.677   8.321  20.273  0.00  0.00    +0.000 A 
ATOM     19  C   UNL     1       1.973   6.989  19.959  0.00  0.00    +0.000 A 
BRANCH  17  20
ATOM     20  C   UNL     1       1.204  10.709  19.599  0.00  0.00    +0.000 A 
ATOM     21  C   UNL     1       1.505  11.757  18.708  0.00  0.00    +0.000 A 
ATOM     22  C   UNL     1       1.232  13.090  19.023  0.00  0.00    +0.000 A 
ATOM     23  C   UNL     1       0.628  13.407  20.235  0.00  0.00    +0.000 A 
ATOM     24  C   UNL     1       0.295  12.392  21.126  0.00  0.00    +0.000 A 
ATOM     25  C   UNL     1       0.585  11.061  20.813  0.00  0.00    +0.000 A 
ENDBRANCH  17  20
ENDBRANCH  12  14
TORSDOF 2
ENDMDL
MODEL 4
REMARK VINA RESULT:      -8.8      4.159      8.310
REMARK  Name = 
REMARK  2 active torsions:
REMARK  status: ('A' for Active; 'I' for Inactive)
REMARK    1  A    between atoms: C_12  and  C_13
REMARK    2  A    between atoms: C_16  and  C_17
REMARK                            x       y       z     vdW  Elec       q    Type
REMARK                         _______ _______ _______ _____ _____    ______ ____
ROOT
ATOM      1  O   UNL     1      -0.585  12.156  22.591  0.00  0.00    +0.000 OA
ATOM      2  C   UNL     1      -1.004  11.844  21.494  0.00  0.00    +0.000 C 
ATOM      3  N   UNL     1      -2.075  12.396  20.812  0.00  0.00    +0.000 N 
ATOM      4  C   UNL     1      -2.262  11.783  19.577  0.00  0.00    +0.000 A 
ATOM      5  C   UNL     1      -3.236  12.089  18.647  0.00  0.00    +0.000 A 
ATOM      6  C   UNL     1      -3.250  11.342  17.468  0.00  0.00    +0.000 A 
ATOM      7  C   UNL     1      -2.311  10.317  17.260  0.00  0.00    +0.000 A 
ATOM      8 CL   UNL     1      -2.363   9.414  15.793  0.00  0.00    +0.000 Cl
ATOM      9  C   UNL     1      -1.333  10.018  18.214  0.00  0.00    +0.000 A 
ATOM     10  C   UNL     1      -1.311  10.773  19.374  0.00  0.00    +0.000 A 
ATOM     11  C   UNL     1      -0.462  10.785  20.568  0.00  0.00    +0.000 C 
ATOM     12  C   UNL     1       0.637  10.098  20.908  0.00  0.00    +0.000 C 
ATOM     13  H   UNL     1      -2.630  13.148  21.194  0.00  0.00    +0.000 HD
ENDROOT
BRANCH  12  14
ATOM     14  C   UNL     1       1.313   9.111  20.077  0.00  0.00    +0.000 A 
ATOM     15  C   UNL     1       1.720   9.451  18.789  0.00  0.00    +0.000 A 
ATOM     16  C   UNL     1       2.398   8.518  17.999  0.00  0.00    +0.000 A 
ATOM     17  C   UNL     1       2.707   7.231  18.478  0.00  0.00    +0.000 A 
ATOM     18  C   UNL     1       2.270   6.909  19.776  0.00  0.00    +0.000 A 
ATOM     19  C   UNL     1       1.574   7.832  20.566  0.00  0.00    +0.000 A 
BRANCH  17  20
ATOM     20  C   UNL     1       3.461   6.264  17.644  0.00  0.00    +0.000 A 
ATOM     21  C   UNL     1       3.164   4.888  17.669  0.00  0.00    +0.000 A 
ATOM     22  C   UNL     1       3.895   3.965  16.917  0.00  0.00    +0.000 A 
ATOM     23  C   UNL     1       4.932   4.401  16.101  0.00  0.00    +0.000 A 
ATOM     24  C   UNL     1       5.234   5.758  16.035  0.00  0.00    +0.000 A 
ATOM     25  C   UNL     1       4.510   6.676  16.801  0.00  0.00    +0.000 A 
ENDBRANCH  17  20
ENDBRANCH  12  14
TORSDOF 2
ENDMDL
MODEL 5
REMARK VINA RESULT:      -8.8      4.323      8.323
REMARK  Name = 
REMARK  2 active torsions:
REMARK  status: ('A' for Active; 'I' for Inactive)
REMARK    1  A    between atoms: C_12  and  C_13
REMARK    2  A    between atoms: C_16  and  C_17
REMARK                            x       y       z     vdW  Elec       q    Type
REMARK                         _______ _______ _______ _____ _____    ______ ____
ROOT
ATOM      1  O   UNL     1      -1.010  12.662  22.096  0.00  0.00    +0.000 OA
ATOM      2  C   UNL     1      -1.408  12.218  21.038  0.00  0.00    +0.000 C 
ATOM      3  N   UNL     1      -2.507  12.637  20.307  0.00  0.00    +0.000 N 
ATOM      4  C   UNL     1      -2.657  11.893  19.142  0.00  0.00    +0.000 A 
ATOM      5  C   UNL     1      -3.645  12.047  18.189  0.00  0.00    +0.000 A 
ATOM      6  C   UNL     1      -3.615  11.185  17.092  0.00  0.00    +0.000 A 
ATOM      7  C   UNL     1      -2.619  10.199  16.986  0.00  0.00    +0.000 A 
ATOM      8 CL   UNL     1      -2.617   9.150  15.618  0.00  0.00    +0.000 Cl
ATOM      9  C   UNL     1      -1.628  10.053  17.961  0.00  0.00    +0.000 A 
ATOM     10  C   UNL     1      -1.651  10.922  19.039  0.00  0.00    +0.000 A 
ATOM     11  C   UNL     1      -0.807  11.102  20.222  0.00  0.00    +0.000 C 
ATOM     12  C   UNL     1       0.329  10.516  20.627  0.00  0.00    +0.000 C 
ATOM     13  H   UNL     1      -3.104  13.391  20.613  0.00  0.00    +0.000 HD
ENDROOT
BRANCH  12  14
ATOM     14  C   UNL     1       1.061   9.489  19.898  0.00  0.00    +0.000 A 
ATOM     15  C   UNL     1       1.498   9.739  18.599  0.00  0.00    +0.000 A 
ATOM     16  C   UNL     1       2.230   8.770  17.907  0.00  0.00    +0.000 A 
ATOM     17  C   UNL     1       2.562   7.535  18.496  0.00  0.00    +0.000 A 
ATOM     18  C   UNL     1       2.093   7.303  19.801  0.00  0.00    +0.000 A 
ATOM     19  C   UNL     1       1.345   8.262  20.494  0.00  0.00    +0.000 A 
BRANCH  17  20
ATOM     20  C   UNL     1       3.371   6.531  17.764  0.00  0.00    +0.000 A 
ATOM     21  C   UNL     1       4.470   6.914  16.970  0.00  0.00    +0.000 A 
ATOM     22  C   UNL     1       5.213   5.980  16.246  0.00  0.00    +0.000 A 
ATOM     23  C   UNL     1       4.888   4.630  16.316  0.00  0.00    +0.000 A 
ATOM     24  C   UNL     1       3.825   4.217  17.112  0.00  0.00    +0.000 A 
ATOM     25  C   UNL     1       3.074   5.157  17.822  0.00  0.00    +0.000 A 
ENDBRANCH  17  20
ENDBRANCH  12  14
TORSDOF 2
ENDMDL
MODEL 6
REMARK VINA RESULT:      -8.7      4.517      8.335
REMARK  Name = 
REMARK  2 active torsions:
REMARK  status: ('A' for Active; 'I' for Inactive)
REMARK    1  A    between atoms: C_12  and  C_13
REMARK    2  A    between atoms: C_16  and  C_17
REMARK                            x       y       z     vdW  Elec       q    Type
REMARK                         _______ _______ _______ _____ _____    ______ ____
ROOT
ATOM      1  O   UNL     1      -1.615  13.068  21.781  0.00  0.00    +0.000 OA
ATOM      2  C   UNL     1      -1.936  12.529  20.740  0.00  0.00    +0.000 C 
ATOM      3  N   UNL     1      -3.035  12.813  19.947  0.00  0.00    +0.000 N 
ATOM      4  C   UNL     1      -3.081  11.989  18.827  0.00  0.00    +0.000 A 
ATOM      5  C   UNL     1      -4.040  12.005  17.834  0.00  0.00    +0.000 A 
ATOM      6  C   UNL     1      -3.900  11.083  16.796  0.00  0.00    +0.000 A 
ATOM      7  C   UNL     1      -2.826  10.175  16.787  0.00  0.00    +0.000 A 
ATOM      8 CL   UNL     1      -2.689   9.048  15.490  0.00  0.00    +0.000 Cl
ATOM      9  C   UNL     1      -1.865  10.170  17.803  0.00  0.00    +0.000 A 
ATOM     10  C   UNL     1      -1.998  11.098  18.821  0.00  0.00    +0.000 A 
ATOM     11  C   UNL     1      -1.217  11.418  20.019  0.00  0.00    +0.000 C 
ATOM     12  C   UNL     1      -0.056  10.952  20.498  0.00  0.00    +0.000 C 
ATOM     13  H   UNL     1      -3.701  13.534  20.184  0.00  0.00    +0.000 HD
ENDROOT
BRANCH  12  14
ATOM     14  C   UNL     1       0.782   9.944  19.862  0.00  0.00    +0.000 A 
ATOM     15  C   UNL     1       1.069   8.757  20.532  0.00  0.00    +0.000 A 
ATOM     16  C   UNL     1       1.844   7.772  19.913  0.00  0.00    +0.000 A 
ATOM     17  C   UNL     1       2.336   7.935  18.604  0.00  0.00    +0.000 A 
ATOM     18  C   UNL     1       2.045   9.149  17.957  0.00  0.00    +0.000 A 
ATOM     19  C   UNL     1       1.284  10.147  18.578  0.00  0.00    +0.000 A 
BRANCH  17  20
ATOM     20  C   UNL     1       3.124   6.866  17.945  0.00  0.00    +0.000 A 
ATOM     21  C   UNL     1       4.280   7.164  17.196  0.00  0.00    +0.000 A 
ATOM     22  C   UNL     1       5.006   6.169  16.539  0.00  0.00    +0.000 A 
ATOM     23  C   UNL     1       4.605   4.841  16.632  0.00  0.00    +0.000 A 
ATOM     24  C   UNL     1       3.483   4.511  17.385  0.00  0.00    +0.000 A 
ATOM     25  C   UNL     1       2.750   5.512  18.028  0.00  0.00    +0.000 A 
ENDBRANCH  17  20
ENDBRANCH  12  14
TORSDOF 2
ENDMDL
MODEL 7
REMARK VINA RESULT:      -8.6      4.251      8.260
REMARK  Name = 
REMARK  2 active torsions:
REMARK  status: ('A' for Active; 'I' for Inactive)
REMARK    1  A    between atoms: C_12  and  C_13
REMARK    2  A    between atoms: C_16  and  C_17
REMARK                            x       y       z     vdW  Elec       q    Type
REMARK                         _______ _______ _______ _____ _____    ______ ____
ROOT
ATOM      1  O   UNL     1      -0.753  12.622  22.487  0.00  0.00    +0.000 OA
ATOM      2  C   UNL     1      -1.175  12.212  21.424  0.00  0.00    +0.000 C 
ATOM      3  N   UNL     1      -2.251  12.695  20.700  0.00  0.00    +0.000 N 
ATOM      4  C   UNL     1      -2.441  11.973  19.526  0.00  0.00    +0.000 A 
ATOM      5  C   UNL     1      -3.419  12.189  18.577  0.00  0.00    +0.000 A 
ATOM      6  C   UNL     1      -3.435  11.340  17.470  0.00  0.00    +0.000 A 
ATOM      7  C   UNL     1      -2.492  10.304  17.351  0.00  0.00    +0.000 A 
ATOM      8 CL   UNL     1      -2.546   9.272  15.972  0.00  0.00    +0.000 Cl
ATOM      9  C   UNL     1      -1.509  10.096  18.324  0.00  0.00    +0.000 A 
ATOM     10  C   UNL     1      -1.486  10.952  19.411  0.00  0.00    +0.000 A 
ATOM     11  C   UNL     1      -0.633  11.076  20.595  0.00  0.00    +0.000 C 
ATOM     12  C   UNL     1       0.472  10.427  20.992  0.00  0.00    +0.000 C 
ATOM     13  H   UNL     1      -2.808  13.476  21.015  0.00  0.00    +0.000 HD
ENDROOT
BRANCH  12  14
ATOM     14  C   UNL     1       1.148   9.371  20.250  0.00  0.00    +0.000 A 
ATOM     15  C   UNL     1       1.378   8.137  20.854  0.00  0.00    +0.000 A 
ATOM     16  C   UNL     1       1.996   7.110  20.136  0.00  0.00    +0.000 A 
ATOM     17  C   UNL     1       2.384   7.277  18.794  0.00  0.00    +0.000 A 
ATOM     18  C   UNL     1       2.156   8.538  18.214  0.00  0.00    +0.000 A 
ATOM     19  C   UNL     1       1.553   9.577  18.933  0.00  0.00    +0.000 A 
BRANCH  17  20
ATOM     20  C   UNL     1       3.004   6.166  18.032  0.00  0.00    +0.000 A 
ATOM     21  C   UNL     1       2.409   4.890  17.983  0.00  0.00    +0.000 A 
ATOM     22  C   UNL     1       3.006   3.828  17.302  0.00  0.00    +0.000 A 
ATOM     23  C   UNL     1       4.208   4.021  16.630  0.00  0.00    +0.000 A 
ATOM     24  C   UNL     1       4.808   5.276  16.638  0.00  0.00    +0.000 A 
ATOM     25  C   UNL     1       4.214   6.333  17.335  0.00  0.00    +0.000 A 
ENDBRANCH  17  20
ENDBRANCH  12  14
TORSDOF 2
ENDMDL
MODEL 8
REMARK VINA RESULT:      -8.6      2.688      3.687
REMARK  Name = 
REMARK  2 active torsions:
REMARK  status: ('A' for Active; 'I' for Inactive)
REMARK    1  A    between atoms: C_12  and  C_13
REMARK    2  A    between atoms: C_16  and  C_17
REMARK                            x       y       z     vdW  Elec       q    Type
REMARK                         _______ _______ _______ _____ _____    ______ ____
ROOT
ATOM      1  O   UNL     1       2.817   2.445  17.626  0.00  0.00    +0.000 OA
ATOM      2  C   UNL     1       3.671   3.304  17.534  0.00  0.00    +0.000 C 
ATOM      3  N   UNL     1       4.970   3.157  17.079  0.00  0.00    +0.000 N 
ATOM      4  C   UNL     1       5.661   4.364  17.115  0.00  0.00    +0.000 A 
ATOM      5  C   UNL     1       6.972   4.572  16.733  0.00  0.00    +0.000 A 
ATOM      6  C   UNL     1       7.476   5.867  16.857  0.00  0.00    +0.000 A 
ATOM      7  C   UNL     1       6.670   6.902  17.365  0.00  0.00    +0.000 A 
ATOM      8 CL   UNL     1       7.329   8.487  17.507  0.00  0.00    +0.000 Cl
ATOM      9  C   UNL     1       5.345   6.673  17.751  0.00  0.00    +0.000 A 
ATOM     10  C   UNL     1       4.844   5.391  17.609  0.00  0.00    +0.000 A 
ATOM     11  C   UNL     1       3.545   4.768  17.873  0.00  0.00    +0.000 C 
ATOM     12  C   UNL     1       2.368   5.259  18.285  0.00  0.00    +0.000 C 
ATOM     13  H   UNL     1       5.337   2.270  16.768  0.00  0.00    +0.000 HD
ENDROOT
BRANCH  12  14
ATOM     14  C   UNL     1       2.085   6.660  18.566  0.00  0.00    +0.000 A 
ATOM     15  C   UNL     1       1.929   7.086  19.883  0.00  0.00    +0.000 A 
ATOM     16  C   UNL     1       1.691   8.435  20.160  0.00  0.00    +0.000 A 
ATOM     17  C   UNL     1       1.622   9.398  19.136  0.00  0.00    +0.000 A 
ATOM     18  C   UNL     1       1.765   8.938  17.814  0.00  0.00    +0.000 A 
ATOM     19  C   UNL     1       1.987   7.585  17.528  0.00  0.00    +0.000 A 
BRANCH  17  20
ATOM     20  C   UNL     1       1.407  10.832  19.446  0.00  0.00    +0.000 A 
ATOM     21  C   UNL     1       1.782  11.842  18.539  0.00  0.00    +0.000 A 
ATOM     22  C   UNL     1       1.620  13.196  18.840  0.00  0.00    +0.000 A 
ATOM     23  C   UNL     1       1.056  13.575  20.053  0.00  0.00    +0.000 A 
ATOM     24  C   UNL     1       0.651  12.601  20.960  0.00  0.00    +0.000 A 
ATOM     25  C   UNL     1       0.830  11.247  20.661  0.00  0.00    +0.000 A 
ENDBRANCH  17  20
ENDBRANCH  12  14
TORSDOF 2
ENDMDL
MODEL 9
REMARK VINA RESULT:      -8.6      2.926      4.098
REMARK  Name = 
REMARK  2 active torsions:
REMARK  status: ('A' for Active; 'I' for Inactive)
REMARK    1  A    between atoms: C_12  and  C_13
REMARK    2  A    between atoms: C_16  and  C_17
REMARK                            x       y       z     vdW  Elec       q    Type
REMARK                         _______ _______ _______ _____ _____    ______ ____
ROOT
ATOM      1  O   UNL     1       3.103   2.566  19.260  0.00  0.00    +0.000 OA
ATOM      2  C   UNL     1       3.918   3.403  18.928  0.00  0.00    +0.000 C 
ATOM      3  N   UNL     1       5.218   3.192  18.500  0.00  0.00    +0.000 N 
ATOM      4  C   UNL     1       5.858   4.392  18.206  0.00  0.00    +0.000 A 
ATOM      5  C   UNL     1       7.154   4.542  17.755  0.00  0.00    +0.000 A 
ATOM      6  C   UNL     1       7.604   5.843  17.527  0.00  0.00    +0.000 A 
ATOM      7  C   UNL     1       6.760   6.943  17.764  0.00  0.00    +0.000 A 
ATOM      8 CL   UNL     1       7.352   8.535  17.474  0.00  0.00    +0.000 Cl
ATOM      9  C   UNL     1       5.451   6.773  18.224  0.00  0.00    +0.000 A 
ATOM     10  C   UNL     1       5.003   5.480  18.432  0.00  0.00    +0.000 A 
ATOM     11  C   UNL     1       3.734   4.898  18.877  0.00  0.00    +0.000 C 
ATOM     12  C   UNL     1       2.542   5.435  19.172  0.00  0.00    +0.000 C 
ATOM     13  H   UNL     1       5.619   2.269  18.423  0.00  0.00    +0.000 HD
ENDROOT
BRANCH  12  14
ATOM     14  C   UNL     1       2.202   6.849  19.083  0.00  0.00    +0.000 A 
ATOM     15  C   UNL     1       2.254   7.499  17.851  0.00  0.00    +0.000 A 
ATOM     16  C   UNL     1       1.897   8.846  17.755  0.00  0.00    +0.000 A 
ATOM     17  C   UNL     1       1.460   9.577  18.875  0.00  0.00    +0.000 A 
ATOM     18  C   UNL     1       1.433   8.901  20.109  0.00  0.00    +0.000 A 
ATOM     19  C   UNL     1       1.806   7.556  20.217  0.00  0.00    +0.000 A 
BRANCH  17  20
ATOM     20  C   UNL     1       1.047  10.995  18.751  0.00  0.00    +0.000 A 
ATOM     21  C   UNL     1      -0.303  11.378  18.868  0.00  0.00    +0.000 A 
ATOM     22  C   UNL     1      -0.706  12.706  18.712  0.00  0.00    +0.000 A 
ATOM     23  C   UNL     1       0.239  13.693  18.457  0.00  0.00    +0.000 A 
ATOM     24  C   UNL     1       1.585  13.351  18.362  0.00  0.00    +0.000 A 
ATOM     25  C   UNL     1       1.981  12.018  18.502  0.00  0.00    +0.000 A 
ENDBRANCH  17  20
ENDBRANCH  12  14
TORSDOF 2
ENDMDL
