MODEL 1
REMARK VINA RESULT:      -9.2      0.000      0.000
REMARK  Name = 
REMARK  6 active torsions:
REMARK  status: ('A' for Active; 'I' for Inactive)
REMARK    1  A    between atoms: C_1  and  O_2
REMARK    2  A    between atoms: O_2  and  C_3
REMARK    3  A    between atoms: C_6  and  C_7
REMARK    4  A    between atoms: N_15  and  C_16
REMARK    5  A    between atoms: C_19  and  C_20
REMARK    6  A    between atoms: C_33  and  C_34
REMARK                            x       y       z     vdW  Elec       q    Type
REMARK                         _______ _______ _______ _____ _____    ______ ____
ROOT
ATOM      1  C   UNL     1      -2.453  13.526  20.904  0.00  0.00    +0.000 A 
ATOM      2  C   UNL     1      -2.133  14.783  20.379  0.00  0.00    +0.000 A 
ATOM      3  C   UNL     1      -0.863  15.062  19.872  0.00  0.00    +0.000 A 
ATOM      4  C   UNL     1       0.126  14.100  19.836  0.00  0.00    +0.000 A 
ATOM      5  N   UNL     1       1.330  14.460  19.402  0.00  0.00    +0.000 NA
ATOM      6  C   UNL     1       2.257  13.505  19.361  0.00  0.00    +0.000 A 
ATOM      7  N   UNL     1       2.065  12.222  19.661  0.00  0.00    +0.000 NA
ATOM      8  C   UNL     1       0.833  11.857  20.058  0.00  0.00    +0.000 A 
ATOM      9  N   UNL     1       0.551  10.479  20.229  0.00  0.00    +0.000 N 
ATOM     10  C   UNL     1      -0.192  12.797  20.245  0.00  0.00    +0.000 A 
ATOM     11  C   UNL     1      -1.482  12.522  20.778  0.00  0.00    +0.000 A 
ATOM     12  H   UNL     1       0.224  10.291  21.170  0.00  0.00    +0.000 HD
ENDROOT
BRANCH   1  16
ATOM     13  C   UNL     1      -6.130  12.879  23.094  0.00  0.00    +0.000 A 
ATOM     14  C   UNL     1      -4.999  13.426  23.707  0.00  0.00    +0.000 A 
ATOM     15  C   UNL     1      -3.828  13.634  22.980  0.00  0.00    +0.000 A 
ATOM     16  C   UNL     1      -3.730  13.306  21.619  0.00  0.00    +0.000 A 
ATOM     17  C   UNL     1      -4.859  12.723  21.023  0.00  0.00    +0.000 A 
ATOM     18  C   UNL     1      -6.052  12.489  21.744  0.00  0.00    +0.000 A 
BRANCH  18  19
ATOM     19  C   UNL     1      -7.165  11.835  20.985  0.00  0.00    +0.000 C 
ATOM     20  N   UNL     1      -7.699  10.682  21.479  0.00  0.00    +0.000 N 
ATOM     21  O   UNL     1      -7.590  12.306  19.935  0.00  0.00    +0.000 OA
ATOM     22  H   UNL     1      -7.342  10.256  22.326  0.00  0.00    +0.000 HD
ATOM     23  H   UNL     1      -8.437  10.227  20.963  0.00  0.00    +0.000 HD
ENDBRANCH  18  19
BRANCH  13  25
ATOM     24  C   UNL     1      -7.840  13.858  24.394  0.00  0.00    +0.000 C 
ATOM     25  O   UNL     1      -7.292  12.680  23.796  0.00  0.00    +0.000 OA
ENDBRANCH  13  25
ENDBRANCH   1  16
BRANCH   9  26
ATOM     26  C   UNL     1       1.231   9.385  19.656  0.00  0.00    +0.000 A 
ATOM     27  C   UNL     1       1.507   9.293  18.287  0.00  0.00    +0.000 A 
ATOM     28  C   UNL     1       2.182   8.196  17.750  0.00  0.00    +0.000 A 
ATOM     29  C   UNL     1       2.558   7.133  18.571  0.00  0.00    +0.000 A 
ATOM     30  C   UNL     1       2.240   7.185  19.930  0.00  0.00    +0.000 A 
ATOM     31  C   UNL     1       1.541   8.279  20.455  0.00  0.00    +0.000 A 
BRANCH  29  32
ATOM     32  C   UNL     1       3.393   6.063  17.961  0.00  0.00    +0.000 C 
ATOM     33  O   UNL     1       4.572   6.346  17.738  0.00  0.00    +0.000 OA
ATOM     34  N   UNL     1       2.882   4.804  17.689  0.00  0.00    +0.000 N 
ATOM     35  C   UNL     1       1.487   4.359  17.685  0.00  0.00    +0.000 C 
ATOM     36  C   UNL     1       1.339   3.154  18.627  0.00  0.00    +0.000 C 
ATOM     37  O   UNL     1       2.233   2.093  18.242  0.00  0.00    +0.000 OA
ATOM     38  C   UNL     1       3.603   2.536  18.256  0.00  0.00    +0.000 C 
ATOM     39  C   UNL     1       3.812   3.734  17.323  0.00  0.00    +0.000 C 
ENDBRANCH  29  32
ENDBRANCH   9  26
TORSDOF 5
ENDMDL
MODEL 2
REMARK VINA RESULT:      -8.8      3.519     12.278
REMARK  Name = 
REMARK  6 active torsions:
REMARK  status: ('A' for Active; 'I' for Inactive)
REMARK    1  A    between atoms: C_1  and  O_2
REMARK    2  A    between atoms: O_2  and  C_3
REMARK    3  A    between atoms: C_6  and  C_7
REMARK    4  A    between atoms: N_15  and  C_16
REMARK    5  A    between atoms: C_19  and  C_20
REMARK    6  A    between atoms: C_33  and  C_34
REMARK                            x       y       z     vdW  Elec       q    Type
REMARK                         _______ _______ _______ _____ _____    ______ ____
ROOT
ATOM      1  C   UNL     1       4.337   4.303  16.896  0.00  0.00    +0.000 A 
ATOM      2  C   UNL     1       4.022   3.060  17.455  0.00  0.00    +0.000 A 
ATOM      3  C   UNL     1       3.304   2.955  18.648  0.00  0.00    +0.000 A 
ATOM      4  C   UNL     1       2.844   4.073  19.312  0.00  0.00    +0.000 A 
ATOM      5  N   UNL     1       2.228   3.896  20.477  0.00  0.00    +0.000 NA
ATOM      6  C   UNL     1       1.778   4.993  21.084  0.00  0.00    +0.000 A 
ATOM      7  N   UNL     1       1.844   6.231  20.601  0.00  0.00    +0.000 NA
ATOM      8  C   UNL     1       2.431   6.397  19.402  0.00  0.00    +0.000 A 
ATOM      9  N   UNL     1       2.376   7.672  18.786  0.00  0.00    +0.000 N 
ATOM     10  C   UNL     1       3.038   5.330  18.722  0.00  0.00    +0.000 A 
ATOM     11  C   UNL     1       3.787   5.434  17.517  0.00  0.00    +0.000 A 
ATOM     12  H   UNL     1       3.307   8.017  18.584  0.00  0.00    +0.000 HD
ENDROOT
BRANCH   1  16
ATOM     13  C   UNL     1       7.088   4.704  13.579  0.00  0.00    +0.000 A 
ATOM     14  C   UNL     1       7.272   5.408  14.771  0.00  0.00    +0.000 A 
ATOM     15  C   UNL     1       6.379   5.256  15.831  0.00  0.00    +0.000 A 
ATOM     16  C   UNL     1       5.266   4.405  15.749  0.00  0.00    +0.000 A 
ATOM     17  C   UNL     1       5.069   3.732  14.532  0.00  0.00    +0.000 A 
ATOM     18  C   UNL     1       5.955   3.882  13.440  0.00  0.00    +0.000 A 
BRANCH  18  19
ATOM     19  C   UNL     1       5.603   3.123  12.197  0.00  0.00    +0.000 C 
ATOM     20  N   UNL     1       6.469   2.169  11.752  0.00  0.00    +0.000 N 
ATOM     21  O   UNL     1       4.570   3.352  11.576  0.00  0.00    +0.000 OA
ATOM     22  H   UNL     1       7.344   1.986  12.229  0.00  0.00    +0.000 HD
ATOM     23  H   UNL     1       6.245   1.667  10.905  0.00  0.00    +0.000 HD
ENDBRANCH  18  19
BRANCH  13  25
ATOM     24  C   UNL     1       8.716   6.054  12.531  0.00  0.00    +0.000 C 
ATOM     25  O   UNL     1       7.967   4.836  12.533  0.00  0.00    +0.000 OA
ENDBRANCH  13  25
ENDBRANCH   1  16
BRANCH   9  26
ATOM     26  C   UNL     1       1.448   8.705  19.030  0.00  0.00    +0.000 A 
ATOM     27  C   UNL     1       1.077   9.640  18.058  0.00  0.00    +0.000 A 
ATOM     28  C   UNL     1       0.155  10.652  18.331  0.00  0.00    +0.000 A 
ATOM     29  C   UNL     1      -0.384  10.783  19.611  0.00  0.00    +0.000 A 
ATOM     30  C   UNL     1       0.020   9.891  20.607  0.00  0.00    +0.000 A 
ATOM     31  C   UNL     1       0.963   8.894  20.329  0.00  0.00    +0.000 A 
BRANCH  29  32
ATOM     32  C   UNL     1      -1.461  11.793  19.797  0.00  0.00    +0.000 C 
ATOM     33  O   UNL     1      -2.119  12.086  18.797  0.00  0.00    +0.000 OA
ATOM     34  N   UNL     1      -1.732  12.351  21.036  0.00  0.00    +0.000 N 
ATOM     35  C   UNL     1      -0.938  12.290  22.265  0.00  0.00    +0.000 C 
ATOM     36  C   UNL     1      -1.810  11.736  23.402  0.00  0.00    +0.000 C 
ATOM     37  O   UNL     1      -2.992  12.540  23.576  0.00  0.00    +0.000 OA
ATOM     38  C   UNL     1      -3.771  12.588  22.366  0.00  0.00    +0.000 C 
ATOM     39  C   UNL     1      -2.952  13.144  21.197  0.00  0.00    +0.000 C 
ENDBRANCH  29  32
ENDBRANCH   9  26
TORSDOF 5
ENDMDL
MODEL 3
REMARK VINA RESULT:      -8.7      3.725     12.394
REMARK  Name = 
REMARK  6 active torsions:
REMARK  status: ('A' for Active; 'I' for Inactive)
REMARK    1  A    between atoms: C_1  and  O_2
REMARK    2  A    between atoms: O_2  and  C_3
REMARK    3  A    between atoms: C_6  and  C_7
REMARK    4  A    between atoms: N_15  and  C_16
REMARK    5  A    between atoms: C_19  and  C_20
REMARK    6  A    between atoms: C_33  and  C_34
REMARK                            x       y       z     vdW  Elec       q    Type
REMARK                         _______ _______ _______ _____ _____    ______ ____
ROOT
ATOM      1  C   UNL     1       4.225   4.241  16.829  0.00  0.00    +0.000 A 
ATOM      2  C   UNL     1       3.821   2.982  17.286  0.00  0.00    +0.000 A 
ATOM      3  C   UNL     1       3.081   2.833  18.461  0.00  0.00    +0.000 A 
ATOM      4  C   UNL     1       2.687   3.923  19.207  0.00  0.00    +0.000 A 
ATOM      5  N   UNL     1       2.044   3.697  20.350  0.00  0.00    +0.000 NA
ATOM      6  C   UNL     1       1.660   4.771  21.038  0.00  0.00    +0.000 A 
ATOM      7  N   UNL     1       1.815   6.036  20.654  0.00  0.00    +0.000 NA
ATOM      8  C   UNL     1       2.428   6.256  19.477  0.00  0.00    +0.000 A 
ATOM      9  N   UNL     1       2.465   7.575  18.963  0.00  0.00    +0.000 N 
ATOM     10  C   UNL     1       2.972   5.207  18.721  0.00  0.00    +0.000 A 
ATOM     11  C   UNL     1       3.742   5.354  17.534  0.00  0.00    +0.000 A 
ATOM     12  H   UNL     1       3.420   7.872  18.798  0.00  0.00    +0.000 HD
ENDROOT
BRANCH   1  16
ATOM     13  C   UNL     1       7.030   4.722  13.569  0.00  0.00    +0.000 A 
ATOM     14  C   UNL     1       7.158   5.446  14.757  0.00  0.00    +0.000 A 
ATOM     15  C   UNL     1       6.248   5.269  15.799  0.00  0.00    +0.000 A 
ATOM     16  C   UNL     1       5.174   4.370  15.702  0.00  0.00    +0.000 A 
ATOM     17  C   UNL     1       5.033   3.676  14.490  0.00  0.00    +0.000 A 
ATOM     18  C   UNL     1       5.937   3.851  13.416  0.00  0.00    +0.000 A 
BRANCH  18  19
ATOM     19  C   UNL     1       5.646   3.065  12.174  0.00  0.00    +0.000 C 
ATOM     20  N   UNL     1       6.577   2.170  11.740  0.00  0.00    +0.000 N 
ATOM     21  O   UNL     1       4.604   3.220  11.545  0.00  0.00    +0.000 OA
ATOM     22  H   UNL     1       7.459   2.049  12.222  0.00  0.00    +0.000 HD
ATOM     23  H   UNL     1       6.394   1.650  10.894  0.00  0.00    +0.000 HD
ENDBRANCH  18  19
BRANCH  13  25
ATOM     24  C   UNL     1       8.799   6.006  12.676  0.00  0.00    +0.000 C 
ATOM     25  O   UNL     1       7.927   4.880  12.542  0.00  0.00    +0.000 OA
ENDBRANCH  13  25
ENDBRANCH   1  16
BRANCH   9  26
ATOM     26  C   UNL     1       1.606   8.646  19.281  0.00  0.00    +0.000 A 
ATOM     27  C   UNL     1       1.153   8.900  20.581  0.00  0.00    +0.000 A 
ATOM     28  C   UNL     1       0.302   9.970  20.863  0.00  0.00    +0.000 A 
ATOM     29  C   UNL     1      -0.159  10.789  19.833  0.00  0.00    +0.000 A 
ATOM     30  C   UNL     1       0.240  10.515  18.522  0.00  0.00    +0.000 A 
ATOM     31  C   UNL     1       1.074   9.425  18.247  0.00  0.00    +0.000 A 
BRANCH  29  32
ATOM     32  C   UNL     1      -0.949  11.990  20.219  0.00  0.00    +0.000 C 
ATOM     33  O   UNL     1      -2.164  11.829  20.355  0.00  0.00    +0.000 OA
ATOM     34  N   UNL     1      -0.347  13.218  20.447  0.00  0.00    +0.000 N 
ATOM     35  C   UNL     1       1.019  13.644  20.134  0.00  0.00    +0.000 C 
ATOM     36  C   UNL     1       1.690  14.167  21.413  0.00  0.00    +0.000 C 
ATOM     37  O   UNL     1       0.921  15.238  21.991  0.00  0.00    +0.000 OA
ATOM     38  C   UNL     1      -0.417  14.808  22.303  0.00  0.00    +0.000 C 
ATOM     39  C   UNL     1      -1.140  14.285  21.058  0.00  0.00    +0.000 C 
ENDBRANCH  29  32
ENDBRANCH   9  26
TORSDOF 5
ENDMDL
MODEL 4
REMARK VINA RESULT:      -8.7      3.622     12.397
REMARK  Name = 
REMARK  6 active torsions:
REMARK  status: ('A' for Active; 'I' for Inactive)
REMARK    1  A    between atoms: C_1  and  O_2
REMARK    2  A    between atoms: O_2  and  C_3
REMARK    3  A    between atoms: C_6  and  C_7
REMARK    4  A    between atoms: N_15  and  C_16
REMARK    5  A    between atoms: C_19  and  C_20
REMARK    6  A    between atoms: C_33  and  C_34
REMARK                            x       y       z     vdW  Elec       q    Type
REMARK                         _______ _______ _______ _____ _____    ______ ____
ROOT
ATOM      1  C   UNL     1       4.244   3.764  17.006  0.00  0.00    +0.000 A 
ATOM      2  C   UNL     1       3.820   2.459  17.277  0.00  0.00    +0.000 A 
ATOM      3  C   UNL     1       3.128   2.142  18.448  0.00  0.00    +0.000 A 
ATOM      4  C   UNL     1       2.801   3.110  19.375  0.00  0.00    +0.000 A 
ATOM      5  N   UNL     1       2.201   2.720  20.497  0.00  0.00    +0.000 NA
ATOM      6  C   UNL     1       1.881   3.680  21.363  0.00  0.00    +0.000 A 
ATOM      7  N   UNL     1       2.059   4.986  21.177  0.00  0.00    +0.000 NA
ATOM      8  C   UNL     1       2.627   5.375  20.021  0.00  0.00    +0.000 A 
ATOM      9  N   UNL     1       2.684   6.758  19.721  0.00  0.00    +0.000 N 
ATOM     10  C   UNL     1       3.105   4.447  19.083  0.00  0.00    +0.000 A 
ATOM     11  C   UNL     1       3.827   4.762  17.899  0.00  0.00    +0.000 A 
ATOM     12  H   UNL     1       3.639   7.054  19.558  0.00  0.00    +0.000 HD
ENDROOT
BRANCH   1  16
ATOM     13  C   UNL     1       6.910   4.694  13.727  0.00  0.00    +0.000 A 
ATOM     14  C   UNL     1       7.048   5.302  14.978  0.00  0.00    +0.000 A 
ATOM     15  C   UNL     1       6.184   4.981  16.023  0.00  0.00    +0.000 A 
ATOM     16  C   UNL     1       5.147   4.047  15.869  0.00  0.00    +0.000 A 
ATOM     17  C   UNL     1       4.993   3.471  14.598  0.00  0.00    +0.000 A 
ATOM     18  C   UNL     1       5.850   3.794  13.520  0.00  0.00    +0.000 A 
BRANCH  18  19
ATOM     19  C   UNL     1       5.549   3.122  12.215  0.00  0.00    +0.000 C 
ATOM     20  N   UNL     1       6.452   2.227  11.722  0.00  0.00    +0.000 N 
ATOM     21  O   UNL     1       4.525   3.369  11.586  0.00  0.00    +0.000 OA
ATOM     22  H   UNL     1       7.321   2.033  12.206  0.00  0.00    +0.000 HD
ATOM     23  H   UNL     1       6.263   1.785  10.835  0.00  0.00    +0.000 HD
ENDBRANCH  18  19
BRANCH  13  25
ATOM     24  C   UNL     1       8.722   6.014  12.986  0.00  0.00    +0.000 C 
ATOM     25  O   UNL     1       7.763   4.994  12.694  0.00  0.00    +0.000 OA
ENDBRANCH  13  25
ENDBRANCH   1  16
BRANCH   9  26
ATOM     26  C   UNL     1       1.872   7.786  20.244  0.00  0.00    +0.000 A 
ATOM     27  C   UNL     1       1.055   7.614  21.367  0.00  0.00    +0.000 A 
ATOM     28  C   UNL     1       0.264   8.652  21.861  0.00  0.00    +0.000 A 
ATOM     29  C   UNL     1       0.234   9.883  21.207  0.00  0.00    +0.000 A 
ATOM     30  C   UNL     1       1.002  10.053  20.052  0.00  0.00    +0.000 A 
ATOM     31  C   UNL     1       1.774   8.998  19.551  0.00  0.00    +0.000 A 
BRANCH  29  32
ATOM     32  C   UNL     1      -0.521  10.985  21.863  0.00  0.00    +0.000 C 
ATOM     33  O   UNL     1      -0.497  11.012  23.095  0.00  0.00    +0.000 OA
ATOM     34  N   UNL     1      -1.189  11.952  21.127  0.00  0.00    +0.000 N 
ATOM     35  C   UNL     1      -1.502  11.964  19.696  0.00  0.00    +0.000 C 
ATOM     36  C   UNL     1      -0.949  13.253  19.070  0.00  0.00    +0.000 C 
ATOM     37  O   UNL     1      -1.479  14.413  19.737  0.00  0.00    +0.000 OA
ATOM     38  C   UNL     1      -1.160  14.397  21.141  0.00  0.00    +0.000 C 
ATOM     39  C   UNL     1      -1.698  13.135  21.822  0.00  0.00    +0.000 C 
ENDBRANCH  29  32
ENDBRANCH   9  26
TORSDOF 5
ENDMDL
MODEL 5
REMARK VINA RESULT:      -8.6      1.108      2.071
REMARK  Name = 
REMARK  6 active torsions:
REMARK  status: ('A' for Active; 'I' for Inactive)
REMARK    1  A    between atoms: C_1  and  O_2
REMARK    2  A    between atoms: O_2  and  C_3
REMARK    3  A    between atoms: C_6  and  C_7
REMARK    4  A    between atoms: N_15  and  C_16
REMARK    5  A    between atoms: C_19  and  C_20
REMARK    6  A    between atoms: C_33  and  C_34
REMARK                            x       y       z     vdW  Elec       q    Type
REMARK                         _______ _______ _______ _____ _____    ______ ____
ROOT
ATOM      1  C   UNL     1      -2.401  13.448  21.063  0.00  0.00    +0.000 A 
ATOM      2  C   UNL     1      -2.067  14.689  20.512  0.00  0.00    +0.000 A 
ATOM      3  C   UNL     1      -0.807  14.931  19.962  0.00  0.00    +0.000 A 
ATOM      4  C   UNL     1       0.156  13.945  19.908  0.00  0.00    +0.000 A 
ATOM      5  N   UNL     1       1.355  14.270  19.432  0.00  0.00    +0.000 NA
ATOM      6  C   UNL     1       2.256  13.291  19.375  0.00  0.00    +0.000 A 
ATOM      7  N   UNL     1       2.043  12.017  19.697  0.00  0.00    +0.000 NA
ATOM      8  C   UNL     1       0.815  11.688  20.137  0.00  0.00    +0.000 A 
ATOM      9  N   UNL     1       0.506  10.320  20.334  0.00  0.00    +0.000 N 
ATOM     10  C   UNL     1      -0.180  12.655  20.343  0.00  0.00    +0.000 A 
ATOM     11  C   UNL     1      -1.459  12.418  20.920  0.00  0.00    +0.000 A 
ATOM     12  H   UNL     1       0.204  10.151  21.287  0.00  0.00    +0.000 HD
ENDROOT
BRANCH   1  16
ATOM     13  C   UNL     1      -6.021  12.909  23.373  0.00  0.00    +0.000 A 
ATOM     14  C   UNL     1      -4.833  13.346  23.965  0.00  0.00    +0.000 A 
ATOM     15  C   UNL     1      -3.681  13.522  23.200  0.00  0.00    +0.000 A 
ATOM     16  C   UNL     1      -3.659  13.268  21.820  0.00  0.00    +0.000 A 
ATOM     17  C   UNL     1      -4.847  12.793  21.242  0.00  0.00    +0.000 A 
ATOM     18  C   UNL     1      -6.023  12.594  22.002  0.00  0.00    +0.000 A 
BRANCH  18  19
ATOM     19  C   UNL     1      -7.207  12.057  21.257  0.00  0.00    +0.000 C 
ATOM     20  N   UNL     1      -7.775  10.896  21.690  0.00  0.00    +0.000 N 
ATOM     21  O   UNL     1      -7.660  12.630  20.271  0.00  0.00    +0.000 OA
ATOM     22  H   UNL     1      -7.398  10.387  22.481  0.00  0.00    +0.000 HD
ATOM     23  H   UNL     1      -8.562  10.520  21.182  0.00  0.00    +0.000 HD
ENDBRANCH  18  19
BRANCH  13  25
ATOM     24  C   UNL     1      -7.908  13.943  24.344  0.00  0.00    +0.000 C 
ATOM     25  O   UNL     1      -7.165  12.743  24.114  0.00  0.00    +0.000 OA
ENDBRANCH  13  25
ENDBRANCH   1  16
BRANCH   9  26
ATOM     26  C   UNL     1       1.140   9.202  19.754  0.00  0.00    +0.000 A 
ATOM     27  C   UNL     1       1.578   8.102  20.500  0.00  0.00    +0.000 A 
ATOM     28  C   UNL     1       2.202   7.010  19.896  0.00  0.00    +0.000 A 
ATOM     29  C   UNL     1       2.450   7.015  18.524  0.00  0.00    +0.000 A 
ATOM     30  C   UNL     1       2.069   8.131  17.774  0.00  0.00    +0.000 A 
ATOM     31  C   UNL     1       1.465   9.232  18.393  0.00  0.00    +0.000 A 
BRANCH  29  32
ATOM     32  C   UNL     1       2.992   5.766  17.924  0.00  0.00    +0.000 C 
ATOM     33  O   UNL     1       2.178   4.870  17.689  0.00  0.00    +0.000 OA
ATOM     34  N   UNL     1       4.336   5.628  17.615  0.00  0.00    +0.000 N 
ATOM     35  C   UNL     1       5.462   6.477  18.010  0.00  0.00    +0.000 C 
ATOM     36  C   UNL     1       6.214   6.934  16.750  0.00  0.00    +0.000 C 
ATOM     37  O   UNL     1       6.652   5.801  15.978  0.00  0.00    +0.000 OA
ATOM     38  C   UNL     1       5.539   4.976  15.588  0.00  0.00    +0.000 C 
ATOM     39  C   UNL     1       4.756   4.481  16.809  0.00  0.00    +0.000 C 
ENDBRANCH  29  32
ENDBRANCH   9  26
TORSDOF 5
ENDMDL
MODEL 6
REMARK VINA RESULT:      -8.5      3.013      4.462
REMARK  Name = 
REMARK  6 active torsions:
REMARK  status: ('A' for Active; 'I' for Inactive)
REMARK    1  A    between atoms: C_1  and  O_2
REMARK    2  A    between atoms: O_2  and  C_3
REMARK    3  A    between atoms: C_6  and  C_7
REMARK    4  A    between atoms: N_15  and  C_16
REMARK    5  A    between atoms: C_19  and  C_20
REMARK    6  A    between atoms: C_33  and  C_34
REMARK                            x       y       z     vdW  Elec       q    Type
REMARK                         _______ _______ _______ _____ _____    ______ ____
ROOT
ATOM      1  C   UNL     1      -2.376  13.027  20.995  0.00  0.00    +0.000 A 
ATOM      2  C   UNL     1      -3.672  12.930  20.478  0.00  0.00    +0.000 A 
ATOM      3  C   UNL     1      -3.952  12.163  19.346  0.00  0.00    +0.000 A 
ATOM      4  C   UNL     1      -2.969  11.438  18.705  0.00  0.00    +0.000 A 
ATOM      5  N   UNL     1      -3.299  10.786  17.593  0.00  0.00    +0.000 NA
ATOM      6  C   UNL     1      -2.333  10.081  17.010  0.00  0.00    +0.000 A 
ATOM      7  N   UNL     1      -1.093   9.929  17.471  0.00  0.00    +0.000 NA
ATOM      8  C   UNL     1      -0.779  10.557  18.618  0.00  0.00    +0.000 A 
ATOM      9  N   UNL     1       0.475  10.289  19.221  0.00  0.00    +0.000 N 
ATOM     10  C   UNL     1      -1.683  11.416  19.262  0.00  0.00    +0.000 A 
ATOM     11  C   UNL     1      -1.397  12.214  20.404  0.00  0.00    +0.000 A 
ATOM     12  H   UNL     1       1.006  11.144  19.345  0.00  0.00    +0.000 HD
ENDROOT
BRANCH   1  16
ATOM     13  C   UNL     1      -1.556  15.882  24.142  0.00  0.00    +0.000 A 
ATOM     14  C   UNL     1      -2.771  15.195  24.076  0.00  0.00    +0.000 A 
ATOM     15  C   UNL     1      -3.011  14.272  23.058  0.00  0.00    +0.000 A 
ATOM     16  C   UNL     1      -2.057  13.997  22.065  0.00  0.00    +0.000 A 
ATOM     17  C   UNL     1      -0.856  14.721  22.120  0.00  0.00    +0.000 A 
ATOM     18  C   UNL     1      -0.598  15.671  23.135  0.00  0.00    +0.000 A 
BRANCH  18  19
ATOM     19  C   UNL     1       0.716  16.386  23.050  0.00  0.00    +0.000 C 
ATOM     20  N   UNL     1       0.715  17.750  23.054  0.00  0.00    +0.000 N 
ATOM     21  O   UNL     1       1.776  15.775  22.967  0.00  0.00    +0.000 OA
ATOM     22  H   UNL     1      -0.150  18.276  23.088  0.00  0.00    +0.000 HD
ATOM     23  H   UNL     1       1.596  18.237  22.980  0.00  0.00    +0.000 HD
ENDBRANCH  18  19
BRANCH  13  25
ATOM     24  C   UNL     1      -1.052  16.200  26.427  0.00  0.00    +0.000 C 
ATOM     25  O   UNL     1      -1.305  16.784  25.146  0.00  0.00    +0.000 OA
ENDBRANCH  13  25
ENDBRANCH   1  16
BRANCH   9  26
ATOM     26  C   UNL     1       1.294   9.157  19.036  0.00  0.00    +0.000 A 
ATOM     27  C   UNL     1       1.479   8.182  20.023  0.00  0.00    +0.000 A 
ATOM     28  C   UNL     1       2.296   7.071  19.810  0.00  0.00    +0.000 A 
ATOM     29  C   UNL     1       2.992   6.933  18.609  0.00  0.00    +0.000 A 
ATOM     30  C   UNL     1       2.861   7.927  17.635  0.00  0.00    +0.000 A 
ATOM     31  C   UNL     1       2.057   9.049  17.869  0.00  0.00    +0.000 A 
BRANCH  29  32
ATOM     32  C   UNL     1       3.733   5.662  18.393  0.00  0.00    +0.000 C 
ATOM     33  O   UNL     1       4.961   5.716  18.493  0.00  0.00    +0.000 OA
ATOM     34  N   UNL     1       3.077   4.470  18.125  0.00  0.00    +0.000 N 
ATOM     35  C   UNL     1       1.674   4.255  17.764  0.00  0.00    +0.000 C 
ATOM     36  C   UNL     1       1.047   3.256  18.749  0.00  0.00    +0.000 C 
ATOM     37  O   UNL     1       1.785   2.020  18.763  0.00  0.00    +0.000 OA
ATOM     38  C   UNL     1       3.161   2.240  19.127  0.00  0.00    +0.000 C 
ATOM     39  C   UNL     1       3.842   3.223  18.168  0.00  0.00    +0.000 C 
ENDBRANCH  29  32
ENDBRANCH   9  26
TORSDOF 5
ENDMDL
MODEL 7
REMARK VINA RESULT:      -8.5      2.606      3.485
REMARK  Name = 
REMARK  6 active torsions:
REMARK  status: ('A' for Active; 'I' for Inactive)
REMARK    1  A    between atoms: C_1  and  O_2
REMARK    2  A    between atoms: O_2  and  C_3
REMARK    3  A    between atoms: C_6  and  C_7
REMARK    4  A    between atoms: N_15  and  C_16
REMARK    5  A    between atoms: C_19  and  C_20
REMARK    6  A    between atoms: C_33  and  C_34
REMARK                            x       y       z     vdW  Elec       q    Type
REMARK                         _______ _______ _______ _____ _____    ______ ____
ROOT
ATOM      1  C   UNL     1      -2.952  12.760  20.864  0.00  0.00    +0.000 A 
ATOM      2  C   UNL     1      -4.136  12.701  20.122  0.00  0.00    +0.000 A 
ATOM      3  C   UNL     1      -4.203  12.026  18.902  0.00  0.00    +0.000 A 
ATOM      4  C   UNL     1      -3.111  11.357  18.388  0.00  0.00    +0.000 A 
ATOM      5  N   UNL     1      -3.233  10.794  17.189  0.00  0.00    +0.000 NA
ATOM      6  C   UNL     1      -2.168  10.140  16.730  0.00  0.00    +0.000 A 
ATOM      7  N   UNL     1      -1.025   9.955  17.387  0.00  0.00    +0.000 NA
ATOM      8  C   UNL     1      -0.926  10.491  18.618  0.00  0.00    +0.000 A 
ATOM      9  N   UNL     1       0.208  10.179  19.407  0.00  0.00    +0.000 N 
ATOM     10  C   UNL     1      -1.942  11.294  19.158  0.00  0.00    +0.000 A 
ATOM     11  C   UNL     1      -1.872  11.999  20.392  0.00  0.00    +0.000 A 
ATOM     12  H   UNL     1       0.696  11.022  19.689  0.00  0.00    +0.000 HD
ENDROOT
BRANCH   1  16
ATOM     13  C   UNL     1      -2.537  15.280  24.357  0.00  0.00    +0.000 A 
ATOM     14  C   UNL     1      -1.474  14.509  23.880  0.00  0.00    +0.000 A 
ATOM     15  C   UNL     1      -1.626  13.712  22.747  0.00  0.00    +0.000 A 
ATOM     16  C   UNL     1      -2.840  13.643  22.045  0.00  0.00    +0.000 A 
ATOM     17  C   UNL     1      -3.913  14.391  22.555  0.00  0.00    +0.000 A 
ATOM     18  C   UNL     1      -3.784  15.196  23.711  0.00  0.00    +0.000 A 
BRANCH  18  19
ATOM     19  C   UNL     1      -5.020  15.916  24.155  0.00  0.00    +0.000 C 
ATOM     20  N   UNL     1      -6.135  15.182  24.432  0.00  0.00    +0.000 N 
ATOM     21  O   UNL     1      -5.049  17.138  24.260  0.00  0.00    +0.000 OA
ATOM     22  H   UNL     1      -6.146  14.176  24.319  0.00  0.00    +0.000 HD
ATOM     23  H   UNL     1      -6.976  15.664  24.714  0.00  0.00    +0.000 HD
ENDBRANCH  18  19
BRANCH  13  25
ATOM     24  C   UNL     1      -1.254  15.781  26.274  0.00  0.00    +0.000 C 
ATOM     25  O   UNL     1      -2.395  16.078  25.465  0.00  0.00    +0.000 OA
ENDBRANCH  13  25
ENDBRANCH   1  16
BRANCH   9  26
ATOM     26  C   UNL     1       1.065   9.067  19.281  0.00  0.00    +0.000 A 
ATOM     27  C   UNL     1       1.762   8.772  18.104  0.00  0.00    +0.000 A 
ATOM     28  C   UNL     1       2.604   7.663  18.010  0.00  0.00    +0.000 A 
ATOM     29  C   UNL     1       2.731   6.786  19.088  0.00  0.00    +0.000 A 
ATOM     30  C   UNL     1       1.998   7.036  20.251  0.00  0.00    +0.000 A 
ATOM     31  C   UNL     1       1.138   8.139  20.326  0.00  0.00    +0.000 A 
BRANCH  29  32
ATOM     32  C   UNL     1       3.746   5.705  18.971  0.00  0.00    +0.000 C 
ATOM     33  O   UNL     1       4.895   5.989  19.316  0.00  0.00    +0.000 OA
ATOM     34  N   UNL     1       3.412   4.434  18.530  0.00  0.00    +0.000 N 
ATOM     35  C   UNL     1       2.177   3.979  17.888  0.00  0.00    +0.000 C 
ATOM     36  C   UNL     1       1.597   2.802  18.687  0.00  0.00    +0.000 C 
ATOM     37  O   UNL     1       2.560   1.736  18.795  0.00  0.00    +0.000 OA
ATOM     38  C   UNL     1       3.768   2.190  19.434  0.00  0.00    +0.000 C 
ATOM     39  C   UNL     1       4.397   3.361  18.672  0.00  0.00    +0.000 C 
ENDBRANCH  29  32
ENDBRANCH   9  26
TORSDOF 5
ENDMDL
MODEL 8
REMARK VINA RESULT:      -8.4      2.741      3.937
REMARK  Name = 
REMARK  6 active torsions:
REMARK  status: ('A' for Active; 'I' for Inactive)
REMARK    1  A    between atoms: C_1  and  O_2
REMARK    2  A    between atoms: O_2  and  C_3
REMARK    3  A    between atoms: C_6  and  C_7
REMARK    4  A    between atoms: N_15  and  C_16
REMARK    5  A    between atoms: C_19  and  C_20
REMARK    6  A    between atoms: C_33  and  C_34
REMARK                            x       y       z     vdW  Elec       q    Type
REMARK                         _______ _______ _______ _____ _____    ______ ____
ROOT
ATOM      1  C   UNL     1      -3.430  12.685  20.599  0.00  0.00    +0.000 A 
ATOM      2  C   UNL     1      -4.601  12.548  19.847  0.00  0.00    +0.000 A 
ATOM      3  C   UNL     1      -4.611  11.874  18.624  0.00  0.00    +0.000 A 
ATOM      4  C   UNL     1      -3.471  11.284  18.118  0.00  0.00    +0.000 A 
ATOM      5  N   UNL     1      -3.544  10.719  16.916  0.00  0.00    +0.000 NA
ATOM      6  C   UNL     1      -2.433  10.142  16.463  0.00  0.00    +0.000 A 
ATOM      7  N   UNL     1      -1.285  10.034  17.130  0.00  0.00    +0.000 NA
ATOM      8  C   UNL     1      -1.233  10.570  18.362  0.00  0.00    +0.000 A 
ATOM      9  N   UNL     1      -0.087  10.335  19.161  0.00  0.00    +0.000 N 
ATOM     10  C   UNL     1      -2.306  11.299  18.897  0.00  0.00    +0.000 A 
ATOM     11  C   UNL     1      -2.296  12.003  20.133  0.00  0.00    +0.000 A 
ATOM     12  H   UNL     1       0.339  11.209  19.449  0.00  0.00    +0.000 HD
ENDROOT
BRANCH   1  16
ATOM     13  C   UNL     1      -3.425  15.281  24.062  0.00  0.00    +0.000 A 
ATOM     14  C   UNL     1      -4.554  14.540  23.704  0.00  0.00    +0.000 A 
ATOM     15  C   UNL     1      -4.531  13.703  22.590  0.00  0.00    +0.000 A 
ATOM     16  C   UNL     1      -3.389  13.570  21.784  0.00  0.00    +0.000 A 
ATOM     17  C   UNL     1      -2.272  14.347  22.130  0.00  0.00    +0.000 A 
ATOM     18  C   UNL     1      -2.279  15.213  23.248  0.00  0.00    +0.000 A 
BRANCH  18  19
ATOM     19  C   UNL     1      -1.026  16.001  23.480  0.00  0.00    +0.000 C 
ATOM     20  N   UNL     1      -1.117  17.359  23.552  0.00  0.00    +0.000 N 
ATOM     21  O   UNL     1       0.066  15.453  23.593  0.00  0.00    +0.000 OA
ATOM     22  H   UNL     1      -2.002  17.837  23.428  0.00  0.00    +0.000 HD
ATOM     23  H   UNL     1      -0.274  17.896  23.690  0.00  0.00    +0.000 HD
ENDBRANCH  18  19
BRANCH  13  25
ATOM     24  C   UNL     1      -4.370  17.178  25.102  0.00  0.00    +0.000 C 
ATOM     25  O   UNL     1      -3.432  16.100  25.164  0.00  0.00    +0.000 OA
ENDBRANCH  13  25
ENDBRANCH   1  16
BRANCH   9  26
ATOM     26  C   UNL     1       0.846   9.285  19.038  0.00  0.00    +0.000 A 
ATOM     27  C   UNL     1       1.177   8.433  20.097  0.00  0.00    +0.000 A 
ATOM     28  C   UNL     1       2.105   7.401  19.944  0.00  0.00    +0.000 A 
ATOM     29  C   UNL     1       2.765   7.228  18.728  0.00  0.00    +0.000 A 
ATOM     30  C   UNL     1       2.486   8.106  17.677  0.00  0.00    +0.000 A 
ATOM     31  C   UNL     1       1.572   9.152  17.849  0.00  0.00    +0.000 A 
BRANCH  29  32
ATOM     32  C   UNL     1       3.635   6.029  18.590  0.00  0.00    +0.000 C 
ATOM     33  O   UNL     1       4.838   6.194  18.803  0.00  0.00    +0.000 OA
ATOM     34  N   UNL     1       3.117   4.783  18.271  0.00  0.00    +0.000 N 
ATOM     35  C   UNL     1       1.779   4.442  17.782  0.00  0.00    +0.000 C 
ATOM     36  C   UNL     1       1.156   3.390  18.712  0.00  0.00    +0.000 C 
ATOM     37  O   UNL     1       1.999   2.226  18.802  0.00  0.00    +0.000 OA
ATOM     38  C   UNL     1       3.309   2.569  19.290  0.00  0.00    +0.000 C 
ATOM     39  C   UNL     1       3.985   3.611  18.393  0.00  0.00    +0.000 C 
ENDBRANCH  29  32
ENDBRANCH   9  26
TORSDOF 5
ENDMDL
MODEL 9
REMARK VINA RESULT:      -8.4      0.659      1.041
REMARK  Name = 
REMARK  6 active torsions:
REMARK  status: ('A' for Active; 'I' for Inactive)
REMARK    1  A    between atoms: C_1  and  O_2
REMARK    2  A    between atoms: O_2  and  C_3
REMARK    3  A    between atoms: C_6  and  C_7
REMARK    4  A    between atoms: N_15  and  C_16
REMARK    5  A    between atoms: C_19  and  C_20
REMARK    6  A    between atoms: C_33  and  C_34
REMARK                            x       y       z     vdW  Elec       q    Type
REMARK                         _______ _______ _______ _____ _____    ______ ____
ROOT
ATOM      1  C   UNL     1      -2.437  13.532  20.528  0.00  0.00    +0.000 A 
ATOM      2  C   UNL     1      -1.983  14.812  20.194  0.00  0.00    +0.000 A 
ATOM      3  C   UNL     1      -0.633  15.067  19.945  0.00  0.00    +0.000 A 
ATOM      4  C   UNL     1       0.310  14.060  19.985  0.00  0.00    +0.000 A 
ATOM      5  N   UNL     1       1.585  14.393  19.803  0.00  0.00    +0.000 NA
ATOM      6  C   UNL     1       2.467  13.396  19.828  0.00  0.00    +0.000 A 
ATOM      7  N   UNL     1       2.178  12.103  19.960  0.00  0.00    +0.000 NA
ATOM      8  C   UNL     1       0.882  11.771  20.100  0.00  0.00    +0.000 A 
ATOM      9  N   UNL     1       0.523  10.401  20.082  0.00  0.00    +0.000 N 
ATOM     10  C   UNL     1      -0.124  12.745  20.200  0.00  0.00    +0.000 A 
ATOM     11  C   UNL     1      -1.498  12.492  20.472  0.00  0.00    +0.000 A 
ATOM     12  H   UNL     1       0.027  10.145  20.928  0.00  0.00    +0.000 HD
ENDROOT
BRANCH   1  16
ATOM     13  C   UNL     1      -6.473  12.936  21.972  0.00  0.00    +0.000 A 
ATOM     14  C   UNL     1      -5.586  13.802  22.616  0.00  0.00    +0.000 A 
ATOM     15  C   UNL     1      -4.293  13.986  22.129  0.00  0.00    +0.000 A 
ATOM     16  C   UNL     1      -3.828  13.317  20.986  0.00  0.00    +0.000 A 
ATOM     17  C   UNL     1      -4.715  12.420  20.369  0.00  0.00    +0.000 A 
ATOM     18  C   UNL     1      -6.025  12.208  20.856  0.00  0.00    +0.000 A 
BRANCH  18  19
ATOM     19  C   UNL     1      -6.850  11.202  20.112  0.00  0.00    +0.000 C 
ATOM     20  N   UNL     1      -7.380  10.156  20.807  0.00  0.00    +0.000 N 
ATOM     21  O   UNL     1      -7.043  11.296  18.904  0.00  0.00    +0.000 OA
ATOM     22  H   UNL     1      -7.205  10.038  21.798  0.00  0.00    +0.000 HD
ATOM     23  H   UNL     1      -7.921   9.465  20.308  0.00  0.00    +0.000 HD
ENDBRANCH  18  19
BRANCH  13  25
ATOM     24  C   UNL     1      -7.917  12.978  23.840  0.00  0.00    +0.000 C 
ATOM     25  O   UNL     1      -7.752  12.756  22.437  0.00  0.00    +0.000 OA
ENDBRANCH  13  25
ENDBRANCH   1  16
BRANCH   9  26
ATOM     26  C   UNL     1       1.252   9.329  19.528  0.00  0.00    +0.000 A 
ATOM     27  C   UNL     1       1.655   8.216  20.274  0.00  0.00    +0.000 A 
ATOM     28  C   UNL     1       2.376   7.169  19.697  0.00  0.00    +0.000 A 
ATOM     29  C   UNL     1       2.755   7.236  18.356  0.00  0.00    +0.000 A 
ATOM     30  C   UNL     1       2.408   8.366  17.612  0.00  0.00    +0.000 A 
ATOM     31  C   UNL     1       1.706   9.421  18.207  0.00  0.00    +0.000 A 
BRANCH  29  32
ATOM     32  C   UNL     1       3.399   6.030  17.769  0.00  0.00    +0.000 C 
ATOM     33  O   UNL     1       4.558   6.163  17.372  0.00  0.00    +0.000 OA
ATOM     34  N   UNL     1       2.742   4.811  17.703  0.00  0.00    +0.000 N 
ATOM     35  C   UNL     1       1.323   4.519  17.920  0.00  0.00    +0.000 C 
ATOM     36  C   UNL     1       1.192   3.433  18.999  0.00  0.00    +0.000 C 
ATOM     37  O   UNL     1       1.924   2.251  18.626  0.00  0.00    +0.000 OA
ATOM     38  C   UNL     1       3.319   2.546  18.422  0.00  0.00    +0.000 C 
ATOM     39  C   UNL     1       3.511   3.618  17.345  0.00  0.00    +0.000 C 
ENDBRANCH  29  32
ENDBRANCH   9  26
TORSDOF 5
ENDMDL
