MODEL 1
REMARK VINA RESULT:      -8.5      0.000      0.000
REMARK  Name = 
REMARK  8 active torsions:
REMARK  status: ('A' for Active; 'I' for Inactive)
REMARK    1  A    between atoms: C_1  and  N_2
REMARK    2  A    between atoms: N_2  and  C_3
REMARK    3  A    between atoms: N_2  and  C_13
REMARK    4  A    between atoms: C_3  and  C_4
REMARK    5  A    between atoms: N_6  and  C_7
REMARK    6  A    between atoms: C_7  and  C_8
REMARK    7  A    between atoms: C_13  and  C_14
REMARK    8  A    between atoms: C_14  and  O_15
REMARK                            x       y       z     vdW  Elec       q    Type
REMARK                         _______ _______ _______ _____ _____    ______ ____
ROOT
ATOM      1  C   UNL     1       7.051   6.281  18.523  0.00  0.00    +0.000 C 
ATOM      2  N   UNL     1       6.281   5.253  17.813  0.00  0.00    +0.000 NA
ENDROOT
BRANCH   2   3
ATOM      3  C   UNL     1       7.186   4.359  17.057  0.00  0.00    +0.000 C 
BRANCH   3   4
ATOM      4  C   UNL     1       7.108   4.579  15.577  0.00  0.00    +0.000 A 
ATOM      5  C   UNL     1       6.493   3.834  14.593  0.00  0.00    +0.000 A 
ATOM      6  N   UNL     1       6.885   4.428  13.428  0.00  0.00    +0.000 N 
ATOM      7  N   UNL     1       7.650   5.508  13.671  0.00  0.00    +0.000 NA
ATOM      8  N   UNL     1       7.786   5.617  14.987  0.00  0.00    +0.000 NA
BRANCH   6   9
ATOM      9  C   UNL     1       6.789   3.882  12.089  0.00  0.00    +0.000 C 
BRANCH   9  10
ATOM     10  C   UNL     1       5.641   2.935  11.854  0.00  0.00    +0.000 C 
ATOM     11  N   UNL     1       5.903   1.603  11.724  0.00  0.00    +0.000 N 
ATOM     12  O   UNL     1       4.471   3.317  11.875  0.00  0.00    +0.000 OA
ATOM     13  H   UNL     1       6.851   1.241  11.670  0.00  0.00    +0.000 HD
ATOM     14  H   UNL     1       5.129   0.966  11.591  0.00  0.00    +0.000 HD
ENDBRANCH   9  10
ENDBRANCH   6   9
ENDBRANCH   3   4
ENDBRANCH   2   3
BRANCH   2  15
ATOM     15  C   UNL     1       5.491   4.427  18.777  0.00  0.00    +0.000 C 
BRANCH  15  16
ATOM     16  C   UNL     1       4.190   3.712  18.281  0.00  0.00    +0.000 C 
ATOM     17  C   UNL     1       3.371   4.656  17.353  0.00  0.00    +0.000 C 
ATOM     18  C   UNL     1       1.980   4.886  17.962  0.00  0.00    +0.000 C 
ATOM     19  C   UNL     1       2.008   4.087  19.220  0.00  0.00    +0.000 A 
ATOM     20  C   UNL     1       0.997   3.997  20.165  0.00  0.00    +0.000 A 
ATOM     21  C   UNL     1       1.204   3.202  21.293  0.00  0.00    +0.000 A 
ATOM     22  C   UNL     1       2.403   2.497  21.454  0.00  0.00    +0.000 A 
ATOM     23  C   UNL     1       3.413   2.593  20.494  0.00  0.00    +0.000 A 
ATOM     24  C   UNL     1       3.214   3.407  19.386  0.00  0.00    +0.000 A 
BRANCH  16  25
ATOM     25  O   UNL     1       4.488   2.548  17.510  0.00  0.00    +0.000 OA
ATOM     26  H   UNL     1       5.433   2.590  17.282  0.00  0.00    +0.000 HD
ENDBRANCH  16  25
ENDBRANCH  15  16
ENDBRANCH   2  15
TORSDOF 7
ENDMDL
MODEL 2
REMARK VINA RESULT:      -8.1      1.136      1.196
REMARK  Name = 
REMARK  8 active torsions:
REMARK  status: ('A' for Active; 'I' for Inactive)
REMARK    1  A    between atoms: C_1  and  N_2
REMARK    2  A    between atoms: N_2  and  C_3
REMARK    3  A    between atoms: N_2  and  C_13
REMARK    4  A    between atoms: C_3  and  C_4
REMARK    5  A    between atoms: N_6  and  C_7
REMARK    6  A    between atoms: C_7  and  C_8
REMARK    7  A    between atoms: C_13  and  C_14
REMARK    8  A    between atoms: C_14  and  O_15
REMARK                            x       y       z     vdW  Elec       q    Type
REMARK                         _______ _______ _______ _____ _____    ______ ____
ROOT
ATOM      1  C   UNL     1       7.651   6.109  18.813  0.00  0.00    +0.000 C 
ATOM      2  N   UNL     1       6.573   5.504  18.021  0.00  0.00    +0.000 NA
ENDROOT
BRANCH   2   3
ATOM      3  C   UNL     1       7.079   4.336  17.266  0.00  0.00    +0.000 C 
BRANCH   3   4
ATOM      4  C   UNL     1       7.022   4.541  15.783  0.00  0.00    +0.000 A 
ATOM      5  C   UNL     1       6.502   3.740  14.788  0.00  0.00    +0.000 A 
ATOM      6  N   UNL     1       6.871   4.362  13.630  0.00  0.00    +0.000 N 
ATOM      7  N   UNL     1       7.532   5.506  13.885  0.00  0.00    +0.000 NA
ATOM      8  N   UNL     1       7.621   5.633  15.204  0.00  0.00    +0.000 NA
BRANCH   6   9
ATOM      9  C   UNL     1       6.860   3.803  12.293  0.00  0.00    +0.000 C 
BRANCH   9  10
ATOM     10  C   UNL     1       5.637   2.999  11.934  0.00  0.00    +0.000 C 
ATOM     11  N   UNL     1       5.792   1.694  11.571  0.00  0.00    +0.000 N 
ATOM     12  O   UNL     1       4.502   3.459  12.055  0.00  0.00    +0.000 OA
ATOM     13  H   UNL     1       6.707   1.276  11.427  0.00  0.00    +0.000 HD
ATOM     14  H   UNL     1       4.968   1.149  11.354  0.00  0.00    +0.000 HD
ENDBRANCH   9  10
ENDBRANCH   6   9
ENDBRANCH   3   4
ENDBRANCH   2   3
BRANCH   2  15
ATOM     15  C   UNL     1       5.458   5.051  18.909  0.00  0.00    +0.000 C 
BRANCH  15  16
ATOM     16  C   UNL     1       3.979   5.264  18.444  0.00  0.00    +0.000 C 
ATOM     17  C   UNL     1       3.467   6.665  18.888  0.00  0.00    +0.000 C 
ATOM     18  C   UNL     1       2.246   6.492  19.805  0.00  0.00    +0.000 C 
ATOM     19  C   UNL     1       2.069   5.015  19.884  0.00  0.00    +0.000 A 
ATOM     20  C   UNL     1       1.119   4.335  20.633  0.00  0.00    +0.000 A 
ATOM     21  C   UNL     1       1.108   2.940  20.591  0.00  0.00    +0.000 A 
ATOM     22  C   UNL     1       2.026   2.247  19.793  0.00  0.00    +0.000 A 
ATOM     23  C   UNL     1       2.975   2.942  19.041  0.00  0.00    +0.000 A 
ATOM     24  C   UNL     1       3.001   4.329  19.106  0.00  0.00    +0.000 A 
BRANCH  16  25
ATOM     25  O   UNL     1       3.861   5.224  17.023  0.00  0.00    +0.000 OA
ATOM     26  H   UNL     1       2.913   5.151  16.816  0.00  0.00    +0.000 HD
ENDBRANCH  16  25
ENDBRANCH  15  16
ENDBRANCH   2  15
TORSDOF 7
ENDMDL
MODEL 3
REMARK VINA RESULT:      -7.8      1.586      1.852
REMARK  Name = 
REMARK  8 active torsions:
REMARK  status: ('A' for Active; 'I' for Inactive)
REMARK    1  A    between atoms: C_1  and  N_2
REMARK    2  A    between atoms: N_2  and  C_3
REMARK    3  A    between atoms: N_2  and  C_13
REMARK    4  A    between atoms: C_3  and  C_4
REMARK    5  A    between atoms: N_6  and  C_7
REMARK    6  A    between atoms: C_7  and  C_8
REMARK    7  A    between atoms: C_13  and  C_14
REMARK    8  A    between atoms: C_14  and  O_15
REMARK                            x       y       z     vdW  Elec       q    Type
REMARK                         _______ _______ _______ _____ _____    ______ ____
ROOT
ATOM      1  C   UNL     1       7.629   5.861  19.640  0.00  0.00    +0.000 C 
ATOM      2  N   UNL     1       6.729   5.450  18.555  0.00  0.00    +0.000 NA
ENDROOT
BRANCH   2   3
ATOM      3  C   UNL     1       7.413   4.505  17.645  0.00  0.00    +0.000 C 
BRANCH   3   4
ATOM      4  C   UNL     1       6.926   4.612  16.232  0.00  0.00    +0.000 A 
ATOM      5  C   UNL     1       6.006   3.850  15.543  0.00  0.00    +0.000 A 
ATOM      6  N   UNL     1       6.082   4.310  14.260  0.00  0.00    +0.000 N 
ATOM      7  N   UNL     1       6.953   5.332  14.165  0.00  0.00    +0.000 NA
ATOM      8  N   UNL     1       7.469   5.534  15.371  0.00  0.00    +0.000 NA
BRANCH   6   9
ATOM      9  C   UNL     1       5.569   3.670  13.066  0.00  0.00    +0.000 C 
BRANCH   9  10
ATOM     10  C   UNL     1       6.605   3.250  12.057  0.00  0.00    +0.000 C 
ATOM     11  N   UNL     1       6.645   1.946  11.658  0.00  0.00    +0.000 N 
ATOM     12  O   UNL     1       7.348   4.067  11.512  0.00  0.00    +0.000 OA
ATOM     13  H   UNL     1       6.075   1.228  12.097  0.00  0.00    +0.000 HD
ATOM     14  H   UNL     1       7.325   1.671  10.962  0.00  0.00    +0.000 HD
ENDBRANCH   9  10
ENDBRANCH   6   9
ENDBRANCH   3   4
ENDBRANCH   2   3
BRANCH   2  15
ATOM     15  C   UNL     1       5.510   4.782  19.106  0.00  0.00    +0.000 C 
BRANCH  15  16
ATOM     16  C   UNL     1       4.097   5.264  18.637  0.00  0.00    +0.000 C 
ATOM     17  C   UNL     1       3.470   6.219  19.695  0.00  0.00    +0.000 C 
ATOM     18  C   UNL     1       2.147   5.620  20.198  0.00  0.00    +0.000 C 
ATOM     19  C   UNL     1       2.026   4.343  19.440  0.00  0.00    +0.000 A 
ATOM     20  C   UNL     1       1.017   3.399  19.566  0.00  0.00    +0.000 A 
ATOM     21  C   UNL     1       1.072   2.251  18.774  0.00  0.00    +0.000 A 
ATOM     22  C   UNL     1       2.118   2.069  17.861  0.00  0.00    +0.000 A 
ATOM     23  C   UNL     1       3.126   3.027  17.741  0.00  0.00    +0.000 A 
ATOM     24  C   UNL     1       3.083   4.156  18.549  0.00  0.00    +0.000 A 
BRANCH  16  25
ATOM     25  O   UNL     1       4.170   6.005  17.419  0.00  0.00    +0.000 OA
ATOM     26  H   UNL     1       3.467   5.669  16.837  0.00  0.00    +0.000 HD
ENDBRANCH  16  25
ENDBRANCH  15  16
ENDBRANCH   2  15
TORSDOF 7
ENDMDL
MODEL 4
REMARK VINA RESULT:      -7.7      1.716      1.976
REMARK  Name = 
REMARK  8 active torsions:
REMARK  status: ('A' for Active; 'I' for Inactive)
REMARK    1  A    between atoms: C_1  and  N_2
REMARK    2  A    between atoms: N_2  and  C_3
REMARK    3  A    between atoms: N_2  and  C_13
REMARK    4  A    between atoms: C_3  and  C_4
REMARK    5  A    between atoms: N_6  and  C_7
REMARK    6  A    between atoms: C_7  and  C_8
REMARK    7  A    between atoms: C_13  and  C_14
REMARK    8  A    between atoms: C_14  and  O_15
REMARK                            x       y       z     vdW  Elec       q    Type
REMARK                         _______ _______ _______ _____ _____    ______ ____
ROOT
ATOM      1  C   UNL     1       3.402   7.201  18.321  0.00  0.00    +0.000 C 
ATOM      2  N   UNL     1       4.315   6.177  17.800  0.00  0.00    +0.000 NA
ENDROOT
BRANCH   2   3
ATOM      3  C   UNL     1       5.497   6.809  17.172  0.00  0.00    +0.000 C 
BRANCH   3   4
ATOM      4  C   UNL     1       6.001   6.040  15.989  0.00  0.00    +0.000 A 
ATOM      5  C   UNL     1       5.313   5.375  14.995  0.00  0.00    +0.000 A 
ATOM      6  N   UNL     1       6.287   4.736  14.284  0.00  0.00    +0.000 N 
ATOM      7  N   UNL     1       7.509   5.027  14.768  0.00  0.00    +0.000 NA
ATOM      8  N   UNL     1       7.347   5.836  15.808  0.00  0.00    +0.000 NA
BRANCH   6   9
ATOM      9  C   UNL     1       6.113   3.659  13.330  0.00  0.00    +0.000 C 
BRANCH   9  10
ATOM     10  C   UNL     1       7.000   3.719  12.113  0.00  0.00    +0.000 C 
ATOM     11  N   UNL     1       7.486   4.928  11.712  0.00  0.00    +0.000 N 
ATOM     12  O   UNL     1       7.374   2.699  11.533  0.00  0.00    +0.000 OA
ATOM     13  H   UNL     1       7.186   5.800  12.137  0.00  0.00    +0.000 HD
ATOM     14  H   UNL     1       8.102   4.963  10.910  0.00  0.00    +0.000 HD
ENDBRANCH   9  10
ENDBRANCH   6   9
ENDBRANCH   3   4
ENDBRANCH   2   3
BRANCH   2  15
ATOM     15  C   UNL     1       4.783   5.279  18.900  0.00  0.00    +0.000 C 
BRANCH  15  16
ATOM     16  C   UNL     1       4.395   3.764  18.866  0.00  0.00    +0.000 C 
ATOM     17  C   UNL     1       4.153   3.298  17.400  0.00  0.00    +0.000 C 
ATOM     18  C   UNL     1       2.711   2.784  17.262  0.00  0.00    +0.000 C 
ATOM     19  C   UNL     1       2.142   2.958  18.628  0.00  0.00    +0.000 A 
ATOM     20  C   UNL     1       0.840   2.682  19.022  0.00  0.00    +0.000 A 
ATOM     21  C   UNL     1       0.479   2.916  20.350  0.00  0.00    +0.000 A 
ATOM     22  C   UNL     1       1.420   3.403  21.265  0.00  0.00    +0.000 A 
ATOM     23  C   UNL     1       2.727   3.675  20.857  0.00  0.00    +0.000 A 
ATOM     24  C   UNL     1       3.076   3.467  19.529  0.00  0.00    +0.000 A 
BRANCH  16  25
ATOM     25  O   UNL     1       5.438   2.939  19.383  0.00  0.00    +0.000 OA
ATOM     26  H   UNL     1       6.264   3.215  18.948  0.00  0.00    +0.000 HD
ENDBRANCH  16  25
ENDBRANCH  15  16
ENDBRANCH   2  15
TORSDOF 7
ENDMDL
MODEL 5
REMARK VINA RESULT:      -7.7      1.285      1.677
REMARK  Name = 
REMARK  8 active torsions:
REMARK  status: ('A' for Active; 'I' for Inactive)
REMARK    1  A    between atoms: C_1  and  N_2
REMARK    2  A    between atoms: N_2  and  C_3
REMARK    3  A    between atoms: N_2  and  C_13
REMARK    4  A    between atoms: C_3  and  C_4
REMARK    5  A    between atoms: N_6  and  C_7
REMARK    6  A    between atoms: C_7  and  C_8
REMARK    7  A    between atoms: C_13  and  C_14
REMARK    8  A    between atoms: C_14  and  O_15
REMARK                            x       y       z     vdW  Elec       q    Type
REMARK                         _______ _______ _______ _____ _____    ______ ____
ROOT
ATOM      1  C   UNL     1       4.333   5.032  17.009  0.00  0.00    +0.000 C 
ATOM      2  N   UNL     1       5.391   4.070  17.343  0.00  0.00    +0.000 NA
ENDROOT
BRANCH   2   3
ATOM      3  C   UNL     1       6.711   4.582  16.912  0.00  0.00    +0.000 C 
BRANCH   3   4
ATOM      4  C   UNL     1       6.845   4.646  15.422  0.00  0.00    +0.000 A 
ATOM      5  C   UNL     1       6.264   3.874  14.437  0.00  0.00    +0.000 A 
ATOM      6  N   UNL     1       6.870   4.288  13.286  0.00  0.00    +0.000 N 
ATOM      7  N   UNL     1       7.733   5.293  13.528  0.00  0.00    +0.000 NA
ATOM      8  N   UNL     1       7.718   5.529  14.834  0.00  0.00    +0.000 NA
BRANCH   6   9
ATOM      9  C   UNL     1       6.870   3.614  12.003  0.00  0.00    +0.000 C 
BRANCH   9  10
ATOM     10  C   UNL     1       5.672   2.743  11.727  0.00  0.00    +0.000 C 
ATOM     11  N   UNL     1       5.859   1.402  11.558  0.00  0.00    +0.000 N 
ATOM     12  O   UNL     1       4.526   3.191  11.748  0.00  0.00    +0.000 OA
ATOM     13  H   UNL     1       6.784   0.987  11.502  0.00  0.00    +0.000 HD
ATOM     14  H   UNL     1       5.051   0.815  11.397  0.00  0.00    +0.000 HD
ENDBRANCH   9  10
ENDBRANCH   6   9
ENDBRANCH   3   4
ENDBRANCH   2   3
BRANCH   2  15
ATOM     15  C   UNL     1       5.433   3.825  18.817  0.00  0.00    +0.000 C 
BRANCH  15  16
ATOM     16  C   UNL     1       4.482   2.748  19.439  0.00  0.00    +0.000 C 
ATOM     17  C   UNL     1       4.137   1.655  18.385  0.00  0.00    +0.000 C 
ATOM     18  C   UNL     1       2.617   1.623  18.166  0.00  0.00    +0.000 C 
ATOM     19  C   UNL     1       2.105   2.684  19.078  0.00  0.00    +0.000 A 
ATOM     20  C   UNL     1       0.785   3.085  19.220  0.00  0.00    +0.000 A 
ATOM     21  C   UNL     1       0.490   4.108  20.124  0.00  0.00    +0.000 A 
ATOM     22  C   UNL     1       1.509   4.701  20.881  0.00  0.00    +0.000 A 
ATOM     23  C   UNL     1       2.833   4.286  20.730  0.00  0.00    +0.000 A 
ATOM     24  C   UNL     1       3.126   3.287  19.812  0.00  0.00    +0.000 A 
BRANCH  16  25
ATOM     25  O   UNL     1       5.096   2.071  20.535  0.00  0.00    +0.000 OA
ATOM     26  H   UNL     1       4.489   2.143  21.292  0.00  0.00    +0.000 HD
ENDBRANCH  16  25
ENDBRANCH  15  16
ENDBRANCH   2  15
TORSDOF 7
ENDMDL
MODEL 6
REMARK VINA RESULT:      -7.7      1.344      1.541
REMARK  Name = 
REMARK  8 active torsions:
REMARK  status: ('A' for Active; 'I' for Inactive)
REMARK    1  A    between atoms: C_1  and  N_2
REMARK    2  A    between atoms: N_2  and  C_3
REMARK    3  A    between atoms: N_2  and  C_13
REMARK    4  A    between atoms: C_3  and  C_4
REMARK    5  A    between atoms: N_6  and  C_7
REMARK    6  A    between atoms: C_7  and  C_8
REMARK    7  A    between atoms: C_13  and  C_14
REMARK    8  A    between atoms: C_14  and  O_15
REMARK                            x       y       z     vdW  Elec       q    Type
REMARK                         _______ _______ _______ _____ _____    ______ ____
ROOT
ATOM      1  C   UNL     1       4.898   6.838  16.026  0.00  0.00    +0.000 C 
ATOM      2  N   UNL     1       5.151   5.449  16.428  0.00  0.00    +0.000 NA
ENDROOT
BRANCH   2   3
ATOM      3  C   UNL     1       6.549   5.069  16.128  0.00  0.00    +0.000 C 
BRANCH   3   4
ATOM      4  C   UNL     1       6.773   4.806  14.671  0.00  0.00    +0.000 A 
ATOM      5  C   UNL     1       6.226   3.851  13.839  0.00  0.00    +0.000 A 
ATOM      6  N   UNL     1       6.913   3.993  12.668  0.00  0.00    +0.000 N 
ATOM      7  N   UNL     1       7.794   5.007  12.744  0.00  0.00    +0.000 NA
ATOM      8  N   UNL     1       7.710   5.521  13.965  0.00  0.00    +0.000 NA
BRANCH   6   9
ATOM      9  C   UNL     1       6.966   3.056  11.563  0.00  0.00    +0.000 C 
BRANCH   9  10
ATOM     10  C   UNL     1       5.779   2.136  11.433  0.00  0.00    +0.000 C 
ATOM     11  N   UNL     1       5.985   0.789  11.470  0.00  0.00    +0.000 N 
ATOM     12  O   UNL     1       4.627   2.567  11.395  0.00  0.00    +0.000 OA
ATOM     13  H   UNL     1       6.916   0.383  11.471  0.00  0.00    +0.000 HD
ATOM     14  H   UNL     1       5.185   0.173  11.408  0.00  0.00    +0.000 HD
ENDBRANCH   9  10
ENDBRANCH   6   9
ENDBRANCH   3   4
ENDBRANCH   2   3
BRANCH   2  15
ATOM     15  C   UNL     1       4.914   5.274  17.894  0.00  0.00    +0.000 C 
BRANCH  15  16
ATOM     16  C   UNL     1       4.505   3.865  18.439  0.00  0.00    +0.000 C 
ATOM     17  C   UNL     1       4.151   2.910  17.261  0.00  0.00    +0.000 C 
ATOM     18  C   UNL     1       2.697   2.436  17.412  0.00  0.00    +0.000 C 
ATOM     19  C   UNL     1       2.231   3.114  18.654  0.00  0.00    +0.000 A 
ATOM     20  C   UNL     1       0.959   3.049  19.203  0.00  0.00    +0.000 A 
ATOM     21  C   UNL     1       0.699   3.761  20.375  0.00  0.00    +0.000 A 
ATOM     22  C   UNL     1       1.710   4.511  20.988  0.00  0.00    +0.000 A 
ATOM     23  C   UNL     1       2.987   4.567  20.427  0.00  0.00    +0.000 A 
ATOM     24  C   UNL     1       3.235   3.879  19.247  0.00  0.00    +0.000 A 
BRANCH  16  25
ATOM     25  O   UNL     1       5.574   3.245  19.153  0.00  0.00    +0.000 OA
ATOM     26  H   UNL     1       5.678   3.729  19.990  0.00  0.00    +0.000 HD
ENDBRANCH  16  25
ENDBRANCH  15  16
ENDBRANCH   2  15
TORSDOF 7
ENDMDL
MODEL 7
REMARK VINA RESULT:      -7.6      1.103      1.172
REMARK  Name = 
REMARK  8 active torsions:
REMARK  status: ('A' for Active; 'I' for Inactive)
REMARK    1  A    between atoms: C_1  and  N_2
REMARK    2  A    between atoms: N_2  and  C_3
REMARK    3  A    between atoms: N_2  and  C_13
REMARK    4  A    between atoms: C_3  and  C_4
REMARK    5  A    between atoms: N_6  and  C_7
REMARK    6  A    between atoms: C_7  and  C_8
REMARK    7  A    between atoms: C_13  and  C_14
REMARK    8  A    between atoms: C_14  and  O_15
REMARK                            x       y       z     vdW  Elec       q    Type
REMARK                         _______ _______ _______ _____ _____    ______ ____
ROOT
ATOM      1  C   UNL     1       6.049   5.142  19.101  0.00  0.00    +0.000 C 
ATOM      2  N   UNL     1       5.785   4.810  17.696  0.00  0.00    +0.000 NA
ENDROOT
BRANCH   2   3
ATOM      3  C   UNL     1       7.031   4.380  17.024  0.00  0.00    +0.000 C 
BRANCH   3   4
ATOM      4  C   UNL     1       6.971   4.549  15.537  0.00  0.00    +0.000 A 
ATOM      5  C   UNL     1       6.404   3.749  14.567  0.00  0.00    +0.000 A 
ATOM      6  N   UNL     1       6.792   4.322  13.390  0.00  0.00    +0.000 N 
ATOM      7  N   UNL     1       7.507   5.441  13.610  0.00  0.00    +0.000 NA
ATOM      8  N   UNL     1       7.614   5.597  14.924  0.00  0.00    +0.000 NA
BRANCH   6   9
ATOM      9  C   UNL     1       6.742   3.731  12.068  0.00  0.00    +0.000 C 
BRANCH   9  10
ATOM     10  C   UNL     1       5.552   2.847  11.795  0.00  0.00    +0.000 C 
ATOM     11  N   UNL     1       4.320   3.420  11.682  0.00  0.00    +0.000 N 
ATOM     12  O   UNL     1       5.677   1.642  11.576  0.00  0.00    +0.000 OA
ATOM     13  H   UNL     1       4.159   4.402  11.882  0.00  0.00    +0.000 HD
ATOM     14  H   UNL     1       3.526   2.828  11.475  0.00  0.00    +0.000 HD
ENDBRANCH   9  10
ENDBRANCH   6   9
ENDBRANCH   3   4
ENDBRANCH   2   3
BRANCH   2  15
ATOM     15  C   UNL     1       4.784   3.704  17.596  0.00  0.00    +0.000 C 
BRANCH  15  16
ATOM     16  C   UNL     1       3.262   4.037  17.746  0.00  0.00    +0.000 C 
ATOM     17  C   UNL     1       3.032   5.575  17.666  0.00  0.00    +0.000 C 
ATOM     18  C   UNL     1       2.385   6.060  18.971  0.00  0.00    +0.000 C 
ATOM     19  C   UNL     1       2.252   4.819  19.784  0.00  0.00    +0.000 A 
ATOM     20  C   UNL     1       1.761   4.726  21.078  0.00  0.00    +0.000 A 
ATOM     21  C   UNL     1       1.718   3.472  21.689  0.00  0.00    +0.000 A 
ATOM     22  C   UNL     1       2.146   2.332  20.999  0.00  0.00    +0.000 A 
ATOM     23  C   UNL     1       2.636   2.437  19.696  0.00  0.00    +0.000 A 
ATOM     24  C   UNL     1       2.702   3.690  19.100  0.00  0.00    +0.000 A 
BRANCH  16  25
ATOM     25  O   UNL     1       2.488   3.458  16.696  0.00  0.00    +0.000 OA
ATOM     26  H   UNL     1       1.697   3.067  17.105  0.00  0.00    +0.000 HD
ENDBRANCH  16  25
ENDBRANCH  15  16
ENDBRANCH   2  15
TORSDOF 7
ENDMDL
MODEL 8
REMARK VINA RESULT:      -7.5      3.733      6.128
REMARK  Name = 
REMARK  8 active torsions:
REMARK  status: ('A' for Active; 'I' for Inactive)
REMARK    1  A    between atoms: C_1  and  N_2
REMARK    2  A    between atoms: N_2  and  C_3
REMARK    3  A    between atoms: N_2  and  C_13
REMARK    4  A    between atoms: C_3  and  C_4
REMARK    5  A    between atoms: N_6  and  C_7
REMARK    6  A    between atoms: C_7  and  C_8
REMARK    7  A    between atoms: C_13  and  C_14
REMARK    8  A    between atoms: C_14  and  O_15
REMARK                            x       y       z     vdW  Elec       q    Type
REMARK                         _______ _______ _______ _____ _____    ______ ____
ROOT
ATOM      1  C   UNL     1       6.305   5.462  19.346  0.00  0.00    +0.000 C 
ATOM      2  N   UNL     1       4.996   5.139  18.767  0.00  0.00    +0.000 NA
ENDROOT
BRANCH   2   3
ATOM      3  C   UNL     1       4.581   6.186  17.808  0.00  0.00    +0.000 C 
BRANCH   3   4
ATOM      4  C   UNL     1       3.409   6.982  18.296  0.00  0.00    +0.000 A 
ATOM      5  C   UNL     1       2.803   8.101  17.764  0.00  0.00    +0.000 A 
ATOM      6  N   UNL     1       1.894   8.472  18.713  0.00  0.00    +0.000 N 
ATOM      7  N   UNL     1       1.892   7.609  19.745  0.00  0.00    +0.000 NA
ATOM      8  N   UNL     1       2.810   6.683  19.496  0.00  0.00    +0.000 NA
BRANCH   6   9
ATOM      9  C   UNL     1       1.205   9.743  18.818  0.00  0.00    +0.000 C 
BRANCH   9  10
ATOM     10  C   UNL     1       0.405   9.947  20.078  0.00  0.00    +0.000 C 
ATOM     11  N   UNL     1       1.069  10.116  21.258  0.00  0.00    +0.000 N 
ATOM     12  O   UNL     1      -0.820  10.063  20.056  0.00  0.00    +0.000 OA
ATOM     13  H   UNL     1       2.075  10.000  21.335  0.00  0.00    +0.000 HD
ATOM     14  H   UNL     1       0.530  10.277  22.099  0.00  0.00    +0.000 HD
ENDBRANCH   9  10
ENDBRANCH   6   9
ENDBRANCH   3   4
ENDBRANCH   2   3
BRANCH   2  15
ATOM     15  C   UNL     1       5.046   3.828  18.049  0.00  0.00    +0.000 C 
BRANCH  15  16
ATOM     16  C   UNL     1       3.774   2.917  18.033  0.00  0.00    +0.000 C 
ATOM     17  C   UNL     1       2.737   3.451  17.002  0.00  0.00    +0.000 C 
ATOM     18  C   UNL     1       1.427   3.792  17.730  0.00  0.00    +0.000 C 
ATOM     19  C   UNL     1       1.717   3.461  19.153  0.00  0.00    +0.000 A 
ATOM     20  C   UNL     1       0.862   3.634  20.233  0.00  0.00    +0.000 A 
ATOM     21  C   UNL     1       1.310   3.273  21.505  0.00  0.00    +0.000 A 
ATOM     22  C   UNL     1       2.589   2.730  21.679  0.00  0.00    +0.000 A 
ATOM     23  C   UNL     1       3.438   2.558  20.585  0.00  0.00    +0.000 A 
ATOM     24  C   UNL     1       3.000   2.943  19.325  0.00  0.00    +0.000 A 
BRANCH  16  25
ATOM     25  O   UNL     1       4.085   1.582  17.636  0.00  0.00    +0.000 OA
ATOM     26  H   UNL     1       3.328   1.252  17.123  0.00  0.00    +0.000 HD
ENDBRANCH  16  25
ENDBRANCH  15  16
ENDBRANCH   2  15
TORSDOF 7
ENDMDL
MODEL 9
REMARK VINA RESULT:      -7.3      1.108      1.217
REMARK  Name = 
REMARK  8 active torsions:
REMARK  status: ('A' for Active; 'I' for Inactive)
REMARK    1  A    between atoms: C_1  and  N_2
REMARK    2  A    between atoms: N_2  and  C_3
REMARK    3  A    between atoms: N_2  and  C_13
REMARK    4  A    between atoms: C_3  and  C_4
REMARK    5  A    between atoms: N_6  and  C_7
REMARK    6  A    between atoms: C_7  and  C_8
REMARK    7  A    between atoms: C_13  and  C_14
REMARK    8  A    between atoms: C_14  and  O_15
REMARK                            x       y       z     vdW  Elec       q    Type
REMARK                         _______ _______ _______ _____ _____    ______ ____
ROOT
ATOM      1  C   UNL     1       6.285   5.358  19.269  0.00  0.00    +0.000 C 
ATOM      2  N   UNL     1       5.071   5.148  18.471  0.00  0.00    +0.000 NA
ENDROOT
BRANCH   2   3
ATOM      3  C   UNL     1       4.997   6.135  17.372  0.00  0.00    +0.000 C 
BRANCH   3   4
ATOM      4  C   UNL     1       5.820   5.738  16.185  0.00  0.00    +0.000 A 
ATOM      5  C   UNL     1       5.504   4.947  15.100  0.00  0.00    +0.000 A 
ATOM      6  N   UNL     1       6.685   4.813  14.428  0.00  0.00    +0.000 N 
ATOM      7  N   UNL     1       7.662   5.521  15.023  0.00  0.00    +0.000 NA
ATOM      8  N   UNL     1       7.142   6.102  16.096  0.00  0.00    +0.000 NA
BRANCH   6   9
ATOM      9  C   UNL     1       7.002   3.845  13.397  0.00  0.00    +0.000 C 
BRANCH   9  10
ATOM     10  C   UNL     1       5.835   3.369  12.571  0.00  0.00    +0.000 C 
ATOM     11  N   UNL     1       5.949   2.195  11.886  0.00  0.00    +0.000 N 
ATOM     12  O   UNL     1       4.754   3.959  12.576  0.00  0.00    +0.000 OA
ATOM     13  H   UNL     1       6.826   1.687  11.825  0.00  0.00    +0.000 HD
ATOM     14  H   UNL     1       5.156   1.865  11.352  0.00  0.00    +0.000 HD
ENDBRANCH   9  10
ENDBRANCH   6   9
ENDBRANCH   3   4
ENDBRANCH   2   3
BRANCH   2  15
ATOM     15  C   UNL     1       5.061   3.775  17.880  0.00  0.00    +0.000 C 
BRANCH  15  16
ATOM     16  C   UNL     1       3.735   2.943  17.904  0.00  0.00    +0.000 C 
ATOM     17  C   UNL     1       2.692   3.557  16.924  0.00  0.00    +0.000 C 
ATOM     18  C   UNL     1       1.436   3.965  17.709  0.00  0.00    +0.000 C 
ATOM     19  C   UNL     1       1.762   3.593  19.115  0.00  0.00    +0.000 A 
ATOM     20  C   UNL     1       0.964   3.801  20.231  0.00  0.00    +0.000 A 
ATOM     21  C   UNL     1       1.438   3.392  21.478  0.00  0.00    +0.000 A 
ATOM     22  C   UNL     1       2.687   2.769  21.592  0.00  0.00    +0.000 A 
ATOM     23  C   UNL     1       3.480   2.563  20.462  0.00  0.00    +0.000 A 
ATOM     24  C   UNL     1       3.017   2.995  19.226  0.00  0.00    +0.000 A 
BRANCH  16  25
ATOM     25  O   UNL     1       3.947   1.599  17.476  0.00  0.00    +0.000 OA
ATOM     26  H   UNL     1       4.163   1.630  16.528  0.00  0.00    +0.000 HD
ENDBRANCH  16  25
ENDBRANCH  15  16
ENDBRANCH   2  15
TORSDOF 7
ENDMDL
