MODEL 1
REMARK VINA RESULT:      -8.7      0.000      0.000
REMARK  Name = 
REMARK  1 active torsions:
REMARK  status: ('A' for Active; 'I' for Inactive)
REMARK    1  A    between atoms: C_11  and  C_12
REMARK                            x       y       z     vdW  Elec       q    Type
REMARK                         _______ _______ _______ _____ _____    ______ ____
ROOT
ATOM      1  O   UNL     1       4.135   2.184  19.666  0.00  0.00    +0.000 OA
ATOM      2  C   UNL     1       4.144   3.098  18.867  0.00  0.00    +0.000 C 
ATOM      3  N   UNL     1       4.711   3.127  17.629  0.00  0.00    +0.000 N 
ATOM      4  C   UNL     1       4.526   4.322  17.005  0.00  0.00    +0.000 C 
ATOM      5  O   UNL     1       4.904   4.653  15.899  0.00  0.00    +0.000 OA
ATOM      6  C   UNL     1       3.764   5.156  17.932  0.00  0.00    +0.000 A 
ATOM      7  C   UNL     1       3.315   6.457  17.786  0.00  0.00    +0.000 A 
ATOM      8  C   UNL     1       2.585   6.998  18.872  0.00  0.00    +0.000 A 
ATOM      9  C   UNL     1       1.974   8.264  19.113  0.00  0.00    +0.000 A 
ATOM     10 CL   UNL     1       2.055   9.556  17.998  0.00  0.00    +0.000 Cl
ATOM     11  C   UNL     1       1.356   8.239  20.356  0.00  0.00    +0.000 A 
ATOM     12  N   UNL     1       1.616   6.988  20.880  0.00  0.00    +0.000 N 
ATOM     13  C   UNL     1       2.353   6.214  20.012  0.00  0.00    +0.000 A 
ATOM     14  C   UNL     1       2.819   4.895  20.157  0.00  0.00    +0.000 A 
ATOM     15  C   UNL     1       3.527   4.409  19.070  0.00  0.00    +0.000 A 
ATOM     16  H   UNL     1       5.208   2.351  17.222  0.00  0.00    +0.000 HD
ATOM     17  H   UNL     1       1.285   6.668  21.780  0.00  0.00    +0.000 HD
ENDROOT
BRANCH  11  18
ATOM     18  C   UNL     1       0.558   9.238  21.083  0.00  0.00    +0.000 A 
ATOM     19  C   UNL     1       0.347   9.124  22.464  0.00  0.00    +0.000 A 
ATOM     20  C   UNL     1      -0.419  10.064  23.158  0.00  0.00    +0.000 A 
ATOM     21  C   UNL     1      -0.969  11.149  22.484  0.00  0.00    +0.000 A 
ATOM     22  C   UNL     1      -0.757  11.291  21.115  0.00  0.00    +0.000 A 
ATOM     23  C   UNL     1      -0.004  10.340  20.418  0.00  0.00    +0.000 A 
ENDBRANCH  11  18
TORSDOF 1
ENDMDL
MODEL 2
REMARK VINA RESULT:      -8.7      0.137      1.055
REMARK  Name = 
REMARK  1 active torsions:
REMARK  status: ('A' for Active; 'I' for Inactive)
REMARK    1  A    between atoms: C_11  and  C_12
REMARK                            x       y       z     vdW  Elec       q    Type
REMARK                         _______ _______ _______ _____ _____    ______ ____
ROOT
ATOM      1  O   UNL     1       4.110   2.108  19.738  0.00  0.00    +0.000 OA
ATOM      2  C   UNL     1       4.109   3.001  18.916  0.00  0.00    +0.000 C 
ATOM      3  N   UNL     1       4.642   2.992  17.663  0.00  0.00    +0.000 N 
ATOM      4  C   UNL     1       4.453   4.173  17.014  0.00  0.00    +0.000 C 
ATOM      5  O   UNL     1       4.806   4.471  15.890  0.00  0.00    +0.000 OA
ATOM      6  C   UNL     1       3.726   5.039  17.939  0.00  0.00    +0.000 A 
ATOM      7  C   UNL     1       3.288   6.341  17.772  0.00  0.00    +0.000 A 
ATOM      8  C   UNL     1       2.594   6.919  18.863  0.00  0.00    +0.000 A 
ATOM      9  C   UNL     1       2.004   8.197  19.087  0.00  0.00    +0.000 A 
ATOM     10 CL   UNL     1       2.069   9.459  17.938  0.00  0.00    +0.000 Cl
ATOM     11  C   UNL     1       1.420   8.211  20.347  0.00  0.00    +0.000 A 
ATOM     12  N   UNL     1       1.679   6.970  20.896  0.00  0.00    +0.000 N 
ATOM     13  C   UNL     1       2.385   6.166  20.028  0.00  0.00    +0.000 A 
ATOM     14  C   UNL     1       2.839   4.846  20.194  0.00  0.00    +0.000 A 
ATOM     15  C   UNL     1       3.512   4.324  19.102  0.00  0.00    +0.000 A 
ATOM     16  H   UNL     1       5.119   2.199  17.263  0.00  0.00    +0.000 HD
ATOM     17  H   UNL     1       1.370   6.677  21.812  0.00  0.00    +0.000 HD
ENDROOT
BRANCH  11  18
ATOM     18  C   UNL     1       0.653   9.237  21.069  0.00  0.00    +0.000 A 
ATOM     19  C   UNL     1       0.235  10.410  20.424  0.00  0.00    +0.000 A 
ATOM     20  C   UNL     1      -0.486  11.393  21.107  0.00  0.00    +0.000 A 
ATOM     21  C   UNL     1      -0.821  11.208  22.444  0.00  0.00    +0.000 A 
ATOM     22  C   UNL     1      -0.431  10.042  23.099  0.00  0.00    +0.000 A 
ATOM     23  C   UNL     1       0.305   9.067  22.418  0.00  0.00    +0.000 A 
ENDBRANCH  11  18
TORSDOF 1
ENDMDL
MODEL 3
REMARK VINA RESULT:      -8.4      4.513      6.254
REMARK  Name = 
REMARK  1 active torsions:
REMARK  status: ('A' for Active; 'I' for Inactive)
REMARK    1  A    between atoms: C_11  and  C_12
REMARK                            x       y       z     vdW  Elec       q    Type
REMARK                         _______ _______ _______ _____ _____    ______ ____
ROOT
ATOM      1  O   UNL     1       5.749   3.158  11.689  0.00  0.00    +0.000 OA
ATOM      2  C   UNL     1       6.377   3.838  12.474  0.00  0.00    +0.000 C 
ATOM      3  N   UNL     1       7.489   4.586  12.237  0.00  0.00    +0.000 N 
ATOM      4  C   UNL     1       7.931   5.223  13.356  0.00  0.00    +0.000 C 
ATOM      5  O   UNL     1       8.889   5.962  13.465  0.00  0.00    +0.000 OA
ATOM      6  C   UNL     1       7.015   4.847  14.431  0.00  0.00    +0.000 A 
ATOM      7  C   UNL     1       7.017   5.219  15.764  0.00  0.00    +0.000 A 
ATOM      8  C   UNL     1       5.979   4.689  16.568  0.00  0.00    +0.000 A 
ATOM      9  C   UNL     1       5.640   4.819  17.947  0.00  0.00    +0.000 A 
ATOM     10 CL   UNL     1       6.576   5.731  19.047  0.00  0.00    +0.000 Cl
ATOM     11  C   UNL     1       4.484   4.092  18.199  0.00  0.00    +0.000 A 
ATOM     12  N   UNL     1       4.142   3.501  16.998  0.00  0.00    +0.000 N 
ATOM     13  C   UNL     1       5.021   3.840  15.994  0.00  0.00    +0.000 A 
ATOM     14  C   UNL     1       5.029   3.461  14.640  0.00  0.00    +0.000 A 
ATOM     15  C   UNL     1       6.062   4.002  13.894  0.00  0.00    +0.000 A 
ATOM     16  H   UNL     1       7.931   4.663  11.335  0.00  0.00    +0.000 HD
ATOM     17  H   UNL     1       3.332   2.911  16.865  0.00  0.00    +0.000 HD
ENDROOT
BRANCH  11  18
ATOM     18  C   UNL     1       3.679   3.907  19.416  0.00  0.00    +0.000 A 
ATOM     19  C   UNL     1       3.697   2.691  20.113  0.00  0.00    +0.000 A 
ATOM     20  C   UNL     1       2.927   2.506  21.264  0.00  0.00    +0.000 A 
ATOM     21  C   UNL     1       2.140   3.545  21.750  0.00  0.00    +0.000 A 
ATOM     22  C   UNL     1       2.120   4.767  21.083  0.00  0.00    +0.000 A 
ATOM     23  C   UNL     1       2.879   4.945  19.921  0.00  0.00    +0.000 A 
ENDBRANCH  11  18
TORSDOF 1
ENDMDL
MODEL 4
REMARK VINA RESULT:      -8.4      4.517      6.318
REMARK  Name = 
REMARK  1 active torsions:
REMARK  status: ('A' for Active; 'I' for Inactive)
REMARK    1  A    between atoms: C_11  and  C_12
REMARK                            x       y       z     vdW  Elec       q    Type
REMARK                         _______ _______ _______ _____ _____    ______ ____
ROOT
ATOM      1  O   UNL     1       5.783   3.179  11.681  0.00  0.00    +0.000 OA
ATOM      2  C   UNL     1       6.408   3.858  12.469  0.00  0.00    +0.000 C 
ATOM      3  N   UNL     1       7.519   4.610  12.237  0.00  0.00    +0.000 N 
ATOM      4  C   UNL     1       7.956   5.244  13.358  0.00  0.00    +0.000 C 
ATOM      5  O   UNL     1       8.913   5.986  13.471  0.00  0.00    +0.000 OA
ATOM      6  C   UNL     1       7.039   4.864  14.430  0.00  0.00    +0.000 A 
ATOM      7  C   UNL     1       7.037   5.232  15.764  0.00  0.00    +0.000 A 
ATOM      8  C   UNL     1       5.999   4.699  16.565  0.00  0.00    +0.000 A 
ATOM      9  C   UNL     1       5.656   4.824  17.943  0.00  0.00    +0.000 A 
ATOM     10 CL   UNL     1       6.588   5.736  19.048  0.00  0.00    +0.000 Cl
ATOM     11  C   UNL     1       4.501   4.095  18.190  0.00  0.00    +0.000 A 
ATOM     12  N   UNL     1       4.163   3.506  16.987  0.00  0.00    +0.000 N 
ATOM     13  C   UNL     1       5.044   3.849  15.986  0.00  0.00    +0.000 A 
ATOM     14  C   UNL     1       5.056   3.473  14.631  0.00  0.00    +0.000 A 
ATOM     15  C   UNL     1       6.090   4.019  13.889  0.00  0.00    +0.000 A 
ATOM     16  H   UNL     1       7.963   4.689  11.336  0.00  0.00    +0.000 HD
ATOM     17  H   UNL     1       3.355   2.914  16.851  0.00  0.00    +0.000 HD
ENDROOT
BRANCH  11  18
ATOM     18  C   UNL     1       3.693   3.905  19.405  0.00  0.00    +0.000 A 
ATOM     19  C   UNL     1       2.877   4.934  19.894  0.00  0.00    +0.000 A 
ATOM     20  C   UNL     1       2.115   4.763  21.053  0.00  0.00    +0.000 A 
ATOM     21  C   UNL     1       2.139   3.549  21.730  0.00  0.00    +0.000 A 
ATOM     22  C   UNL     1       2.930   2.507  21.251  0.00  0.00    +0.000 A 
ATOM     23  C   UNL     1       3.705   2.685  20.100  0.00  0.00    +0.000 A 
ENDBRANCH  11  18
TORSDOF 1
ENDMDL
MODEL 5
REMARK VINA RESULT:      -7.9      3.568      7.591
REMARK  Name = 
REMARK  1 active torsions:
REMARK  status: ('A' for Active; 'I' for Inactive)
REMARK    1  A    between atoms: C_11  and  C_12
REMARK                            x       y       z     vdW  Elec       q    Type
REMARK                         _______ _______ _______ _____ _____    ______ ____
ROOT
ATOM      1  O   UNL     1      -0.333  12.176  19.257  0.00  0.00    +0.000 OA
ATOM      2  C   UNL     1      -0.170  11.221  19.988  0.00  0.00    +0.000 C 
ATOM      3  N   UNL     1      -0.683  11.017  21.233  0.00  0.00    +0.000 N 
ATOM      4  C   UNL     1      -0.290   9.827  21.764  0.00  0.00    +0.000 C 
ATOM      5  O   UNL     1      -0.583   9.361  22.847  0.00  0.00    +0.000 OA
ATOM      6  C   UNL     1       0.568   9.194  20.765  0.00  0.00    +0.000 A 
ATOM      7  C   UNL     1       1.224   7.977  20.807  0.00  0.00    +0.000 A 
ATOM      8  C   UNL     1       1.984   7.629  19.665  0.00  0.00    +0.000 A 
ATOM      9  C   UNL     1       2.788   6.502  19.324  0.00  0.00    +0.000 A 
ATOM     10 CL   UNL     1       3.053   5.198  20.395  0.00  0.00    +0.000 Cl
ATOM     11  C   UNL     1       3.288   6.675  18.040  0.00  0.00    +0.000 A 
ATOM     12  N   UNL     1       2.823   7.905  17.617  0.00  0.00    +0.000 N 
ATOM     13  C   UNL     1       2.034   8.507  18.572  0.00  0.00    +0.000 A 
ATOM     14  C   UNL     1       1.370   9.746  18.538  0.00  0.00    +0.000 A 
ATOM     15  C   UNL     1       0.641  10.042  19.677  0.00  0.00    +0.000 A 
ATOM     16  H   UNL     1      -1.287  11.672  21.704  0.00  0.00    +0.000 HD
ATOM     17  H   UNL     1       3.018   8.305  16.710  0.00  0.00    +0.000 HD
ENDROOT
BRANCH  11  18
ATOM     18  C   UNL     1       4.127   5.823  17.184  0.00  0.00    +0.000 A 
ATOM     19  C   UNL     1       4.994   6.386  16.237  0.00  0.00    +0.000 A 
ATOM     20  C   UNL     1       5.786   5.581  15.414  0.00  0.00    +0.000 A 
ATOM     21  C   UNL     1       5.740   4.197  15.540  0.00  0.00    +0.000 A 
ATOM     22  C   UNL     1       4.899   3.617  16.486  0.00  0.00    +0.000 A 
ATOM     23  C   UNL     1       4.094   4.423  17.298  0.00  0.00    +0.000 A 
ENDBRANCH  11  18
TORSDOF 1
ENDMDL
MODEL 6
REMARK VINA RESULT:      -7.9      3.583      7.550
REMARK  Name = 
REMARK  1 active torsions:
REMARK  status: ('A' for Active; 'I' for Inactive)
REMARK    1  A    between atoms: C_11  and  C_12
REMARK                            x       y       z     vdW  Elec       q    Type
REMARK                         _______ _______ _______ _____ _____    ______ ____
ROOT
ATOM      1  O   UNL     1      -0.257  12.271  19.174  0.00  0.00    +0.000 OA
ATOM      2  C   UNL     1      -0.119  11.317  19.912  0.00  0.00    +0.000 C 
ATOM      3  N   UNL     1      -0.650  11.127  21.151  0.00  0.00    +0.000 N 
ATOM      4  C   UNL     1      -0.283   9.935  21.693  0.00  0.00    +0.000 C 
ATOM      5  O   UNL     1      -0.596   9.478  22.774  0.00  0.00    +0.000 OA
ATOM      6  C   UNL     1       0.578   9.283  20.708  0.00  0.00    +0.000 A 
ATOM      7  C   UNL     1       1.214   8.056  20.764  0.00  0.00    +0.000 A 
ATOM      8  C   UNL     1       1.983   7.691  19.633  0.00  0.00    +0.000 A 
ATOM      9  C   UNL     1       2.774   6.549  19.308  0.00  0.00    +0.000 A 
ATOM     10 CL   UNL     1       3.005   5.247  20.389  0.00  0.00    +0.000 Cl
ATOM     11  C   UNL     1       3.293   6.708  18.030  0.00  0.00    +0.000 A 
ATOM     12  N   UNL     1       2.853   7.943  17.595  0.00  0.00    +0.000 N 
ATOM     13  C   UNL     1       2.061   8.562  18.537  0.00  0.00    +0.000 A 
ATOM     14  C   UNL     1       1.417   9.811  18.489  0.00  0.00    +0.000 A 
ATOM     15  C   UNL     1       0.678  10.125  19.617  0.00  0.00    +0.000 A 
ATOM     16  H   UNL     1      -1.250  11.794  21.611  0.00  0.00    +0.000 HD
ATOM     17  H   UNL     1       3.065   8.336  16.688  0.00  0.00    +0.000 HD
ENDROOT
BRANCH  11  18
ATOM     18  C   UNL     1       4.129   5.838  17.188  0.00  0.00    +0.000 A 
ATOM     19  C   UNL     1       4.076   4.444  17.319  0.00  0.00    +0.000 A 
ATOM     20  C   UNL     1       4.876   3.613  16.529  0.00  0.00    +0.000 A 
ATOM     21  C   UNL     1       5.726   4.165  15.577  0.00  0.00    +0.000 A 
ATOM     22  C   UNL     1       5.781   5.547  15.419  0.00  0.00    +0.000 A 
ATOM     23  C   UNL     1       4.993   6.378  16.222  0.00  0.00    +0.000 A 
ENDBRANCH  11  18
TORSDOF 1
ENDMDL
MODEL 7
REMARK VINA RESULT:      -7.8      2.034      3.093
REMARK  Name = 
REMARK  1 active torsions:
REMARK  status: ('A' for Active; 'I' for Inactive)
REMARK    1  A    between atoms: C_11  and  C_12
REMARK                            x       y       z     vdW  Elec       q    Type
REMARK                         _______ _______ _______ _____ _____    ______ ____
ROOT
ATOM      1  O   UNL     1       6.314   5.575  15.520  0.00  0.00    +0.000 OA
ATOM      2  C   UNL     1       5.843   5.296  16.604  0.00  0.00    +0.000 C 
ATOM      3  N   UNL     1       6.164   4.253  17.418  0.00  0.00    +0.000 N 
ATOM      4  C   UNL     1       5.431   4.248  18.564  0.00  0.00    +0.000 C 
ATOM      5  O   UNL     1       5.489   3.456  19.484  0.00  0.00    +0.000 OA
ATOM      6  C   UNL     1       4.539   5.403  18.486  0.00  0.00    +0.000 A 
ATOM      7  C   UNL     1       3.592   5.851  19.390  0.00  0.00    +0.000 A 
ATOM      8  C   UNL     1       2.881   7.021  19.032  0.00  0.00    +0.000 A 
ATOM      9  C   UNL     1       1.852   7.780  19.663  0.00  0.00    +0.000 A 
ATOM     10 CL   UNL     1       1.160   7.331  21.160  0.00  0.00    +0.000 Cl
ATOM     11  C   UNL     1       1.538   8.870  18.864  0.00  0.00    +0.000 A 
ATOM     12  N   UNL     1       2.341   8.761  17.745  0.00  0.00    +0.000 N 
ATOM     13  C   UNL     1       3.163   7.658  17.814  0.00  0.00    +0.000 A 
ATOM     14  C   UNL     1       4.122   7.194  16.896  0.00  0.00    +0.000 A 
ATOM     15  C   UNL     1       4.790   6.047  17.290  0.00  0.00    +0.000 A 
ATOM     16  H   UNL     1       6.868   3.566  17.197  0.00  0.00    +0.000 HD
ATOM     17  H   UNL     1       2.343   9.421  16.980  0.00  0.00    +0.000 HD
ENDROOT
BRANCH  11  18
ATOM     18  C   UNL     1       0.595   9.985  19.040  0.00  0.00    +0.000 A 
ATOM     19  C   UNL     1      -0.456  10.188  18.135  0.00  0.00    +0.000 A 
ATOM     20  C   UNL     1      -1.349  11.252  18.291  0.00  0.00    +0.000 A 
ATOM     21  C   UNL     1      -1.219  12.118  19.372  0.00  0.00    +0.000 A 
ATOM     22  C   UNL     1      -0.193  11.924  20.292  0.00  0.00    +0.000 A 
ATOM     23  C   UNL     1       0.711  10.869  20.125  0.00  0.00    +0.000 A 
ENDBRANCH  11  18
TORSDOF 1
ENDMDL
MODEL 8
REMARK VINA RESULT:      -7.8      2.154      3.011
REMARK  Name = 
REMARK  1 active torsions:
REMARK  status: ('A' for Active; 'I' for Inactive)
REMARK    1  A    between atoms: C_11  and  C_12
REMARK                            x       y       z     vdW  Elec       q    Type
REMARK                         _______ _______ _______ _____ _____    ______ ____
ROOT
ATOM      1  O   UNL     1       6.221   5.216  15.689  0.00  0.00    +0.000 OA
ATOM      2  C   UNL     1       5.714   5.014  16.774  0.00  0.00    +0.000 C 
ATOM      3  N   UNL     1       5.957   3.993  17.640  0.00  0.00    +0.000 N 
ATOM      4  C   UNL     1       5.203   4.083  18.769  0.00  0.00    +0.000 C 
ATOM      5  O   UNL     1       5.197   3.333  19.724  0.00  0.00    +0.000 OA
ATOM      6  C   UNL     1       4.384   5.284  18.621  0.00  0.00    +0.000 A 
ATOM      7  C   UNL     1       3.448   5.827  19.483  0.00  0.00    +0.000 A 
ATOM      8  C   UNL     1       2.814   7.019  19.058  0.00  0.00    +0.000 A 
ATOM      9  C   UNL     1       1.820   7.865  19.634  0.00  0.00    +0.000 A 
ATOM     10 CL   UNL     1       1.075   7.526  21.133  0.00  0.00    +0.000 Cl
ATOM     11  C   UNL     1       1.587   8.934  18.780  0.00  0.00    +0.000 A 
ATOM     12  N   UNL     1       2.403   8.727  17.685  0.00  0.00    +0.000 N 
ATOM     13  C   UNL     1       3.156   7.583  17.820  0.00  0.00    +0.000 A 
ATOM     14  C   UNL     1       4.103   7.021  16.944  0.00  0.00    +0.000 A 
ATOM     15  C   UNL     1       4.695   5.857  17.403  0.00  0.00    +0.000 A 
ATOM     16  H   UNL     1       6.623   3.257  17.465  0.00  0.00    +0.000 HD
ATOM     17  H   UNL     1       2.459   9.351  16.891  0.00  0.00    +0.000 HD
ENDROOT
BRANCH  11  18
ATOM     18  C   UNL     1       0.709  10.109  18.886  0.00  0.00    +0.000 A 
ATOM     19  C   UNL     1       1.066  11.205  19.684  0.00  0.00    +0.000 A 
ATOM     20  C   UNL     1       0.231  12.320  19.796  0.00  0.00    +0.000 A 
ATOM     21  C   UNL     1      -0.968  12.367  19.092  0.00  0.00    +0.000 A 
ATOM     22  C   UNL     1      -1.333  11.297  18.280  0.00  0.00    +0.000 A 
ATOM     23  C   UNL     1      -0.504  10.174  18.182  0.00  0.00    +0.000 A 
ENDBRANCH  11  18
TORSDOF 1
ENDMDL
MODEL 9
REMARK VINA RESULT:      -7.7      3.748      7.689
REMARK  Name = 
REMARK  1 active torsions:
REMARK  status: ('A' for Active; 'I' for Inactive)
REMARK    1  A    between atoms: C_11  and  C_12
REMARK                            x       y       z     vdW  Elec       q    Type
REMARK                         _______ _______ _______ _____ _____    ______ ____
ROOT
ATOM      1  O   UNL     1       2.237   1.816  20.985  0.00  0.00    +0.000 OA
ATOM      2  C   UNL     1       2.290   2.989  20.678  0.00  0.00    +0.000 C 
ATOM      3  N   UNL     1       1.770   4.057  21.342  0.00  0.00    +0.000 N 
ATOM      4  C   UNL     1       2.022   5.233  20.706  0.00  0.00    +0.000 C 
ATOM      5  O   UNL     1       1.695   6.352  21.049  0.00  0.00    +0.000 OA
ATOM      6  C   UNL     1       2.780   4.896  19.504  0.00  0.00    +0.000 A 
ATOM      7  C   UNL     1       3.282   5.723  18.515  0.00  0.00    +0.000 A 
ATOM      8  C   UNL     1       3.992   5.093  17.465  0.00  0.00    +0.000 A 
ATOM      9  C   UNL     1       4.641   5.572  16.289  0.00  0.00    +0.000 A 
ATOM     10 CL   UNL     1       4.648   7.222  15.845  0.00  0.00    +0.000 Cl
ATOM     11  C   UNL     1       5.213   4.499  15.618  0.00  0.00    +0.000 A 
ATOM     12  N   UNL     1       4.888   3.378  16.356  0.00  0.00    +0.000 N 
ATOM     13  C   UNL     1       4.154   3.699  17.476  0.00  0.00    +0.000 A 
ATOM     14  C   UNL     1       3.635   2.864  18.481  0.00  0.00    +0.000 A 
ATOM     15  C   UNL     1       2.948   3.525  19.485  0.00  0.00    +0.000 A 
ATOM     16  H   UNL     1       1.259   3.984  22.209  0.00  0.00    +0.000 HD
ATOM     17  H   UNL     1       5.175   2.438  16.118  0.00  0.00    +0.000 HD
ENDROOT
BRANCH  11  18
ATOM     18  C   UNL     1       6.021   4.418  14.392  0.00  0.00    +0.000 A 
ATOM     19  C   UNL     1       7.185   5.186  14.246  0.00  0.00    +0.000 A 
ATOM     20  C   UNL     1       7.952   5.120  13.079  0.00  0.00    +0.000 A 
ATOM     21  C   UNL     1       7.579   4.266  12.047  0.00  0.00    +0.000 A 
ATOM     22  C   UNL     1       6.436   3.482  12.179  0.00  0.00    +0.000 A 
ATOM     23  C   UNL     1       5.660   3.561  13.340  0.00  0.00    +0.000 A 
ENDBRANCH  11  18
TORSDOF 1
ENDMDL
