MODEL 1
REMARK VINA RESULT:      -6.5      0.000      0.000
REMARK  Name = 
REMARK  10 active torsions:
REMARK  status: ('A' for Active; 'I' for Inactive)
REMARK    1  A    between atoms: C_1  and  O_2
REMARK    2  A    between atoms: O_2  and  C_3
REMARK    3  A    between atoms: C_5  and  C_6
REMARK    4  A    between atoms: N_11  and  C_12
REMARK    5  A    between atoms: C_12  and  C_13
REMARK    6  A    between atoms: C_12  and  C_15
REMARK    7  A    between atoms: C_24  and  O_25
REMARK    8  A    between atoms: O_25  and  C_26
REMARK    9  A    between atoms: C_27  and  O_28
REMARK   10  A    between atoms: O_28  and  C_29
REMARK                            x       y       z     vdW  Elec       q    Type
REMARK                         _______ _______ _______ _____ _____    ______ ____
ROOT
ATOM      1  C   UNL     1       0.882   8.260  20.777  0.00  0.00    +0.000 C 
ATOM      2  O   UNL     1       0.283   7.904  21.786  0.00  0.00    +0.000 OA
ATOM      3  N   UNL     1       1.798   7.414  20.194  0.00  0.00    +0.000 N 
ATOM      4  C   UNL     1       1.878   6.014  20.634  0.00  0.00    +0.000 C 
ATOM      5  C   UNL     1       1.878   5.081  19.392  0.00  0.00    +0.000 C 
ATOM      6  N   UNL     1       2.901   5.452  18.362  0.00  0.00    +0.000 NA
ATOM      7  C   UNL     1       2.721   6.871  17.960  0.00  0.00    +0.000 C 
ATOM      8  C   UNL     1       2.776   7.836  19.170  0.00  0.00    +0.000 C 
ENDROOT
BRANCH   1  11
ATOM      9  C   UNL     1      -0.585  11.197  18.825  0.00  0.00    +0.000 A 
ATOM     10  C   UNL     1      -0.297   9.874  19.242  0.00  0.00    +0.000 A 
ATOM     11  C   UNL     1       0.614   9.636  20.276  0.00  0.00    +0.000 A 
ATOM     12  C   UNL     1       1.290  10.711  20.829  0.00  0.00    +0.000 A 
ATOM     13  C   UNL     1       1.012  12.010  20.500  0.00  0.00    +0.000 A 
ATOM     14  C   UNL     1       0.065  12.290  19.488  0.00  0.00    +0.000 A 
BRANCH   9  16
ATOM     15  C   UNL     1      -2.847  11.463  17.884  0.00  0.00    +0.000 C 
ATOM     16  O   UNL     1      -1.466  11.452  17.816  0.00  0.00    +0.000 OA
ENDBRANCH   9  16
BRANCH  13  17
ATOM     17  O   UNL     1       1.688  12.941  21.216  0.00  0.00    +0.000 OA
ATOM     18  C   UNL     1       2.768  13.701  20.847  0.00  0.00    +0.000 C 
ENDBRANCH  13  17
BRANCH  14  19
ATOM     19  O   UNL     1      -0.155  13.595  19.196  0.00  0.00    +0.000 OA
ATOM     20  C   UNL     1      -0.986  14.498  19.806  0.00  0.00    +0.000 C 
ENDBRANCH  14  19
ENDBRANCH   1  11
BRANCH   6  21
ATOM     21  C   UNL     1       4.320   5.106  18.681  0.00  0.00    +0.000 C 
BRANCH  21  22
ATOM     22  C   UNL     1       5.190   5.069  17.419  0.00  0.00    +0.000 A 
ATOM     23  C   UNL     1       4.862   4.195  16.371  0.00  0.00    +0.000 A 
ATOM     24  C   UNL     1       5.648   4.150  15.213  0.00  0.00    +0.000 A 
ATOM     25  C   UNL     1       6.761   4.983  15.104  0.00  0.00    +0.000 A 
ATOM     26  N   UNL     1       7.075   5.828  16.115  0.00  0.00    +0.000 NA
ATOM     27  C   UNL     1       6.334   5.894  17.249  0.00  0.00    +0.000 A 
ENDBRANCH  21  22
BRANCH  21  28
ATOM     28  C   UNL     1       4.305   3.732  19.329  0.00  0.00    +0.000 C 
ATOM     29  N   UNL     1       4.292   2.591  19.866  0.00  0.00    +0.000 NA
ENDBRANCH  21  28
ENDBRANCH   6  21
TORSDOF 7
ENDMDL
MODEL 2
REMARK VINA RESULT:      -6.4      0.372      2.401
REMARK  Name = 
REMARK  10 active torsions:
REMARK  status: ('A' for Active; 'I' for Inactive)
REMARK    1  A    between atoms: C_1  and  O_2
REMARK    2  A    between atoms: O_2  and  C_3
REMARK    3  A    between atoms: C_5  and  C_6
REMARK    4  A    between atoms: N_11  and  C_12
REMARK    5  A    between atoms: C_12  and  C_13
REMARK    6  A    between atoms: C_12  and  C_15
REMARK    7  A    between atoms: C_24  and  O_25
REMARK    8  A    between atoms: O_25  and  C_26
REMARK    9  A    between atoms: C_27  and  O_28
REMARK   10  A    between atoms: O_28  and  C_29
REMARK                            x       y       z     vdW  Elec       q    Type
REMARK                         _______ _______ _______ _____ _____    ______ ____
ROOT
ATOM      1  C   UNL     1       0.887   8.131  20.808  0.00  0.00    +0.000 C 
ATOM      2  O   UNL     1       0.276   7.743  21.799  0.00  0.00    +0.000 OA
ATOM      3  N   UNL     1       1.808   7.302  20.207  0.00  0.00    +0.000 N 
ATOM      4  C   UNL     1       1.881   5.889  20.602  0.00  0.00    +0.000 C 
ATOM      5  C   UNL     1       1.893   4.997  19.330  0.00  0.00    +0.000 C 
ATOM      6  N   UNL     1       2.926   5.400  18.323  0.00  0.00    +0.000 NA
ATOM      7  C   UNL     1       2.752   6.831  17.966  0.00  0.00    +0.000 C 
ATOM      8  C   UNL     1       2.796   7.756  19.208  0.00  0.00    +0.000 C 
ENDROOT
BRANCH   1  11
ATOM      9  C   UNL     1       1.018  11.933  20.470  0.00  0.00    +0.000 A 
ATOM     10  C   UNL     1       1.232  10.622  20.964  0.00  0.00    +0.000 A 
ATOM     11  C   UNL     1       0.625   9.522  20.349  0.00  0.00    +0.000 A 
ATOM     12  C   UNL     1      -0.254   9.745  19.301  0.00  0.00    +0.000 A 
ATOM     13  C   UNL     1      -0.454  10.984  18.753  0.00  0.00    +0.000 A 
ATOM     14  C   UNL     1       0.177  12.113  19.322  0.00  0.00    +0.000 A 
BRANCH   9  16
ATOM     15  C   UNL     1       2.803  13.612  20.731  0.00  0.00    +0.000 C 
ATOM     16  O   UNL     1       1.597  13.020  21.056  0.00  0.00    +0.000 OA
ENDBRANCH   9  16
BRANCH  13  17
ATOM     17  O   UNL     1      -1.260  11.004  17.664  0.00  0.00    +0.000 OA
ATOM     18  C   UNL     1      -2.220  10.103  17.280  0.00  0.00    +0.000 C 
ENDBRANCH  13  17
BRANCH  14  19
ATOM     19  O   UNL     1      -0.073  13.313  18.745  0.00  0.00    +0.000 OA
ATOM     20  C   UNL     1      -0.614  14.449  19.290  0.00  0.00    +0.000 C 
ENDBRANCH  14  19
ENDBRANCH   1  11
BRANCH   6  21
ATOM     21  C   UNL     1       4.342   5.041  18.646  0.00  0.00    +0.000 C 
BRANCH  21  22
ATOM     22  C   UNL     1       5.222   5.034  17.390  0.00  0.00    +0.000 A 
ATOM     23  C   UNL     1       4.898   4.193  16.315  0.00  0.00    +0.000 A 
ATOM     24  C   UNL     1       5.694   4.176  15.163  0.00  0.00    +0.000 A 
ATOM     25  C   UNL     1       6.813   5.004  15.087  0.00  0.00    +0.000 A 
ATOM     26  N   UNL     1       7.124   5.817  16.125  0.00  0.00    +0.000 NA
ATOM     27  C   UNL     1       6.374   5.856  17.253  0.00  0.00    +0.000 A 
ENDBRANCH  21  22
BRANCH  21  28
ATOM     28  C   UNL     1       4.318   3.651  19.258  0.00  0.00    +0.000 C 
ATOM     29  N   UNL     1       4.297   2.497  19.766  0.00  0.00    +0.000 NA
ENDBRANCH  21  28
ENDBRANCH   6  21
TORSDOF 7
ENDMDL
MODEL 3
REMARK VINA RESULT:      -6.2      1.138      1.171
REMARK  Name = 
REMARK  10 active torsions:
REMARK  status: ('A' for Active; 'I' for Inactive)
REMARK    1  A    between atoms: C_1  and  O_2
REMARK    2  A    between atoms: O_2  and  C_3
REMARK    3  A    between atoms: C_5  and  C_6
REMARK    4  A    between atoms: N_11  and  C_12
REMARK    5  A    between atoms: C_12  and  C_13
REMARK    6  A    between atoms: C_12  and  C_15
REMARK    7  A    between atoms: C_24  and  O_25
REMARK    8  A    between atoms: O_25  and  C_26
REMARK    9  A    between atoms: C_27  and  O_28
REMARK   10  A    between atoms: O_28  and  C_29
REMARK                            x       y       z     vdW  Elec       q    Type
REMARK                         _______ _______ _______ _____ _____    ______ ____
ROOT
ATOM      1  C   UNL     1       1.066   8.372  20.464  0.00  0.00    +0.000 C 
ATOM      2  O   UNL     1       0.570   8.115  21.557  0.00  0.00    +0.000 OA
ATOM      3  N   UNL     1       1.989   7.510  19.916  0.00  0.00    +0.000 N 
ATOM      4  C   UNL     1       2.196   6.185  20.518  0.00  0.00    +0.000 C 
ATOM      5  C   UNL     1       2.163   5.102  19.406  0.00  0.00    +0.000 C 
ATOM      6  N   UNL     1       3.077   5.394  18.255  0.00  0.00    +0.000 NA
ATOM      7  C   UNL     1       2.773   6.736  17.697  0.00  0.00    +0.000 C 
ATOM      8  C   UNL     1       2.855   7.851  18.769  0.00  0.00    +0.000 C 
ENDROOT
BRANCH   1  11
ATOM      9  C   UNL     1      -0.994  11.370  19.300  0.00  0.00    +0.000 A 
ATOM     10  C   UNL     1      -0.651  10.116  19.864  0.00  0.00    +0.000 A 
ATOM     11  C   UNL     1       0.669   9.653  19.821  0.00  0.00    +0.000 A 
ATOM     12  C   UNL     1       1.617  10.405  19.146  0.00  0.00    +0.000 A 
ATOM     13  C   UNL     1       1.350  11.645  18.632  0.00  0.00    +0.000 A 
ATOM     14  C   UNL     1       0.036  12.163  18.694  0.00  0.00    +0.000 A 
BRANCH   9  16
ATOM     15  C   UNL     1      -2.900  12.525  20.350  0.00  0.00    +0.000 C 
ATOM     16  O   UNL     1      -2.274  11.839  19.327  0.00  0.00    +0.000 OA
ENDBRANCH   9  16
BRANCH  13  17
ATOM     17  O   UNL     1       2.419  12.288  18.103  0.00  0.00    +0.000 OA
ATOM     18  C   UNL     1       3.089  13.388  18.576  0.00  0.00    +0.000 C 
ENDBRANCH  13  17
BRANCH  14  19
ATOM     19  O   UNL     1      -0.167  13.389  18.153  0.00  0.00    +0.000 OA
ATOM     20  C   UNL     1      -0.243  14.612  18.766  0.00  0.00    +0.000 C 
ENDBRANCH  14  19
ENDBRANCH   1  11
BRANCH   6  21
ATOM     21  C   UNL     1       4.537   5.173  18.494  0.00  0.00    +0.000 C 
BRANCH  21  22
ATOM     22  C   UNL     1       5.320   5.104  17.178  0.00  0.00    +0.000 A 
ATOM     23  C   UNL     1       4.929   4.198  16.180  0.00  0.00    +0.000 A 
ATOM     24  C   UNL     1       5.637   4.124  14.974  0.00  0.00    +0.000 A 
ATOM     25  C   UNL     1       6.733   4.960  14.766  0.00  0.00    +0.000 A 
ATOM     26  N   UNL     1       7.108   5.835  15.729  0.00  0.00    +0.000 NA
ATOM     27  C   UNL     1       6.445   5.930  16.908  0.00  0.00    +0.000 A 
ENDBRANCH  21  22
BRANCH  21  28
ATOM     28  C   UNL     1       4.669   3.852  19.234  0.00  0.00    +0.000 C 
ATOM     29  N   UNL     1       4.778   2.757  19.849  0.00  0.00    +0.000 NA
ENDBRANCH  21  28
ENDBRANCH   6  21
TORSDOF 7
ENDMDL
MODEL 4
REMARK VINA RESULT:      -6.2      1.059      2.270
REMARK  Name = 
REMARK  10 active torsions:
REMARK  status: ('A' for Active; 'I' for Inactive)
REMARK    1  A    between atoms: C_1  and  O_2
REMARK    2  A    between atoms: O_2  and  C_3
REMARK    3  A    between atoms: C_5  and  C_6
REMARK    4  A    between atoms: N_11  and  C_12
REMARK    5  A    between atoms: C_12  and  C_13
REMARK    6  A    between atoms: C_12  and  C_15
REMARK    7  A    between atoms: C_24  and  O_25
REMARK    8  A    between atoms: O_25  and  C_26
REMARK    9  A    between atoms: C_27  and  O_28
REMARK   10  A    between atoms: O_28  and  C_29
REMARK                            x       y       z     vdW  Elec       q    Type
REMARK                         _______ _______ _______ _____ _____    ______ ____
ROOT
ATOM      1  C   UNL     1       1.114   8.253  20.397  0.00  0.00    +0.000 C 
ATOM      2  O   UNL     1       0.543   7.936  21.436  0.00  0.00    +0.000 OA
ATOM      3  N   UNL     1       2.040   7.398  19.841  0.00  0.00    +0.000 N 
ATOM      4  C   UNL     1       2.162   6.026  20.352  0.00  0.00    +0.000 C 
ATOM      5  C   UNL     1       2.161   5.029  19.160  0.00  0.00    +0.000 C 
ATOM      6  N   UNL     1       3.154   5.369  18.091  0.00  0.00    +0.000 NA
ATOM      7  C   UNL     1       2.932   6.760  17.620  0.00  0.00    +0.000 C 
ATOM      8  C   UNL     1       2.986   7.789  18.776  0.00  0.00    +0.000 C 
ENDROOT
BRANCH   1  11
ATOM      9  C   UNL     1       1.463  11.637  18.663  0.00  0.00    +0.000 A 
ATOM     10  C   UNL     1       1.794  10.392  19.253  0.00  0.00    +0.000 A 
ATOM     11  C   UNL     1       0.803   9.593  19.831  0.00  0.00    +0.000 A 
ATOM     12  C   UNL     1      -0.494  10.077  19.889  0.00  0.00    +0.000 A 
ATOM     13  C   UNL     1      -0.876  11.247  19.289  0.00  0.00    +0.000 A 
ATOM     14  C   UNL     1       0.093  12.060  18.658  0.00  0.00    +0.000 A 
BRANCH   9  16
ATOM     15  C   UNL     1       3.069  13.507  18.673  0.00  0.00    +0.000 C 
ATOM     16  O   UNL     1       2.414  12.434  18.097  0.00  0.00    +0.000 OA
ENDBRANCH   9  16
BRANCH  13  17
ATOM     17  O   UNL     1      -2.203  11.515  19.348  0.00  0.00    +0.000 OA
ATOM     18  C   UNL     1      -3.166  11.336  18.387  0.00  0.00    +0.000 C 
ENDBRANCH  13  17
BRANCH  14  19
ATOM     19  O   UNL     1      -0.344  13.214  18.096  0.00  0.00    +0.000 OA
ATOM     20  C   UNL     1      -0.405  14.476  18.627  0.00  0.00    +0.000 C 
ENDBRANCH  14  19
ENDBRANCH   1  11
BRANCH   6  21
ATOM     21  C   UNL     1       4.587   5.074  18.398  0.00  0.00    +0.000 C 
BRANCH  21  22
ATOM     22  C   UNL     1       5.436   5.010  17.123  0.00  0.00    +0.000 A 
ATOM     23  C   UNL     1       5.077   4.132  16.089  0.00  0.00    +0.000 A 
ATOM     24  C   UNL     1       5.845   4.062  14.920  0.00  0.00    +0.000 A 
ATOM     25  C   UNL     1       6.970   4.875  14.786  0.00  0.00    +0.000 A 
ATOM     26  N   UNL     1       7.315   5.723  15.784  0.00  0.00    +0.000 NA
ATOM     27  C   UNL     1       6.593   5.813  16.928  0.00  0.00    +0.000 A 
ENDBRANCH  21  22
BRANCH  21  28
ATOM     28  C   UNL     1       4.620   3.726  19.100  0.00  0.00    +0.000 C 
ATOM     29  N   UNL     1       4.647   2.608  19.682  0.00  0.00    +0.000 NA
ENDBRANCH  21  28
ENDBRANCH   6  21
TORSDOF 7
ENDMDL
MODEL 5
REMARK VINA RESULT:      -6.2      3.465      9.039
REMARK  Name = 
REMARK  10 active torsions:
REMARK  status: ('A' for Active; 'I' for Inactive)
REMARK    1  A    between atoms: C_1  and  O_2
REMARK    2  A    between atoms: O_2  and  C_3
REMARK    3  A    between atoms: C_5  and  C_6
REMARK    4  A    between atoms: N_11  and  C_12
REMARK    5  A    between atoms: C_12  and  C_13
REMARK    6  A    between atoms: C_12  and  C_15
REMARK    7  A    between atoms: C_24  and  O_25
REMARK    8  A    between atoms: O_25  and  C_26
REMARK    9  A    between atoms: C_27  and  O_28
REMARK   10  A    between atoms: O_28  and  C_29
REMARK                            x       y       z     vdW  Elec       q    Type
REMARK                         _______ _______ _______ _____ _____    ______ ____
ROOT
ATOM      1  C   UNL     1       2.924   7.628  17.882  0.00  0.00    +0.000 C 
ATOM      2  O   UNL     1       3.388   7.946  16.792  0.00  0.00    +0.000 OA
ATOM      3  N   UNL     1       2.195   8.546  18.605  0.00  0.00    +0.000 N 
ATOM      4  C   UNL     1       1.777   9.805  17.973  0.00  0.00    +0.000 C 
ATOM      5  C   UNL     1       0.266  10.041  18.243  0.00  0.00    +0.000 C 
ATOM      6  N   UNL     1      -0.110   9.935  19.689  0.00  0.00    +0.000 NA
ATOM      7  C   UNL     1       0.326   8.622  20.229  0.00  0.00    +0.000 C 
ATOM      8  C   UNL     1       1.842   8.378  20.030  0.00  0.00    +0.000 C 
ENDROOT
BRANCH   1  11
ATOM      9  C   UNL     1       2.544   4.053  19.170  0.00  0.00    +0.000 A 
ATOM     10  C   UNL     1       2.226   5.371  18.757  0.00  0.00    +0.000 A 
ATOM     11  C   UNL     1       3.236   6.262  18.382  0.00  0.00    +0.000 A 
ATOM     12  C   UNL     1       4.557   5.860  18.499  0.00  0.00    +0.000 A 
ATOM     13  C   UNL     1       4.916   4.584  18.841  0.00  0.00    +0.000 A 
ATOM     14  C   UNL     1       3.918   3.644  19.187  0.00  0.00    +0.000 A 
BRANCH   9  16
ATOM     15  C   UNL     1       0.863   2.305  18.734  0.00  0.00    +0.000 C 
ATOM     16  O   UNL     1       1.576   3.169  19.544  0.00  0.00    +0.000 OA
ENDBRANCH   9  16
BRANCH  13  17
ATOM     17  O   UNL     1       6.247   4.333  18.800  0.00  0.00    +0.000 OA
ATOM     18  C   UNL     1       7.172   4.716  17.862  0.00  0.00    +0.000 C 
ENDBRANCH  13  17
BRANCH  14  19
ATOM     19  O   UNL     1       4.338   2.402  19.532  0.00  0.00    +0.000 OA
ATOM     20  C   UNL     1       4.591   1.880  20.773  0.00  0.00    +0.000 C 
ENDBRANCH  14  19
ENDBRANCH   1  11
BRANCH   6  21
ATOM     21  C   UNL     1       0.275  11.087  20.562  0.00  0.00    +0.000 C 
BRANCH  21  22
ATOM     22  C   UNL     1      -0.893  11.540  21.446  0.00  0.00    +0.000 A 
ATOM     23  C   UNL     1      -1.837  12.449  20.943  0.00  0.00    +0.000 A 
ATOM     24  C   UNL     1      -2.907  12.872  21.741  0.00  0.00    +0.000 A 
ATOM     25  C   UNL     1      -3.034  12.382  23.040  0.00  0.00    +0.000 A 
ATOM     26  N   UNL     1      -2.123  11.503  23.523  0.00  0.00    +0.000 NA
ATOM     27  C   UNL     1      -1.076  11.075  22.777  0.00  0.00    +0.000 A 
ENDBRANCH  21  22
BRANCH  21  28
ATOM     28  C   UNL     1       0.685  12.223  19.639  0.00  0.00    +0.000 C 
ATOM     29  N   UNL     1       1.026  13.165  18.874  0.00  0.00    +0.000 NA
ENDBRANCH  21  28
ENDBRANCH   6  21
TORSDOF 7
ENDMDL
MODEL 6
REMARK VINA RESULT:      -6.1      3.538      9.087
REMARK  Name = 
REMARK  10 active torsions:
REMARK  status: ('A' for Active; 'I' for Inactive)
REMARK    1  A    between atoms: C_1  and  O_2
REMARK    2  A    between atoms: O_2  and  C_3
REMARK    3  A    between atoms: C_5  and  C_6
REMARK    4  A    between atoms: N_11  and  C_12
REMARK    5  A    between atoms: C_12  and  C_13
REMARK    6  A    between atoms: C_12  and  C_15
REMARK    7  A    between atoms: C_24  and  O_25
REMARK    8  A    between atoms: O_25  and  C_26
REMARK    9  A    between atoms: C_27  and  O_28
REMARK   10  A    between atoms: O_28  and  C_29
REMARK                            x       y       z     vdW  Elec       q    Type
REMARK                         _______ _______ _______ _____ _____    ______ ____
ROOT
ATOM      1  C   UNL     1       2.569   7.846  18.139  0.00  0.00    +0.000 C 
ATOM      2  O   UNL     1       3.053   8.129  17.048  0.00  0.00    +0.000 OA
ATOM      3  N   UNL     1       1.808   8.777  18.810  0.00  0.00    +0.000 N 
ATOM      4  C   UNL     1       1.383  10.003  18.119  0.00  0.00    +0.000 C 
ATOM      5  C   UNL     1      -0.138  10.223  18.346  0.00  0.00    +0.000 C 
ATOM      6  N   UNL     1      -0.545  10.166  19.786  0.00  0.00    +0.000 NA
ATOM      7  C   UNL     1      -0.099   8.883  20.387  0.00  0.00    +0.000 C 
ATOM      8  C   UNL     1       1.426   8.660  20.231  0.00  0.00    +0.000 C 
ENDROOT
BRANCH   1  11
ATOM      9  C   UNL     1       2.230   4.282  19.469  0.00  0.00    +0.000 A 
ATOM     10  C   UNL     1       1.893   5.574  18.996  0.00  0.00    +0.000 A 
ATOM     11  C   UNL     1       2.893   6.506  18.700  0.00  0.00    +0.000 A 
ATOM     12  C   UNL     1       4.213   6.171  18.956  0.00  0.00    +0.000 A 
ATOM     13  C   UNL     1       4.595   4.921  19.361  0.00  0.00    +0.000 A 
ATOM     14  C   UNL     1       3.613   3.940  19.629  0.00  0.00    +0.000 A 
BRANCH   9  16
ATOM     15  C   UNL     1       0.678   2.451  18.910  0.00  0.00    +0.000 C 
ATOM     16  O   UNL     1       1.271   3.359  19.767  0.00  0.00    +0.000 OA
ENDBRANCH   9  16
BRANCH  13  17
ATOM     17  O   UNL     1       5.934   4.733  19.457  0.00  0.00    +0.000 OA
ATOM     18  C   UNL     1       6.954   5.574  19.091  0.00  0.00    +0.000 C 
ENDBRANCH  13  17
BRANCH  14  19
ATOM     19  O   UNL     1       4.054   2.727  20.043  0.00  0.00    +0.000 OA
ATOM     20  C   UNL     1       4.251   1.577  19.324  0.00  0.00    +0.000 C 
ENDBRANCH  14  19
ENDBRANCH   1  11
BRANCH   6  21
ATOM     21  C   UNL     1      -0.200  11.358  20.621  0.00  0.00    +0.000 C 
BRANCH  21  22
ATOM     22  C   UNL     1      -1.399  11.831  21.452  0.00  0.00    +0.000 A 
ATOM     23  C   UNL     1      -1.447  11.554  22.827  0.00  0.00    +0.000 A 
ATOM     24  C   UNL     1      -2.536  11.979  23.597  0.00  0.00    +0.000 A 
ATOM     25  C   UNL     1      -3.575  12.684  22.991  0.00  0.00    +0.000 A 
ATOM     26  N   UNL     1      -3.527  12.952  21.664  0.00  0.00    +0.000 NA
ATOM     27  C   UNL     1      -2.487  12.553  20.891  0.00  0.00    +0.000 A 
ENDBRANCH  21  22
BRANCH  21  28
ATOM     28  C   UNL     1       0.222  12.461  19.664  0.00  0.00    +0.000 C 
ATOM     29  N   UNL     1       0.572  13.375  18.869  0.00  0.00    +0.000 NA
ENDBRANCH  21  28
ENDBRANCH   6  21
TORSDOF 7
ENDMDL
MODEL 7
REMARK VINA RESULT:      -6.0      3.422      9.285
REMARK  Name = 
REMARK  10 active torsions:
REMARK  status: ('A' for Active; 'I' for Inactive)
REMARK    1  A    between atoms: C_1  and  O_2
REMARK    2  A    between atoms: O_2  and  C_3
REMARK    3  A    between atoms: C_5  and  C_6
REMARK    4  A    between atoms: N_11  and  C_12
REMARK    5  A    between atoms: C_12  and  C_13
REMARK    6  A    between atoms: C_12  and  C_15
REMARK    7  A    between atoms: C_24  and  O_25
REMARK    8  A    between atoms: O_25  and  C_26
REMARK    9  A    between atoms: C_27  and  O_28
REMARK   10  A    between atoms: O_28  and  C_29
REMARK                            x       y       z     vdW  Elec       q    Type
REMARK                         _______ _______ _______ _____ _____    ______ ____
ROOT
ATOM      1  C   UNL     1       2.570   7.960  17.949  0.00  0.00    +0.000 C 
ATOM      2  O   UNL     1       2.964   8.276  16.831  0.00  0.00    +0.000 OA
ATOM      3  N   UNL     1       1.820   8.851  18.684  0.00  0.00    +0.000 N 
ATOM      4  C   UNL     1       1.299  10.066  18.042  0.00  0.00    +0.000 C 
ATOM      5  C   UNL     1      -0.211  10.220  18.377  0.00  0.00    +0.000 C 
ATOM      6  N   UNL     1      -0.514  10.129  19.841  0.00  0.00    +0.000 NA
ATOM      7  C   UNL     1       0.025   8.859  20.391  0.00  0.00    +0.000 C 
ATOM      8  C   UNL     1       1.543   8.701  20.127  0.00  0.00    +0.000 C 
ENDROOT
BRANCH   1  11
ATOM      9  C   UNL     1       4.705   5.060  19.220  0.00  0.00    +0.000 A 
ATOM     10  C   UNL     1       4.334   6.310  18.665  0.00  0.00    +0.000 A 
ATOM     11  C   UNL     1       2.987   6.629  18.467  0.00  0.00    +0.000 A 
ATOM     12  C   UNL     1       2.027   5.669  18.745  0.00  0.00    +0.000 A 
ATOM     13  C   UNL     1       2.327   4.469  19.330  0.00  0.00    +0.000 A 
ATOM     14  C   UNL     1       3.676   4.130  19.584  0.00  0.00    +0.000 A 
BRANCH   9  16
ATOM     15  C   UNL     1       7.122   5.537  19.270  0.00  0.00    +0.000 C 
ATOM     16  O   UNL     1       6.012   4.726  19.418  0.00  0.00    +0.000 OA
ENDBRANCH   9  16
BRANCH  13  17
ATOM     17  O   UNL     1       1.257   3.696  19.634  0.00  0.00    +0.000 OA
ATOM     18  C   UNL     1       0.706   2.660  18.923  0.00  0.00    +0.000 C 
ENDBRANCH  13  17
BRANCH  14  19
ATOM     19  O   UNL     1       3.910   2.921  20.150  0.00  0.00    +0.000 OA
ATOM     20  C   UNL     1       4.280   1.739  19.563  0.00  0.00    +0.000 C 
ENDBRANCH  14  19
ENDBRANCH   1  11
BRANCH   6  21
ATOM     21  C   UNL     1      -0.160  11.325  20.667  0.00  0.00    +0.000 C 
BRANCH  21  22
ATOM     22  C   UNL     1      -1.333  11.768  21.549  0.00  0.00    +0.000 A 
ATOM     23  C   UNL     1      -2.372  12.534  20.997  0.00  0.00    +0.000 A 
ATOM     24  C   UNL     1      -3.448  12.947  21.793  0.00  0.00    +0.000 A 
ATOM     25  C   UNL     1      -3.485  12.589  23.140  0.00  0.00    +0.000 A 
ATOM     26  N   UNL     1      -2.483  11.848  23.671  0.00  0.00    +0.000 NA
ATOM     27  C   UNL     1      -1.428  11.434  22.928  0.00  0.00    +0.000 A 
ENDBRANCH  21  22
BRANCH  21  28
ATOM     28  C   UNL     1       0.198  12.441  19.699  0.00  0.00    +0.000 C 
ATOM     29  N   UNL     1       0.494  13.366  18.895  0.00  0.00    +0.000 NA
ENDBRANCH  21  28
ENDBRANCH   6  21
TORSDOF 7
ENDMDL
MODEL 8
REMARK VINA RESULT:      -6.0      3.501      9.308
REMARK  Name = 
REMARK  10 active torsions:
REMARK  status: ('A' for Active; 'I' for Inactive)
REMARK    1  A    between atoms: C_1  and  O_2
REMARK    2  A    between atoms: O_2  and  C_3
REMARK    3  A    between atoms: C_5  and  C_6
REMARK    4  A    between atoms: N_11  and  C_12
REMARK    5  A    between atoms: C_12  and  C_13
REMARK    6  A    between atoms: C_12  and  C_15
REMARK    7  A    between atoms: C_24  and  O_25
REMARK    8  A    between atoms: O_25  and  C_26
REMARK    9  A    between atoms: C_27  and  O_28
REMARK   10  A    between atoms: O_28  and  C_29
REMARK                            x       y       z     vdW  Elec       q    Type
REMARK                         _______ _______ _______ _____ _____    ______ ____
ROOT
ATOM      1  C   UNL     1       2.070   8.329  18.449  0.00  0.00    +0.000 C 
ATOM      2  O   UNL     1       2.196   8.670  17.277  0.00  0.00    +0.000 OA
ATOM      3  N   UNL     1       1.476   9.186  19.347  0.00  0.00    +0.000 N 
ATOM      4  C   UNL     1       0.788  10.389  18.859  0.00  0.00    +0.000 C 
ATOM      5  C   UNL     1      -0.613  10.488  19.524  0.00  0.00    +0.000 C 
ATOM      6  N   UNL     1      -0.580  10.371  21.017  0.00  0.00    +0.000 NA
ATOM      7  C   UNL     1       0.106   9.115  21.410  0.00  0.00    +0.000 C 
ATOM      8  C   UNL     1       1.532   9.011  20.813  0.00  0.00    +0.000 C 
ENDROOT
BRANCH   1  11
ATOM      9  C   UNL     1       2.621   4.990  20.220  0.00  0.00    +0.000 A 
ATOM     10  C   UNL     1       2.111   6.275  19.909  0.00  0.00    +0.000 A 
ATOM     11  C   UNL     1       2.633   7.007  18.837  0.00  0.00    +0.000 A 
ATOM     12  C   UNL     1       3.710   6.488  18.137  0.00  0.00    +0.000 A 
ATOM     13  C   UNL     1       4.204   5.231  18.363  0.00  0.00    +0.000 A 
ATOM     14  C   UNL     1       3.673   4.446  19.411  0.00  0.00    +0.000 A 
BRANCH   9  16
ATOM     15  C   UNL     1       1.244   3.202  21.210  0.00  0.00    +0.000 C 
ATOM     16  O   UNL     1       2.131   4.261  21.263  0.00  0.00    +0.000 OA
ENDBRANCH   9  16
BRANCH  13  17
ATOM     17  O   UNL     1       5.186   4.841  17.514  0.00  0.00    +0.000 OA
ATOM     18  C   UNL     1       5.083   4.372  16.229  0.00  0.00    +0.000 C 
ENDBRANCH  13  17
BRANCH  14  19
ATOM     19  O   UNL     1       4.215   3.218  19.595  0.00  0.00    +0.000 OA
ATOM     20  C   UNL     1       3.852   2.013  19.052  0.00  0.00    +0.000 C 
ENDBRANCH  14  19
ENDBRANCH   1  11
BRANCH   6  21
ATOM     21  C   UNL     1      -0.088  11.570  21.765  0.00  0.00    +0.000 C 
BRANCH  21  22
ATOM     22  C   UNL     1      -1.199  12.199  22.615  0.00  0.00    +0.000 A 
ATOM     23  C   UNL     1      -1.100  13.543  23.007  0.00  0.00    +0.000 A 
ATOM     24  C   UNL     1      -2.107  14.129  23.784  0.00  0.00    +0.000 A 
ATOM     25  C   UNL     1      -3.212  13.371  24.165  0.00  0.00    +0.000 A 
ATOM     26  N   UNL     1      -3.307  12.074  23.785  0.00  0.00    +0.000 NA
ATOM     27  C   UNL     1      -2.349  11.477  23.034  0.00  0.00    +0.000 A 
ENDBRANCH  21  22
BRANCH  21  28
ATOM     28  C   UNL     1       0.389  12.573  20.728  0.00  0.00    +0.000 C 
ATOM     29  N   UNL     1       0.786  13.405  19.868  0.00  0.00    +0.000 NA
ENDBRANCH  21  28
ENDBRANCH   6  21
TORSDOF 7
ENDMDL
MODEL 9
REMARK VINA RESULT:      -5.8      3.525      9.189
REMARK  Name = 
REMARK  10 active torsions:
REMARK  status: ('A' for Active; 'I' for Inactive)
REMARK    1  A    between atoms: C_1  and  O_2
REMARK    2  A    between atoms: O_2  and  C_3
REMARK    3  A    between atoms: C_5  and  C_6
REMARK    4  A    between atoms: N_11  and  C_12
REMARK    5  A    between atoms: C_12  and  C_13
REMARK    6  A    between atoms: C_12  and  C_15
REMARK    7  A    between atoms: C_24  and  O_25
REMARK    8  A    between atoms: O_25  and  C_26
REMARK    9  A    between atoms: C_27  and  O_28
REMARK   10  A    between atoms: O_28  and  C_29
REMARK                            x       y       z     vdW  Elec       q    Type
REMARK                         _______ _______ _______ _____ _____    ______ ____
ROOT
ATOM      1  C   UNL     1       2.415   7.965  18.246  0.00  0.00    +0.000 C 
ATOM      2  O   UNL     1       2.771   8.393  17.153  0.00  0.00    +0.000 OA
ATOM      3  N   UNL     1       1.738   8.792  19.114  0.00  0.00    +0.000 N 
ATOM      4  C   UNL     1       1.239  10.091  18.641  0.00  0.00    +0.000 C 
ATOM      5  C   UNL     1      -0.246  10.259  19.067  0.00  0.00    +0.000 C 
ATOM      6  N   UNL     1      -0.485  10.012  20.525  0.00  0.00    +0.000 NA
ATOM      7  C   UNL     1       0.025   8.668  20.899  0.00  0.00    +0.000 C 
ATOM      8  C   UNL     1       1.522   8.487  20.543  0.00  0.00    +0.000 C 
ENDROOT
BRANCH   1  11
ATOM      9  C   UNL     1       2.322   4.397  19.605  0.00  0.00    +0.000 A 
ATOM     10  C   UNL     1       1.963   5.744  19.346  0.00  0.00    +0.000 A 
ATOM     11  C   UNL     1       2.800   6.569  18.588  0.00  0.00    +0.000 A 
ATOM     12  C   UNL     1       4.022   6.071  18.165  0.00  0.00    +0.000 A 
ATOM     13  C   UNL     1       4.392   4.765  18.343  0.00  0.00    +0.000 A 
ATOM     14  C   UNL     1       3.551   3.891  19.068  0.00  0.00    +0.000 A 
BRANCH   9  16
ATOM     15  C   UNL     1       1.743   3.119  21.631  0.00  0.00    +0.000 C 
ATOM     16  O   UNL     1       1.523   3.576  20.345  0.00  0.00    +0.000 OA
ENDBRANCH   9  16
BRANCH  13  17
ATOM     17  O   UNL     1       5.570   4.421  17.770  0.00  0.00    +0.000 OA
ATOM     18  C   UNL     1       5.843   4.132  16.457  0.00  0.00    +0.000 C 
ENDBRANCH  13  17
BRANCH  14  19
ATOM     19  O   UNL     1       3.980   2.615  19.224  0.00  0.00    +0.000 OA
ATOM     20  C   UNL     1       3.627   1.484  18.535  0.00  0.00    +0.000 C 
ENDBRANCH  14  19
ENDBRANCH   1  11
BRANCH   6  21
ATOM     21  C   UNL     1      -0.044  11.091  21.462  0.00  0.00    +0.000 C 
BRANCH  21  22
ATOM     22  C   UNL     1      -1.237  11.885  22.008  0.00  0.00    +0.000 A 
ATOM     23  C   UNL     1      -1.872  11.467  23.189  0.00  0.00    +0.000 A 
ATOM     24  C   UNL     1      -2.962  12.183  23.697  0.00  0.00    +0.000 A 
ATOM     25  C   UNL     1      -3.415  13.318  23.027  0.00  0.00    +0.000 A 
ATOM     26  N   UNL     1      -2.800  13.721  21.889  0.00  0.00    +0.000 NA
ATOM     27  C   UNL     1      -1.743  13.050  21.370  0.00  0.00    +0.000 A 
ENDBRANCH  21  22
BRANCH  21  28
ATOM     28  C   UNL     1       0.865  12.018  20.672  0.00  0.00    +0.000 C 
ATOM     29  N   UNL     1       1.619  12.787  20.017  0.00  0.00    +0.000 NA
ENDBRANCH  21  28
ENDBRANCH   6  21
TORSDOF 7
ENDMDL
