MODEL 1
REMARK VINA RESULT:      -7.4      0.000      0.000
REMARK  Name = 
REMARK  8 active torsions:
REMARK  status: ('A' for Active; 'I' for Inactive)
REMARK    1  A    between atoms: C_1  and  C_2
REMARK    2  A    between atoms: C_3  and  N_4
REMARK    3  A    between atoms: C_5  and  C_7
REMARK    4  A    between atoms: C_7  and  S_8
REMARK    5  A    between atoms: S_8  and  C_9
REMARK    6  A    between atoms: N_19  and  O_20
REMARK    7  A    between atoms: O_20  and  S_21
REMARK    8  A    between atoms: S_21  and  O_24
REMARK                            x       y       z     vdW  Elec       q    Type
REMARK                         _______ _______ _______ _____ _____    ______ ____
ROOT
ATOM      1  N   UNL     1       3.174   5.815  19.895  0.00  0.00    +0.000 N 
ATOM      2  C   UNL     1       1.912   5.837  20.460  0.00  0.00    +0.000 C 
ATOM      3  O   UNL     1       1.253   4.806  20.577  0.00  0.00    +0.000 OA
ATOM      4  H   UNL     1       3.715   6.675  19.879  0.00  0.00    +0.000 HD
ENDROOT
BRANCH   1   7
ATOM      5  C   UNL     1       3.298   2.621  17.894  0.00  0.00    +0.000 C 
ATOM      6  C   UNL     1       3.763   4.050  18.117  0.00  0.00    +0.000 C 
ATOM      7  C   UNL     1       3.872   4.520  19.593  0.00  0.00    +0.000 C 
ATOM      8  C   UNL     1       5.380   4.666  19.286  0.00  0.00    +0.000 C 
ATOM      9  O   UNL     1       6.315   5.242  19.799  0.00  0.00    +0.000 OA
ATOM     10  N   UNL     1       5.242   4.114  18.036  0.00  0.00    +0.000 N 
BRANCH  10  11
ATOM     11  O   UNL     1       5.683   5.072  17.074  0.00  0.00    +0.000 OA
BRANCH  11  12
ATOM     12  S   UNL     1       6.923   4.556  16.137  0.00  0.00    +0.000 S 
ATOM     13  O   UNL     1       8.016   4.184  17.011  0.00  0.00    +0.000 OA
ATOM     14  O   UNL     1       6.396   3.640  15.151  0.00  0.00    +0.000 OA
BRANCH  12  15
ATOM     15  O   UNL     1       7.421   5.882  15.369  0.00  0.00    +0.000 OA
ATOM     16  H   UNL     1       7.601   6.568  16.043  0.00  0.00    +0.000 HD
ENDBRANCH  12  15
ENDBRANCH  11  12
ENDBRANCH  10  11
ENDBRANCH   1   7
BRANCH   2  17
ATOM     17  C   UNL     1       1.404   7.230  20.852  0.00  0.00    +0.000 C 
BRANCH  17  18
ATOM     18  S   UNL     1       1.794   8.441  19.535  0.00  0.00    +0.000 S 
BRANCH  18  19
ATOM     19  C   UNL     1       0.539   9.705  19.666  0.00  0.00    +0.000 A 
ATOM     20  C   UNL     1      -0.270  10.152  18.626  0.00  0.00    +0.000 A 
ATOM     21  C   UNL     1      -1.185  11.160  18.897  0.00  0.00    +0.000 A 
ATOM     22 CL   UNL     1      -2.199  11.775  17.656  0.00  0.00    +0.000 Cl
ATOM     23  N   UNL     1      -1.360  11.743  20.095  0.00  0.00    +0.000 NA
ATOM     24  C   UNL     1      -0.576  11.281  21.081  0.00  0.00    +0.000 A 
ATOM     25 CL   UNL     1      -0.815  12.043  22.600  0.00  0.00    +0.000 Cl
ATOM     26  C   UNL     1       0.369  10.283  20.929  0.00  0.00    +0.000 A 
ENDBRANCH  18  19
ENDBRANCH  17  18
ENDBRANCH   2  17
TORSDOF 7
ENDMDL
MODEL 2
REMARK VINA RESULT:      -7.4      0.904      1.250
REMARK  Name = 
REMARK  8 active torsions:
REMARK  status: ('A' for Active; 'I' for Inactive)
REMARK    1  A    between atoms: C_1  and  C_2
REMARK    2  A    between atoms: C_3  and  N_4
REMARK    3  A    between atoms: C_5  and  C_7
REMARK    4  A    between atoms: C_7  and  S_8
REMARK    5  A    between atoms: S_8  and  C_9
REMARK    6  A    between atoms: N_19  and  O_20
REMARK    7  A    between atoms: O_20  and  S_21
REMARK    8  A    between atoms: S_21  and  O_24
REMARK                            x       y       z     vdW  Elec       q    Type
REMARK                         _______ _______ _______ _____ _____    ______ ____
ROOT
ATOM      1  N   UNL     1       3.200   6.041  19.773  0.00  0.00    +0.000 N 
ATOM      2  C   UNL     1       2.002   6.117  20.460  0.00  0.00    +0.000 C 
ATOM      3  O   UNL     1       1.331   5.109  20.675  0.00  0.00    +0.000 OA
ATOM      4  H   UNL     1       3.758   6.884  19.676  0.00  0.00    +0.000 HD
ENDROOT
BRANCH   1   7
ATOM      5  C   UNL     1       3.214   2.928  17.645  0.00  0.00    +0.000 C 
ATOM      6  C   UNL     1       3.755   4.315  17.947  0.00  0.00    +0.000 C 
ATOM      7  C   UNL     1       3.830   4.718  19.444  0.00  0.00    +0.000 C 
ATOM      8  C   UNL     1       5.355   4.782  19.204  0.00  0.00    +0.000 C 
ATOM      9  O   UNL     1       6.301   5.277  19.778  0.00  0.00    +0.000 OA
ATOM     10  N   UNL     1       5.237   4.290  17.928  0.00  0.00    +0.000 N 
BRANCH  10  11
ATOM     11  O   UNL     1       5.776   5.255  17.025  0.00  0.00    +0.000 OA
BRANCH  11  12
ATOM     12  S   UNL     1       6.924   4.662  16.019  0.00  0.00    +0.000 S 
ATOM     13  O   UNL     1       6.373   3.502  15.350  0.00  0.00    +0.000 OA
ATOM     14  O   UNL     1       7.491   5.766  15.278  0.00  0.00    +0.000 OA
BRANCH  12  15
ATOM     15  O   UNL     1       8.060   4.088  17.007  0.00  0.00    +0.000 OA
ATOM     16  H   UNL     1       8.554   4.850  17.370  0.00  0.00    +0.000 HD
ENDBRANCH  12  15
ENDBRANCH  11  12
ENDBRANCH  10  11
ENDBRANCH   1   7
BRANCH   2  17
ATOM     17  C   UNL     1       1.573   7.535  20.856  0.00  0.00    +0.000 C 
BRANCH  17  18
ATOM     18  S   UNL     1       1.532   8.620  19.381  0.00  0.00    +0.000 S 
BRANCH  18  19
ATOM     19  C   UNL     1       0.664  10.092  19.900  0.00  0.00    +0.000 A 
ATOM     20  C   UNL     1       0.571  11.275  19.172  0.00  0.00    +0.000 A 
ATOM     21  C   UNL     1      -0.128  12.334  19.734  0.00  0.00    +0.000 A 
ATOM     22 CL   UNL     1      -0.264  13.828  18.901  0.00  0.00    +0.000 Cl
ATOM     23  N   UNL     1      -0.734  12.311  20.933  0.00  0.00    +0.000 NA
ATOM     24  C   UNL     1      -0.639  11.154  21.605  0.00  0.00    +0.000 A 
ATOM     25 CL   UNL     1      -1.416  11.149  23.134  0.00  0.00    +0.000 Cl
ATOM     26  C   UNL     1       0.031  10.033  21.146  0.00  0.00    +0.000 A 
ENDBRANCH  18  19
ENDBRANCH  17  18
ENDBRANCH   2  17
TORSDOF 7
ENDMDL
MODEL 3
REMARK VINA RESULT:      -7.3      0.607      1.750
REMARK  Name = 
REMARK  8 active torsions:
REMARK  status: ('A' for Active; 'I' for Inactive)
REMARK    1  A    between atoms: C_1  and  C_2
REMARK    2  A    between atoms: C_3  and  N_4
REMARK    3  A    between atoms: C_5  and  C_7
REMARK    4  A    between atoms: C_7  and  S_8
REMARK    5  A    between atoms: S_8  and  C_9
REMARK    6  A    between atoms: N_19  and  O_20
REMARK    7  A    between atoms: O_20  and  S_21
REMARK    8  A    between atoms: S_21  and  O_24
REMARK                            x       y       z     vdW  Elec       q    Type
REMARK                         _______ _______ _______ _____ _____    ______ ____
ROOT
ATOM      1  N   UNL     1       3.266   5.785  19.967  0.00  0.00    +0.000 N 
ATOM      2  C   UNL     1       1.974   5.824  20.459  0.00  0.00    +0.000 C 
ATOM      3  O   UNL     1       1.270   4.816  20.471  0.00  0.00    +0.000 OA
ATOM      4  H   UNL     1       3.838   6.621  20.038  0.00  0.00    +0.000 HD
ENDROOT
BRANCH   1   7
ATOM      5  C   UNL     1       3.284   2.635  17.893  0.00  0.00    +0.000 C 
ATOM      6  C   UNL     1       3.783   4.049  18.138  0.00  0.00    +0.000 C 
ATOM      7  C   UNL     1       3.931   4.483  19.622  0.00  0.00    +0.000 C 
ATOM      8  C   UNL     1       5.435   4.606  19.287  0.00  0.00    +0.000 C 
ATOM      9  O   UNL     1       6.392   5.151  19.794  0.00  0.00    +0.000 OA
ATOM     10  N   UNL     1       5.261   4.085  18.029  0.00  0.00    +0.000 N 
BRANCH  10  11
ATOM     11  O   UNL     1       5.702   5.056  17.079  0.00  0.00    +0.000 OA
BRANCH  11  12
ATOM     12  S   UNL     1       6.940   4.550  16.134  0.00  0.00    +0.000 S 
ATOM     13  O   UNL     1       8.037   4.174  17.001  0.00  0.00    +0.000 OA
ATOM     14  O   UNL     1       6.411   3.642  15.142  0.00  0.00    +0.000 OA
BRANCH  12  15
ATOM     15  O   UNL     1       7.431   5.885  15.375  0.00  0.00    +0.000 OA
ATOM     16  H   UNL     1       6.977   6.647  15.786  0.00  0.00    +0.000 HD
ENDBRANCH  12  15
ENDBRANCH  11  12
ENDBRANCH  10  11
ENDBRANCH   1   7
BRANCH   2  17
ATOM     17  C   UNL     1       1.497   7.209  20.911  0.00  0.00    +0.000 C 
BRANCH  17  18
ATOM     18  S   UNL     1       1.691   8.421  19.552  0.00  0.00    +0.000 S 
BRANCH  18  19
ATOM     19  C   UNL     1       0.715   9.837  20.036  0.00  0.00    +0.000 A 
ATOM     20  C   UNL     1       0.198  10.067  21.307  0.00  0.00    +0.000 A 
ATOM     21  C   UNL     1      -0.559  11.213  21.506  0.00  0.00    +0.000 A 
ATOM     22 CL   UNL     1      -1.246  11.547  23.043  0.00  0.00    +0.000 Cl
ATOM     23  N   UNL     1      -0.832  12.132  20.565  0.00  0.00    +0.000 NA
ATOM     24  C   UNL     1      -0.308  11.891  19.355  0.00  0.00    +0.000 A 
ATOM     25 CL   UNL     1      -0.673  13.076  18.169  0.00  0.00    +0.000 Cl
ATOM     26  C   UNL     1       0.460  10.784  19.038  0.00  0.00    +0.000 A 
ENDBRANCH  18  19
ENDBRANCH  17  18
ENDBRANCH   2  17
TORSDOF 7
ENDMDL
MODEL 4
REMARK VINA RESULT:      -7.2      0.604      1.839
REMARK  Name = 
REMARK  8 active torsions:
REMARK  status: ('A' for Active; 'I' for Inactive)
REMARK    1  A    between atoms: C_1  and  C_2
REMARK    2  A    between atoms: C_3  and  N_4
REMARK    3  A    between atoms: C_5  and  C_7
REMARK    4  A    between atoms: C_7  and  S_8
REMARK    5  A    between atoms: S_8  and  C_9
REMARK    6  A    between atoms: N_19  and  O_20
REMARK    7  A    between atoms: O_20  and  S_21
REMARK    8  A    between atoms: S_21  and  O_24
REMARK                            x       y       z     vdW  Elec       q    Type
REMARK                         _______ _______ _______ _____ _____    ______ ____
ROOT
ATOM      1  N   UNL     1       3.298   6.193  19.801  0.00  0.00    +0.000 N 
ATOM      2  C   UNL     1       2.063   6.319  20.412  0.00  0.00    +0.000 C 
ATOM      3  O   UNL     1       1.352   5.336  20.611  0.00  0.00    +0.000 OA
ATOM      4  H   UNL     1       3.884   7.018  19.718  0.00  0.00    +0.000 HD
ENDROOT
BRANCH   1   7
ATOM      5  C   UNL     1       3.221   2.939  17.898  0.00  0.00    +0.000 C 
ATOM      6  C   UNL     1       3.780   4.339  18.083  0.00  0.00    +0.000 C 
ATOM      7  C   UNL     1       3.909   4.845  19.546  0.00  0.00    +0.000 C 
ATOM      8  C   UNL     1       5.425   4.880  19.249  0.00  0.00    +0.000 C 
ATOM      9  O   UNL     1       6.393   5.407  19.754  0.00  0.00    +0.000 OA
ATOM     10  N   UNL     1       5.261   4.301  18.015  0.00  0.00    +0.000 N 
BRANCH  10  11
ATOM     11  O   UNL     1       5.773   5.197  17.029  0.00  0.00    +0.000 OA
BRANCH  11  12
ATOM     12  S   UNL     1       6.926   4.543  16.067  0.00  0.00    +0.000 S 
ATOM     13  O   UNL     1       8.025   4.125  16.911  0.00  0.00    +0.000 OA
ATOM     14  O   UNL     1       6.285   3.630  15.148  0.00  0.00    +0.000 OA
BRANCH  12  15
ATOM     15  O   UNL     1       7.489   5.791  15.217  0.00  0.00    +0.000 OA
ATOM     16  H   UNL     1       8.219   5.465  14.654  0.00  0.00    +0.000 HD
ENDBRANCH  12  15
ENDBRANCH  11  12
ENDBRANCH  10  11
ENDBRANCH   1   7
BRANCH   2  17
ATOM     17  C   UNL     1       1.651   7.758  20.745  0.00  0.00    +0.000 C 
BRANCH  17  18
ATOM     18  S   UNL     1       1.778   8.815  19.256  0.00  0.00    +0.000 S 
BRANCH  18  19
ATOM     19  C   UNL     1       0.370   9.911  19.329  0.00  0.00    +0.000 A 
ATOM     20  C   UNL     1      -0.018  10.656  20.439  0.00  0.00    +0.000 A 
ATOM     21  C   UNL     1      -1.155  11.445  20.330  0.00  0.00    +0.000 A 
ATOM     22 CL   UNL     1      -1.703  12.372  21.666  0.00  0.00    +0.000 Cl
ATOM     23  N   UNL     1      -1.917  11.555  19.229  0.00  0.00    +0.000 NA
ATOM     24  C   UNL     1      -1.510  10.837  18.172  0.00  0.00    +0.000 A 
ATOM     25 CL   UNL     1      -2.501  10.989  16.780  0.00  0.00    +0.000 Cl
ATOM     26  C   UNL     1      -0.396  10.016  18.163  0.00  0.00    +0.000 A 
ENDBRANCH  18  19
ENDBRANCH  17  18
ENDBRANCH   2  17
TORSDOF 7
ENDMDL
MODEL 5
REMARK VINA RESULT:      -7.2      2.266      3.061
REMARK  Name = 
REMARK  8 active torsions:
REMARK  status: ('A' for Active; 'I' for Inactive)
REMARK    1  A    between atoms: C_1  and  C_2
REMARK    2  A    between atoms: C_3  and  N_4
REMARK    3  A    between atoms: C_5  and  C_7
REMARK    4  A    between atoms: C_7  and  S_8
REMARK    5  A    between atoms: S_8  and  C_9
REMARK    6  A    between atoms: N_19  and  O_20
REMARK    7  A    between atoms: O_20  and  S_21
REMARK    8  A    between atoms: S_21  and  O_24
REMARK                            x       y       z     vdW  Elec       q    Type
REMARK                         _______ _______ _______ _____ _____    ______ ____
ROOT
ATOM      1  N   UNL     1       3.152   7.526  17.669  0.00  0.00    +0.000 N 
ATOM      2  C   UNL     1       2.251   8.105  18.545  0.00  0.00    +0.000 C 
ATOM      3  O   UNL     1       2.033   7.607  19.648  0.00  0.00    +0.000 OA
ATOM      4  H   UNL     1       3.357   8.005  16.797  0.00  0.00    +0.000 HD
ENDROOT
BRANCH   1   7
ATOM      5  C   UNL     1       3.707   3.811  17.996  0.00  0.00    +0.000 C 
ATOM      6  C   UNL     1       3.928   5.110  17.241  0.00  0.00    +0.000 C 
ATOM      7  C   UNL     1       4.046   6.399  18.100  0.00  0.00    +0.000 C 
ATOM      8  C   UNL     1       5.482   6.474  17.534  0.00  0.00    +0.000 C 
ATOM      9  O   UNL     1       6.333   7.332  17.444  0.00  0.00    +0.000 OA
ATOM     10  N   UNL     1       5.365   5.258  16.907  0.00  0.00    +0.000 N 
BRANCH  10  11
ATOM     11  O   UNL     1       5.570   5.456  15.508  0.00  0.00    +0.000 OA
BRANCH  11  12
ATOM     12  S   UNL     1       6.912   4.725  14.919  0.00  0.00    +0.000 S 
ATOM     13  O   UNL     1       7.402   5.520  13.812  0.00  0.00    +0.000 OA
ATOM     14  O   UNL     1       7.761   4.372  16.034  0.00  0.00    +0.000 OA
BRANCH  12  15
ATOM     15  O   UNL     1       6.365   3.361  14.258  0.00  0.00    +0.000 OA
ATOM     16  H   UNL     1       6.383   3.471  13.287  0.00  0.00    +0.000 HD
ENDBRANCH  12  15
ENDBRANCH  11  12
ENDBRANCH  10  11
ENDBRANCH   1   7
BRANCH   2  17
ATOM     17  C   UNL     1       1.528   9.344  18.003  0.00  0.00    +0.000 C 
BRANCH  17  18
ATOM     18  S   UNL     1       0.760  10.281  19.376  0.00  0.00    +0.000 S 
BRANCH  18  19
ATOM     19  C   UNL     1      -0.883  10.692  18.809  0.00  0.00    +0.000 A 
ATOM     20  C   UNL     1      -1.792  11.502  19.482  0.00  0.00    +0.000 A 
ATOM     21  C   UNL     1      -3.039  11.702  18.907  0.00  0.00    +0.000 A 
ATOM     22 CL   UNL     1      -4.216  12.672  19.693  0.00  0.00    +0.000 Cl
ATOM     23  N   UNL     1      -3.445  11.178  17.738  0.00  0.00    +0.000 NA
ATOM     24  C   UNL     1      -2.542  10.413  17.106  0.00  0.00    +0.000 A 
ATOM     25 CL   UNL     1      -3.083   9.750  15.618  0.00  0.00    +0.000 Cl
ATOM     26  C   UNL     1      -1.272  10.142  17.582  0.00  0.00    +0.000 A 
ENDBRANCH  18  19
ENDBRANCH  17  18
ENDBRANCH   2  17
TORSDOF 7
ENDMDL
MODEL 6
REMARK VINA RESULT:      -7.1      1.446      2.058
REMARK  Name = 
REMARK  8 active torsions:
REMARK  status: ('A' for Active; 'I' for Inactive)
REMARK    1  A    between atoms: C_1  and  C_2
REMARK    2  A    between atoms: C_3  and  N_4
REMARK    3  A    between atoms: C_5  and  C_7
REMARK    4  A    between atoms: C_7  and  S_8
REMARK    5  A    between atoms: S_8  and  C_9
REMARK    6  A    between atoms: N_19  and  O_20
REMARK    7  A    between atoms: O_20  and  S_21
REMARK    8  A    between atoms: S_21  and  O_24
REMARK                            x       y       z     vdW  Elec       q    Type
REMARK                         _______ _______ _______ _____ _____    ______ ____
ROOT
ATOM      1  N   UNL     1       3.015   6.491  19.137  0.00  0.00    +0.000 N 
ATOM      2  C   UNL     1       2.049   6.787  20.082  0.00  0.00    +0.000 C 
ATOM      3  O   UNL     1       1.538   5.901  20.764  0.00  0.00    +0.000 OA
ATOM      4  H   UNL     1       3.463   7.258  18.643  0.00  0.00    +0.000 HD
ENDROOT
BRANCH   1   7
ATOM      5  C   UNL     1       3.165   3.148  17.400  0.00  0.00    +0.000 C 
ATOM      6  C   UNL     1       3.722   4.545  17.608  0.00  0.00    +0.000 C 
ATOM      7  C   UNL     1       3.626   5.122  19.047  0.00  0.00    +0.000 C 
ATOM      8  C   UNL     1       5.170   5.116  19.000  0.00  0.00    +0.000 C 
ATOM      9  O   UNL     1       6.057   5.650  19.631  0.00  0.00    +0.000 OA
ATOM     10  N   UNL     1       5.193   4.478  17.784  0.00  0.00    +0.000 N 
BRANCH  10  11
ATOM     11  O   UNL     1       5.880   5.315  16.854  0.00  0.00    +0.000 OA
BRANCH  11  12
ATOM     12  S   UNL     1       7.086   4.561  16.041  0.00  0.00    +0.000 S 
ATOM     13  O   UNL     1       7.426   5.376  14.894  0.00  0.00    +0.000 OA
ATOM     14  O   UNL     1       8.085   4.143  16.998  0.00  0.00    +0.000 OA
BRANCH  12  15
ATOM     15  O   UNL     1       6.391   3.239  15.437  0.00  0.00    +0.000 OA
ATOM     16  H   UNL     1       5.459   3.228  15.732  0.00  0.00    +0.000 HD
ENDBRANCH  12  15
ENDBRANCH  11  12
ENDBRANCH  10  11
ENDBRANCH   1   7
BRANCH   2  17
ATOM     17  C   UNL     1       1.643   8.264  20.150  0.00  0.00    +0.000 C 
BRANCH  17  18
ATOM     18  S   UNL     1       1.754   9.029  18.489  0.00  0.00    +0.000 S 
BRANCH  18  19
ATOM     19  C   UNL     1       0.725  10.487  18.568  0.00  0.00    +0.000 A 
ATOM     20  C   UNL     1       1.177  11.786  18.774  0.00  0.00    +0.000 A 
ATOM     21  C   UNL     1       0.236  12.804  18.828  0.00  0.00    +0.000 A 
ATOM     22 CL   UNL     1       0.721  14.427  19.101  0.00  0.00    +0.000 Cl
ATOM     23  N   UNL     1      -1.091  12.639  18.692  0.00  0.00    +0.000 NA
ATOM     24  C   UNL     1      -1.496  11.377  18.480  0.00  0.00    +0.000 A 
ATOM     25 CL   UNL     1      -3.193  11.190  18.313  0.00  0.00    +0.000 Cl
ATOM     26  C   UNL     1      -0.651  10.284  18.408  0.00  0.00    +0.000 A 
ENDBRANCH  18  19
ENDBRANCH  17  18
ENDBRANCH   2  17
TORSDOF 7
ENDMDL
MODEL 7
REMARK VINA RESULT:      -7.1      1.112      2.076
REMARK  Name = 
REMARK  8 active torsions:
REMARK  status: ('A' for Active; 'I' for Inactive)
REMARK    1  A    between atoms: C_1  and  C_2
REMARK    2  A    between atoms: C_3  and  N_4
REMARK    3  A    between atoms: C_5  and  C_7
REMARK    4  A    between atoms: C_7  and  S_8
REMARK    5  A    between atoms: S_8  and  C_9
REMARK    6  A    between atoms: N_19  and  O_20
REMARK    7  A    between atoms: O_20  and  S_21
REMARK    8  A    between atoms: S_21  and  O_24
REMARK                            x       y       z     vdW  Elec       q    Type
REMARK                         _______ _______ _______ _____ _____    ______ ____
ROOT
ATOM      1  N   UNL     1       2.794   6.488  18.973  0.00  0.00    +0.000 N 
ATOM      2  C   UNL     1       2.045   6.871  20.071  0.00  0.00    +0.000 C 
ATOM      3  O   UNL     1       1.685   6.048  20.909  0.00  0.00    +0.000 OA
ATOM      4  H   UNL     1       3.132   7.207  18.340  0.00  0.00    +0.000 HD
ENDROOT
BRANCH   1   7
ATOM      5  C   UNL     1       2.977   3.220  17.100  0.00  0.00    +0.000 C 
ATOM      6  C   UNL     1       3.556   4.589  17.412  0.00  0.00    +0.000 C 
ATOM      7  C   UNL     1       3.370   5.105  18.864  0.00  0.00    +0.000 C 
ATOM      8  C   UNL     1       4.913   5.052  18.929  0.00  0.00    +0.000 C 
ATOM      9  O   UNL     1       5.766   5.529  19.646  0.00  0.00    +0.000 OA
ATOM     10  N   UNL     1       5.007   4.468  17.690  0.00  0.00    +0.000 N 
BRANCH  10  11
ATOM     11  O   UNL     1       5.785   5.322  16.852  0.00  0.00    +0.000 OA
BRANCH  11  12
ATOM     12  S   UNL     1       6.925   4.539  15.974  0.00  0.00    +0.000 S 
ATOM     13  O   UNL     1       8.007   4.182  16.868  0.00  0.00    +0.000 OA
ATOM     14  O   UNL     1       6.264   3.552  15.151  0.00  0.00    +0.000 OA
BRANCH  12  15
ATOM     15  O   UNL     1       7.528   5.674  15.002  0.00  0.00    +0.000 OA
ATOM     16  H   UNL     1       7.556   6.513  15.504  0.00  0.00    +0.000 HD
ENDBRANCH  12  15
ENDBRANCH  11  12
ENDBRANCH  10  11
ENDBRANCH   1   7
BRANCH   2  17
ATOM     17  C   UNL     1       1.665   8.356  20.107  0.00  0.00    +0.000 C 
BRANCH  17  18
ATOM     18  S   UNL     1       1.038   8.810  21.766  0.00  0.00    +0.000 S 
BRANCH  18  19
ATOM     19  C   UNL     1      -0.093  10.165  21.492  0.00  0.00    +0.000 A 
ATOM     20  C   UNL     1      -0.733  10.898  22.487  0.00  0.00    +0.000 A 
ATOM     21  C   UNL     1      -1.600  11.909  22.097  0.00  0.00    +0.000 A 
ATOM     22 CL   UNL     1      -2.440  12.838  23.270  0.00  0.00    +0.000 Cl
ATOM     23  N   UNL     1      -1.871  12.248  20.825  0.00  0.00    +0.000 NA
ATOM     24  C   UNL     1      -1.228  11.534  19.889  0.00  0.00    +0.000 A 
ATOM     25 CL   UNL     1      -1.593  11.980  18.273  0.00  0.00    +0.000 Cl
ATOM     26  C   UNL     1      -0.344  10.504  20.158  0.00  0.00    +0.000 A 
ENDBRANCH  18  19
ENDBRANCH  17  18
ENDBRANCH   2  17
TORSDOF 7
ENDMDL
MODEL 8
REMARK VINA RESULT:      -7.1      2.416      2.881
REMARK  Name = 
REMARK  8 active torsions:
REMARK  status: ('A' for Active; 'I' for Inactive)
REMARK    1  A    between atoms: C_1  and  C_2
REMARK    2  A    between atoms: C_3  and  N_4
REMARK    3  A    between atoms: C_5  and  C_7
REMARK    4  A    between atoms: C_7  and  S_8
REMARK    5  A    between atoms: S_8  and  C_9
REMARK    6  A    between atoms: N_19  and  O_20
REMARK    7  A    between atoms: O_20  and  S_21
REMARK    8  A    between atoms: S_21  and  O_24
REMARK                            x       y       z     vdW  Elec       q    Type
REMARK                         _______ _______ _______ _____ _____    ______ ____
ROOT
ATOM      1  N   UNL     1       3.285   7.758  17.556  0.00  0.00    +0.000 N 
ATOM      2  C   UNL     1       2.331   8.246  18.431  0.00  0.00    +0.000 C 
ATOM      3  O   UNL     1       2.080   7.662  19.483  0.00  0.00    +0.000 OA
ATOM      4  H   UNL     1       3.514   8.305  16.731  0.00  0.00    +0.000 HD
ENDROOT
BRANCH   1   7
ATOM      5  C   UNL     1       3.754   4.052  18.075  0.00  0.00    +0.000 C 
ATOM      6  C   UNL     1       3.912   5.286  17.204  0.00  0.00    +0.000 C 
ATOM      7  C   UNL     1       4.191   6.624  17.942  0.00  0.00    +0.000 C 
ATOM      8  C   UNL     1       5.536   6.597  17.181  0.00  0.00    +0.000 C 
ATOM      9  O   UNL     1       6.395   7.410  16.914  0.00  0.00    +0.000 OA
ATOM     10  N   UNL     1       5.292   5.348  16.667  0.00  0.00    +0.000 N 
BRANCH  10  11
ATOM     11  O   UNL     1       5.307   5.441  15.242  0.00  0.00    +0.000 OA
BRANCH  11  12
ATOM     12  S   UNL     1       6.407   4.466  14.520  0.00  0.00    +0.000 S 
ATOM     13  O   UNL     1       5.795   3.911  13.331  0.00  0.00    +0.000 OA
ATOM     14  O   UNL     1       7.669   5.168  14.468  0.00  0.00    +0.000 OA
BRANCH  12  15
ATOM     15  O   UNL     1       6.568   3.227  15.538  0.00  0.00    +0.000 OA
ATOM     16  H   UNL     1       7.184   2.585  15.133  0.00  0.00    +0.000 HD
ENDBRANCH  12  15
ENDBRANCH  11  12
ENDBRANCH  10  11
ENDBRANCH   1   7
BRANCH   2  17
ATOM     17  C   UNL     1       1.597   9.503  17.950  0.00  0.00    +0.000 C 
BRANCH  17  18
ATOM     18  S   UNL     1       0.568  10.192  19.299  0.00  0.00    +0.000 S 
BRANCH  18  19
ATOM     19  C   UNL     1      -1.021  10.534  18.556  0.00  0.00    +0.000 A 
ATOM     20  C   UNL     1      -1.453  10.065  17.320  0.00  0.00    +0.000 A 
ATOM     21  C   UNL     1      -2.714  10.445  16.883  0.00  0.00    +0.000 A 
ATOM     22 CL   UNL     1      -3.303   9.921  15.357  0.00  0.00    +0.000 Cl
ATOM     23  N   UNL     1      -3.565  11.231  17.564  0.00  0.00    +0.000 NA
ATOM     24  C   UNL     1      -3.126  11.655  18.758  0.00  0.00    +0.000 A 
ATOM     25 CL   UNL     1      -4.226  12.661  19.608  0.00  0.00    +0.000 Cl
ATOM     26  C   UNL     1      -1.890  11.343  19.296  0.00  0.00    +0.000 A 
ENDBRANCH  18  19
ENDBRANCH  17  18
ENDBRANCH   2  17
TORSDOF 7
ENDMDL
MODEL 9
REMARK VINA RESULT:      -7.0      1.163      1.568
REMARK  Name = 
REMARK  8 active torsions:
REMARK  status: ('A' for Active; 'I' for Inactive)
REMARK    1  A    between atoms: C_1  and  C_2
REMARK    2  A    between atoms: C_3  and  N_4
REMARK    3  A    between atoms: C_5  and  C_7
REMARK    4  A    between atoms: C_7  and  S_8
REMARK    5  A    between atoms: S_8  and  C_9
REMARK    6  A    between atoms: N_19  and  O_20
REMARK    7  A    between atoms: O_20  and  S_21
REMARK    8  A    between atoms: S_21  and  O_24
REMARK                            x       y       z     vdW  Elec       q    Type
REMARK                         _______ _______ _______ _____ _____    ______ ____
ROOT
ATOM      1  N   UNL     1       2.985   6.558  19.147  0.00  0.00    +0.000 N 
ATOM      2  C   UNL     1       2.070   6.876  20.135  0.00  0.00    +0.000 C 
ATOM      3  O   UNL     1       1.546   5.998  20.818  0.00  0.00    +0.000 OA
ATOM      4  H   UNL     1       3.447   7.315  18.652  0.00  0.00    +0.000 HD
ENDROOT
BRANCH   1   7
ATOM      5  C   UNL     1       3.002   3.288  17.270  0.00  0.00    +0.000 C 
ATOM      6  C   UNL     1       3.622   4.647  17.546  0.00  0.00    +0.000 C 
ATOM      7  C   UNL     1       3.530   5.166  19.007  0.00  0.00    +0.000 C 
ATOM      8  C   UNL     1       5.074   5.087  18.980  0.00  0.00    +0.000 C 
ATOM      9  O   UNL     1       5.975   5.550  19.646  0.00  0.00    +0.000 OA
ATOM     10  N   UNL     1       5.085   4.501  17.739  0.00  0.00    +0.000 N 
BRANCH  10  11
ATOM     11  O   UNL     1       5.826   5.342  16.855  0.00  0.00    +0.000 OA
BRANCH  11  12
ATOM     12  S   UNL     1       7.042   4.578  16.068  0.00  0.00    +0.000 S 
ATOM     13  O   UNL     1       7.382   5.366  14.902  0.00  0.00    +0.000 OA
ATOM     14  O   UNL     1       8.039   4.192  17.041  0.00  0.00    +0.000 OA
BRANCH  12  15
ATOM     15  O   UNL     1       6.361   3.234  15.494  0.00  0.00    +0.000 OA
ATOM     16  H   UNL     1       5.760   3.491  14.766  0.00  0.00    +0.000 HD
ENDBRANCH  12  15
ENDBRANCH  11  12
ENDBRANCH  10  11
ENDBRANCH   1   7
BRANCH   2  17
ATOM     17  C   UNL     1       1.732   8.367  20.247  0.00  0.00    +0.000 C 
BRANCH  17  18
ATOM     18  S   UNL     1       0.618   8.660  21.670  0.00  0.00    +0.000 S 
BRANCH  18  19
ATOM     19  C   UNL     1      -0.210  10.203  21.316  0.00  0.00    +0.000 A 
ATOM     20  C   UNL     1      -0.279  10.815  20.068  0.00  0.00    +0.000 A 
ATOM     21  C   UNL     1      -0.948  12.027  19.973  0.00  0.00    +0.000 A 
ATOM     22 CL   UNL     1      -1.053  12.849  18.470  0.00  0.00    +0.000 Cl
ATOM     23  N   UNL     1      -1.546  12.663  20.994  0.00  0.00    +0.000 NA
ATOM     24  C   UNL     1      -1.475  12.041  22.181  0.00  0.00    +0.000 A 
ATOM     25 CL   UNL     1      -2.242  12.873  23.471  0.00  0.00    +0.000 Cl
ATOM     26  C   UNL     1      -0.836  10.833  22.396  0.00  0.00    +0.000 A 
ENDBRANCH  18  19
ENDBRANCH  17  18
ENDBRANCH   2  17
TORSDOF 7
ENDMDL
