MODEL 1
REMARK VINA RESULT:      -6.8      0.000      0.000
REMARK  Name = 
REMARK  6 active torsions:
REMARK  status: ('A' for Active; 'I' for Inactive)
REMARK    1  A    between atoms: C_2  and  C_3
REMARK    2  A    between atoms: C_3  and  N_4
REMARK    3  A    between atoms: C_5  and  C_6
REMARK    4  A    between atoms: C_16  and  C_17
REMARK    5  A    between atoms: C_18  and  C_19
REMARK    6  A    between atoms: C_19  and  O_20
REMARK                            x       y       z     vdW  Elec       q    Type
REMARK                         _______ _______ _______ _____ _____    ______ ____
ROOT
ATOM      1  N   UNL     1       5.097   6.146  17.790  0.00  0.00    +0.000 N 
ATOM      2  C   UNL     1       5.009   4.827  18.170  0.00  0.00    +0.000 A 
ATOM      3  N   UNL     1       6.088   4.507  18.876  0.00  0.00    +0.000 NA
ATOM      4  C   UNL     1       6.893   5.659  18.879  0.00  0.00    +0.000 A 
ATOM      5  C   UNL     1       8.140   5.996  19.446  0.00  0.00    +0.000 A 
ATOM      6  N   UNL     1       8.851   5.105  20.238  0.00  0.00    +0.000 N 
ATOM      7  N   UNL     1       8.659   7.247  19.218  0.00  0.00    +0.000 NA
ATOM      8  C   UNL     1       7.949   8.133  18.477  0.00  0.00    +0.000 A 
ATOM      9  N   UNL     1       6.746   7.918  17.921  0.00  0.00    +0.000 NA
ATOM     10  C   UNL     1       6.293   6.672  18.166  0.00  0.00    +0.000 A 
ATOM     11  H   UNL     1       8.588   4.132  20.113  0.00  0.00    +0.000 HD
ATOM     12  H   UNL     1       9.835   5.327  20.303  0.00  0.00    +0.000 HD
ENDROOT
BRANCH   2  13
ATOM     13  C   UNL     1       3.877   3.981  17.812  0.00  0.00    +0.000 A 
ATOM     14  C   UNL     1       3.672   3.127  16.741  0.00  0.00    +0.000 A 
ATOM     15  C   UNL     1       2.372   2.549  16.884  0.00  0.00    +0.000 A 
ATOM     16  C   UNL     1       1.843   3.077  18.037  0.00  0.00    +0.000 A 
ATOM     17  O   UNL     1       2.740   3.923  18.593  0.00  0.00    +0.000 OA
ENDBRANCH   2  13
BRANCH   8  18
ATOM     18  C   UNL     1       8.494   9.470  18.262  0.00  0.00    +0.000 C 
ATOM     19  C   UNL     1       8.972  10.671  18.098  0.00  0.00    +0.000 C 
BRANCH  19  20
ATOM     20  C   UNL     1       9.531  12.073  17.907  0.00  0.00    +0.000 C 
ATOM     21  C   UNL     1       9.426  12.843  19.233  0.00  0.00    +0.000 C 
ATOM     22  C   UNL     1      10.307  12.236  20.329  0.00  0.00    +0.000 C 
ATOM     23  C   UNL     1      11.760  12.109  19.879  0.00  0.00    +0.000 C 
ATOM     24  C   UNL     1      11.896  11.368  18.550  0.00  0.00    +0.000 C 
ATOM     25  C   UNL     1      11.000  11.973  17.465  0.00  0.00    +0.000 C 
BRANCH  20  26
ATOM     26  O   UNL     1       8.783  12.742  16.902  0.00  0.00    +0.000 OA
ATOM     27  H   UNL     1       8.102  12.120  16.595  0.00  0.00    +0.000 HD
ENDBRANCH  20  26
ENDBRANCH  19  20
ENDBRANCH   8  18
BRANCH   1  28
ATOM     28  C   UNL     1       4.096   6.909  17.130  0.00  0.00    +0.000 C 
BRANCH  28  30
ATOM     29  C   UNL     1       2.166   7.842  18.970  0.00  0.00    +0.000 C 
ATOM     30  C   UNL     1       3.057   7.411  18.120  0.00  0.00    +0.000 C 
ENDBRANCH  28  30
ENDBRANCH   1  28
TORSDOF 6
ENDMDL
MODEL 2
REMARK VINA RESULT:      -6.8      1.764      2.486
REMARK  Name = 
REMARK  6 active torsions:
REMARK  status: ('A' for Active; 'I' for Inactive)
REMARK    1  A    between atoms: C_2  and  C_3
REMARK    2  A    between atoms: C_3  and  N_4
REMARK    3  A    between atoms: C_5  and  C_6
REMARK    4  A    between atoms: C_16  and  C_17
REMARK    5  A    between atoms: C_18  and  C_19
REMARK    6  A    between atoms: C_19  and  O_20
REMARK                            x       y       z     vdW  Elec       q    Type
REMARK                         _______ _______ _______ _____ _____    ______ ____
ROOT
ATOM      1  N   UNL     1       4.944   5.316  18.379  0.00  0.00    +0.000 N 
ATOM      2  C   UNL     1       4.554   4.361  17.470  0.00  0.00    +0.000 A 
ATOM      3  N   UNL     1       5.353   4.420  16.411  0.00  0.00    +0.000 NA
ATOM      4  C   UNL     1       6.229   5.490  16.657  0.00  0.00    +0.000 A 
ATOM      5  C   UNL     1       7.308   6.069  15.958  0.00  0.00    +0.000 A 
ATOM      6  N   UNL     1       7.753   5.563  14.745  0.00  0.00    +0.000 N 
ATOM      7  N   UNL     1       7.946   7.158  16.500  0.00  0.00    +0.000 NA
ATOM      8  C   UNL     1       7.539   7.632  17.704  0.00  0.00    +0.000 A 
ATOM      9  N   UNL     1       6.545   7.135  18.457  0.00  0.00    +0.000 NA
ATOM     10  C   UNL     1       5.949   6.077  17.870  0.00  0.00    +0.000 A 
ATOM     11  H   UNL     1       7.075   4.986  14.257  0.00  0.00    +0.000 HD
ATOM     12  H   UNL     1       8.285   6.232  14.204  0.00  0.00    +0.000 HD
ENDROOT
BRANCH   2  13
ATOM     13  C   UNL     1       3.428   3.465  17.707  0.00  0.00    +0.000 A 
ATOM     14  C   UNL     1       2.062   3.658  17.591  0.00  0.00    +0.000 A 
ATOM     15  C   UNL     1       1.414   2.436  17.956  0.00  0.00    +0.000 A 
ATOM     16  C   UNL     1       2.417   1.553  18.278  0.00  0.00    +0.000 A 
ATOM     17  O   UNL     1       3.614   2.162  18.124  0.00  0.00    +0.000 OA
ENDBRANCH   2  13
BRANCH   8  18
ATOM     18  C   UNL     1       8.239   8.772  18.287  0.00  0.00    +0.000 C 
ATOM     19  C   UNL     1       8.860   9.778  18.835  0.00  0.00    +0.000 C 
BRANCH  19  20
ATOM     20  C   UNL     1       9.585  10.953  19.473  0.00  0.00    +0.000 C 
ATOM     21  C   UNL     1      11.004  11.049  18.888  0.00  0.00    +0.000 C 
ATOM     22  C   UNL     1      10.994  11.383  17.394  0.00  0.00    +0.000 C 
ATOM     23  C   UNL     1      10.192  12.649  17.103  0.00  0.00    +0.000 C 
ATOM     24  C   UNL     1       8.784  12.594  17.692  0.00  0.00    +0.000 C 
ATOM     25  C   UNL     1       8.803  12.245  19.184  0.00  0.00    +0.000 C 
BRANCH  20  26
ATOM     26  O   UNL     1       9.657  10.752  20.877  0.00  0.00    +0.000 OA
ATOM     27  H   UNL     1       9.446  11.603  21.296  0.00  0.00    +0.000 HD
ENDBRANCH  20  26
ENDBRANCH  19  20
ENDBRANCH   8  18
BRANCH   1  28
ATOM     28  C   UNL     1       4.429   5.501  19.691  0.00  0.00    +0.000 C 
BRANCH  28  30
ATOM     29  C   UNL     1       2.159   7.182  19.654  0.00  0.00    +0.000 C 
ATOM     30  C   UNL     1       3.208   6.406  19.671  0.00  0.00    +0.000 C 
ENDBRANCH  28  30
ENDBRANCH   1  28
TORSDOF 6
ENDMDL
MODEL 3
REMARK VINA RESULT:      -6.7      1.587      1.752
REMARK  Name = 
REMARK  6 active torsions:
REMARK  status: ('A' for Active; 'I' for Inactive)
REMARK    1  A    between atoms: C_2  and  C_3
REMARK    2  A    between atoms: C_3  and  N_4
REMARK    3  A    between atoms: C_5  and  C_6
REMARK    4  A    between atoms: C_16  and  C_17
REMARK    5  A    between atoms: C_18  and  C_19
REMARK    6  A    between atoms: C_19  and  O_20
REMARK                            x       y       z     vdW  Elec       q    Type
REMARK                         _______ _______ _______ _____ _____    ______ ____
ROOT
ATOM      1  N   UNL     1       4.274   5.869  18.377  0.00  0.00    +0.000 N 
ATOM      2  C   UNL     1       4.081   4.588  17.917  0.00  0.00    +0.000 A 
ATOM      3  N   UNL     1       5.130   4.229  17.186  0.00  0.00    +0.000 NA
ATOM      4  C   UNL     1       5.971   5.355  17.151  0.00  0.00    +0.000 A 
ATOM      5  C   UNL     1       7.225   5.638  16.572  0.00  0.00    +0.000 A 
ATOM      6  N   UNL     1       7.941   4.681  15.867  0.00  0.00    +0.000 N 
ATOM      7  N   UNL     1       7.759   6.895  16.722  0.00  0.00    +0.000 NA
ATOM      8  C   UNL     1       7.079   7.821  17.444  0.00  0.00    +0.000 A 
ATOM      9  N   UNL     1       5.898   7.640  18.055  0.00  0.00    +0.000 NA
ATOM     10  C   UNL     1       5.417   6.395  17.863  0.00  0.00    +0.000 A 
ATOM     11  H   UNL     1       7.382   3.905  15.528  0.00  0.00    +0.000 HD
ATOM     12  H   UNL     1       8.632   5.078  15.244  0.00  0.00    +0.000 HD
ENDROOT
BRANCH   2  13
ATOM     13  C   UNL     1       2.885   3.815  18.226  0.00  0.00    +0.000 A 
ATOM     14  C   UNL     1       1.559   3.992  17.867  0.00  0.00    +0.000 A 
ATOM     15  C   UNL     1       0.800   2.932  18.456  0.00  0.00    +0.000 A 
ATOM     16  C   UNL     1       1.699   2.156  19.148  0.00  0.00    +0.000 A 
ATOM     17  O   UNL     1       2.940   2.676  19.007  0.00  0.00    +0.000 OA
ENDBRANCH   2  13
BRANCH   8  18
ATOM     18  C   UNL     1       7.666   9.146  17.623  0.00  0.00    +0.000 C 
ATOM     19  C   UNL     1       8.176  10.337  17.758  0.00  0.00    +0.000 C 
BRANCH  19  20
ATOM     20  C   UNL     1       8.771  11.728  17.916  0.00  0.00    +0.000 C 
ATOM     21  C   UNL     1       8.626  12.175  19.380  0.00  0.00    +0.000 C 
ATOM     22  C   UNL     1       9.447  11.306  20.337  0.00  0.00    +0.000 C 
ATOM     23  C   UNL     1      10.915  11.243  19.923  0.00  0.00    +0.000 C 
ATOM     24  C   UNL     1      11.091  10.824  18.465  0.00  0.00    +0.000 C 
ATOM     25  C   UNL     1      10.255  11.689  17.517  0.00  0.00    +0.000 C 
BRANCH  20  26
ATOM     26  O   UNL     1       8.080  12.632  17.066  0.00  0.00    +0.000 OA
ATOM     27  H   UNL     1       7.970  12.188  16.209  0.00  0.00    +0.000 HD
ENDBRANCH  20  26
ENDBRANCH  19  20
ENDBRANCH   8  18
BRANCH   1  28
ATOM     28  C   UNL     1       3.447   6.577  19.292  0.00  0.00    +0.000 C 
BRANCH  28  30
ATOM     29  C   UNL     1       1.863   8.488  17.943  0.00  0.00    +0.000 C 
ATOM     30  C   UNL     1       2.594   7.605  18.566  0.00  0.00    +0.000 C 
ENDBRANCH  28  30
ENDBRANCH   1  28
TORSDOF 6
ENDMDL
MODEL 4
REMARK VINA RESULT:      -6.7      6.171      9.801
REMARK  Name = 
REMARK  6 active torsions:
REMARK  status: ('A' for Active; 'I' for Inactive)
REMARK    1  A    between atoms: C_2  and  C_3
REMARK    2  A    between atoms: C_3  and  N_4
REMARK    3  A    between atoms: C_5  and  C_6
REMARK    4  A    between atoms: C_16  and  C_17
REMARK    5  A    between atoms: C_18  and  C_19
REMARK    6  A    between atoms: C_19  and  O_20
REMARK                            x       y       z     vdW  Elec       q    Type
REMARK                         _______ _______ _______ _____ _____    ______ ____
ROOT
ATOM      1  N   UNL     1      -2.410  10.503  18.118  0.00  0.00    +0.000 N 
ATOM      2  C   UNL     1      -2.931  11.701  18.545  0.00  0.00    +0.000 A 
ATOM      3  N   UNL     1      -1.959  12.430  19.081  0.00  0.00    +0.000 NA
ATOM      4  C   UNL     1      -0.810  11.623  19.031  0.00  0.00    +0.000 A 
ATOM      5  C   UNL     1       0.537  11.791  19.413  0.00  0.00    +0.000 A 
ATOM      6  N   UNL     1       1.004  12.982  19.950  0.00  0.00    +0.000 N 
ATOM      7  N   UNL     1       1.414  10.749  19.237  0.00  0.00    +0.000 NA
ATOM      8  C   UNL     1       0.970   9.596  18.677  0.00  0.00    +0.000 A 
ATOM      9  N   UNL     1      -0.281   9.351  18.256  0.00  0.00    +0.000 NA
ATOM     10  C   UNL     1      -1.099  10.401  18.465  0.00  0.00    +0.000 A 
ATOM     11  H   UNL     1       0.281  13.579  20.339  0.00  0.00    +0.000 HD
ATOM     12  H   UNL     1       1.864  12.875  20.472  0.00  0.00    +0.000 HD
ENDROOT
BRANCH   2  13
ATOM     13  C   UNL     1      -4.341  12.040  18.396  0.00  0.00    +0.000 A 
ATOM     14  C   UNL     1      -5.339  12.248  19.334  0.00  0.00    +0.000 A 
ATOM     15  C   UNL     1      -6.547  12.550  18.630  0.00  0.00    +0.000 A 
ATOM     16  C   UNL     1      -6.230  12.514  17.294  0.00  0.00    +0.000 A 
ATOM     17  O   UNL     1      -4.918  12.217  17.154  0.00  0.00    +0.000 OA
ENDBRANCH   2  13
BRANCH   8  18
ATOM     18  C   UNL     1       1.914   8.504  18.467  0.00  0.00    +0.000 C 
ATOM     19  C   UNL     1       2.742   7.511  18.298  0.00  0.00    +0.000 C 
BRANCH  19  20
ATOM     20  C   UNL     1       3.708   6.353  18.101  0.00  0.00    +0.000 C 
ATOM     21  C   UNL     1       4.066   5.757  19.472  0.00  0.00    +0.000 C 
ATOM     22  C   UNL     1       2.857   5.122  20.164  0.00  0.00    +0.000 C 
ATOM     23  C   UNL     1       2.178   4.085  19.273  0.00  0.00    +0.000 C 
ATOM     24  C   UNL     1       1.829   4.640  17.894  0.00  0.00    +0.000 C 
ATOM     25  C   UNL     1       3.042   5.287  17.217  0.00  0.00    +0.000 C 
BRANCH  20  26
ATOM     26  O   UNL     1       4.883   6.828  17.460  0.00  0.00    +0.000 OA
ATOM     27  H   UNL     1       5.036   6.255  16.691  0.00  0.00    +0.000 HD
ENDBRANCH  20  26
ENDBRANCH  19  20
ENDBRANCH   8  18
BRANCH   1  28
ATOM     28  C   UNL     1      -3.089   9.494  17.382  0.00  0.00    +0.000 C 
BRANCH  28  30
ATOM     29  C   UNL     1      -2.972  10.023  14.609  0.00  0.00    +0.000 C 
ATOM     30  C   UNL     1      -3.026   9.779  15.889  0.00  0.00    +0.000 C 
ENDBRANCH  28  30
ENDBRANCH   1  28
TORSDOF 6
ENDMDL
MODEL 5
REMARK VINA RESULT:      -6.5      5.653      9.954
REMARK  Name = 
REMARK  6 active torsions:
REMARK  status: ('A' for Active; 'I' for Inactive)
REMARK    1  A    between atoms: C_2  and  C_3
REMARK    2  A    between atoms: C_3  and  N_4
REMARK    3  A    between atoms: C_5  and  C_6
REMARK    4  A    between atoms: C_16  and  C_17
REMARK    5  A    between atoms: C_18  and  C_19
REMARK    6  A    between atoms: C_19  and  O_20
REMARK                            x       y       z     vdW  Elec       q    Type
REMARK                         _______ _______ _______ _____ _____    ______ ____
ROOT
ATOM      1  N   UNL     1       1.094  11.663  19.596  0.00  0.00    +0.000 N 
ATOM      2  C   UNL     1       0.315  12.562  20.285  0.00  0.00    +0.000 A 
ATOM      3  N   UNL     1      -0.173  11.971  21.369  0.00  0.00    +0.000 NA
ATOM      4  C   UNL     1       0.279  10.642  21.311  0.00  0.00    +0.000 A 
ATOM      5  C   UNL     1       0.138   9.509  22.139  0.00  0.00    +0.000 A 
ATOM      6  N   UNL     1      -0.553   9.561  23.342  0.00  0.00    +0.000 N 
ATOM      7  N   UNL     1       0.711   8.323  21.750  0.00  0.00    +0.000 NA
ATOM      8  C   UNL     1       1.420   8.279  20.594  0.00  0.00    +0.000 A 
ATOM      9  N   UNL     1       1.635   9.305  19.756  0.00  0.00    +0.000 NA
ATOM     10  C   UNL     1       1.039  10.437  20.182  0.00  0.00    +0.000 A 
ATOM     11  H   UNL     1      -1.199  10.340  23.421  0.00  0.00    +0.000 HD
ATOM     12  H   UNL     1      -0.861   8.653  23.665  0.00  0.00    +0.000 HD
ENDROOT
BRANCH   2  13
ATOM     13  C   UNL     1       0.106  13.931  19.828  0.00  0.00    +0.000 A 
ATOM     14  C   UNL     1      -0.505  14.436  18.693  0.00  0.00    +0.000 A 
ATOM     15  C   UNL     1      -0.422  15.863  18.749  0.00  0.00    +0.000 A 
ATOM     16  C   UNL     1       0.237  16.163  19.917  0.00  0.00    +0.000 A 
ATOM     17  O   UNL     1       0.545  15.015  20.562  0.00  0.00    +0.000 OA
ENDBRANCH   2  13
BRANCH   8  18
ATOM     18  C   UNL     1       2.051   7.022  20.201  0.00  0.00    +0.000 C 
ATOM     19  C   UNL     1       2.599   5.902  19.824  0.00  0.00    +0.000 C 
BRANCH  19  20
ATOM     20  C   UNL     1       3.239   4.594  19.385  0.00  0.00    +0.000 C 
ATOM     21  C   UNL     1       2.750   3.461  20.301  0.00  0.00    +0.000 C 
ATOM     22  C   UNL     1       1.247   3.207  20.160  0.00  0.00    +0.000 C 
ATOM     23  C   UNL     1       0.852   2.951  18.708  0.00  0.00    +0.000 C 
ATOM     24  C   UNL     1       1.344   4.050  17.768  0.00  0.00    +0.000 C 
ATOM     25  C   UNL     1       2.845   4.306  17.927  0.00  0.00    +0.000 C 
BRANCH  20  26
ATOM     26  O   UNL     1       4.652   4.711  19.476  0.00  0.00    +0.000 OA
ATOM     27  H   UNL     1       4.853   5.659  19.547  0.00  0.00    +0.000 HD
ENDBRANCH  20  26
ENDBRANCH  19  20
ENDBRANCH   8  18
BRANCH   1  28
ATOM     28  C   UNL     1       1.893  11.932  18.452  0.00  0.00    +0.000 C 
BRANCH  28  30
ATOM     29  C   UNL     1       3.596  14.138  18.911  0.00  0.00    +0.000 C 
ATOM     30  C   UNL     1       2.810  13.119  18.699  0.00  0.00    +0.000 C 
ENDBRANCH  28  30
ENDBRANCH   1  28
TORSDOF 6
ENDMDL
MODEL 6
REMARK VINA RESULT:      -6.5      5.847      9.570
REMARK  Name = 
REMARK  6 active torsions:
REMARK  status: ('A' for Active; 'I' for Inactive)
REMARK    1  A    between atoms: C_2  and  C_3
REMARK    2  A    between atoms: C_3  and  N_4
REMARK    3  A    between atoms: C_5  and  C_6
REMARK    4  A    between atoms: C_16  and  C_17
REMARK    5  A    between atoms: C_18  and  C_19
REMARK    6  A    between atoms: C_19  and  O_20
REMARK                            x       y       z     vdW  Elec       q    Type
REMARK                         _______ _______ _______ _____ _____    ______ ____
ROOT
ATOM      1  N   UNL     1      -0.186  10.808  20.633  0.00  0.00    +0.000 N 
ATOM      2  C   UNL     1      -0.272  12.180  20.594  0.00  0.00    +0.000 A 
ATOM      3  N   UNL     1       0.517  12.635  19.628  0.00  0.00    +0.000 NA
ATOM      4  C   UNL     1       1.155  11.502  19.094  0.00  0.00    +0.000 A 
ATOM      5  C   UNL     1       2.086  11.284  18.058  0.00  0.00    +0.000 A 
ATOM      6  N   UNL     1       2.558  12.321  17.266  0.00  0.00    +0.000 N 
ATOM      7  N   UNL     1       2.527  10.006  17.817  0.00  0.00    +0.000 NA
ATOM      8  C   UNL     1       2.038   8.985  18.564  0.00  0.00    +0.000 A 
ATOM      9  N   UNL     1       1.132   9.086  19.549  0.00  0.00    +0.000 NA
ATOM     10  C   UNL     1       0.745  10.362  19.749  0.00  0.00    +0.000 A 
ATOM     11  H   UNL     1       2.452  13.244  17.675  0.00  0.00    +0.000 HD
ATOM     12  H   UNL     1       3.431  12.104  16.803  0.00  0.00    +0.000 HD
ENDROOT
BRANCH   2  13
ATOM     13  C   UNL     1      -1.120  12.939  21.505  0.00  0.00    +0.000 A 
ATOM     14  C   UNL     1      -2.339  13.569  21.314  0.00  0.00    +0.000 A 
ATOM     15  C   UNL     1      -2.718  14.173  22.554  0.00  0.00    +0.000 A 
ATOM     16  C   UNL     1      -1.713  13.883  23.445  0.00  0.00    +0.000 A 
ATOM     17  O   UNL     1      -0.765  13.145  22.824  0.00  0.00    +0.000 OA
ENDBRANCH   2  13
BRANCH   8  18
ATOM     18  C   UNL     1       2.490   7.626  18.284  0.00  0.00    +0.000 C 
ATOM     19  C   UNL     1       2.906   6.411  18.061  0.00  0.00    +0.000 C 
BRANCH  19  20
ATOM     20  C   UNL     1       3.391   4.993  17.800  0.00  0.00    +0.000 C 
ATOM     21  C   UNL     1       4.062   4.449  19.072  0.00  0.00    +0.000 C 
ATOM     22  C   UNL     1       3.074   4.298  20.232  0.00  0.00    +0.000 C 
ATOM     23  C   UNL     1       1.868   3.449  19.838  0.00  0.00    +0.000 C 
ATOM     24  C   UNL     1       1.192   3.952  18.564  0.00  0.00    +0.000 C 
ATOM     25  C   UNL     1       2.192   4.113  17.415  0.00  0.00    +0.000 C 
BRANCH  20  26
ATOM     26  O   UNL     1       4.327   5.007  16.732  0.00  0.00    +0.000 OA
ATOM     27  H   UNL     1       3.953   5.575  16.037  0.00  0.00    +0.000 HD
ENDBRANCH  20  26
ENDBRANCH  19  20
ENDBRANCH   8  18
BRANCH   1  28
ATOM     28  C   UNL     1      -0.963   9.931  21.437  0.00  0.00    +0.000 C 
BRANCH  28  30
ATOM     29  C   UNL     1       0.370   9.337  23.856  0.00  0.00    +0.000 C 
ATOM     30  C   UNL     1      -0.245   9.611  22.739  0.00  0.00    +0.000 C 
ENDBRANCH  28  30
ENDBRANCH   1  28
TORSDOF 6
ENDMDL
MODEL 7
REMARK VINA RESULT:      -6.4      6.326      9.929
REMARK  Name = 
REMARK  6 active torsions:
REMARK  status: ('A' for Active; 'I' for Inactive)
REMARK    1  A    between atoms: C_2  and  C_3
REMARK    2  A    between atoms: C_3  and  N_4
REMARK    3  A    between atoms: C_5  and  C_6
REMARK    4  A    between atoms: C_16  and  C_17
REMARK    5  A    between atoms: C_18  and  C_19
REMARK    6  A    between atoms: C_19  and  O_20
REMARK                            x       y       z     vdW  Elec       q    Type
REMARK                         _______ _______ _______ _____ _____    ______ ____
ROOT
ATOM      1  N   UNL     1      -1.012  11.405  20.201  0.00  0.00    +0.000 N 
ATOM      2  C   UNL     1      -1.687  12.009  21.235  0.00  0.00    +0.000 A 
ATOM      3  N   UNL     1      -1.339  11.429  22.378  0.00  0.00    +0.000 NA
ATOM      4  C   UNL     1      -0.460  10.391  22.022  0.00  0.00    +0.000 A 
ATOM      5  C   UNL     1       0.269   9.420  22.739  0.00  0.00    +0.000 A 
ATOM      6  N   UNL     1       0.245   9.360  24.126  0.00  0.00    +0.000 N 
ATOM      7  N   UNL     1       1.035   8.515  22.045  0.00  0.00    +0.000 NA
ATOM      8  C   UNL     1       1.091   8.596  20.692  0.00  0.00    +0.000 A 
ATOM      9  N   UNL     1       0.460   9.498  19.925  0.00  0.00    +0.000 NA
ATOM     10  C   UNL     1      -0.286  10.350  20.657  0.00  0.00    +0.000 A 
ATOM     11  H   UNL     1      -0.551   9.824  24.552  0.00  0.00    +0.000 HD
ATOM     12  H   UNL     1       0.522   8.458  24.491  0.00  0.00    +0.000 HD
ENDROOT
BRANCH   2  13
ATOM     13  C   UNL     1      -2.622  13.108  21.026  0.00  0.00    +0.000 A 
ATOM     14  C   UNL     1      -3.982  13.118  20.762  0.00  0.00    +0.000 A 
ATOM     15  C   UNL     1      -4.394  14.482  20.641  0.00  0.00    +0.000 A 
ATOM     16  C   UNL     1      -3.266  15.243  20.836  0.00  0.00    +0.000 A 
ATOM     17  O   UNL     1      -2.214  14.427  21.071  0.00  0.00    +0.000 OA
ENDBRANCH   2  13
BRANCH   8  18
ATOM     18  C   UNL     1       1.930   7.649  19.964  0.00  0.00    +0.000 C 
ATOM     19  C   UNL     1       2.655   6.784  19.313  0.00  0.00    +0.000 C 
BRANCH  19  20
ATOM     20  C   UNL     1       3.503   5.775  18.555  0.00  0.00    +0.000 C 
ATOM     21  C   UNL     1       4.124   4.785  19.554  0.00  0.00    +0.000 C 
ATOM     22  C   UNL     1       3.066   3.931  20.258  0.00  0.00    +0.000 C 
ATOM     23  C   UNL     1       2.164   3.211  19.259  0.00  0.00    +0.000 C 
ATOM     24  C   UNL     1       1.550   4.166  18.237  0.00  0.00    +0.000 C 
ATOM     25  C   UNL     1       2.614   5.026  17.549  0.00  0.00    +0.000 C 
BRANCH  20  26
ATOM     26  O   UNL     1       4.531   6.459  17.854  0.00  0.00    +0.000 OA
ATOM     27  H   UNL     1       5.376   6.079  18.149  0.00  0.00    +0.000 HD
ENDBRANCH  20  26
ENDBRANCH  19  20
ENDBRANCH   8  18
BRANCH   1  28
ATOM     28  C   UNL     1      -1.008  11.807  18.838  0.00  0.00    +0.000 C 
BRANCH  28  30
ATOM     29  C   UNL     1      -2.729  10.176  17.303  0.00  0.00    +0.000 C 
ATOM     30  C   UNL     1      -1.934  10.929  18.012  0.00  0.00    +0.000 C 
ENDBRANCH  28  30
ENDBRANCH   1  28
TORSDOF 6
ENDMDL
MODEL 8
REMARK VINA RESULT:      -6.4      5.248      8.765
REMARK  Name = 
REMARK  6 active torsions:
REMARK  status: ('A' for Active; 'I' for Inactive)
REMARK    1  A    between atoms: C_2  and  C_3
REMARK    2  A    between atoms: C_3  and  N_4
REMARK    3  A    between atoms: C_5  and  C_6
REMARK    4  A    between atoms: C_16  and  C_17
REMARK    5  A    between atoms: C_18  and  C_19
REMARK    6  A    between atoms: C_19  and  O_20
REMARK                            x       y       z     vdW  Elec       q    Type
REMARK                         _______ _______ _______ _____ _____    ______ ____
ROOT
ATOM      1  N   UNL     1      -0.096  10.375  20.508  0.00  0.00    +0.000 N 
ATOM      2  C   UNL     1      -0.325  11.730  20.504  0.00  0.00    +0.000 A 
ATOM      3  N   UNL     1       0.427  12.294  19.566  0.00  0.00    +0.000 NA
ATOM      4  C   UNL     1       1.188  11.249  19.013  0.00  0.00    +0.000 A 
ATOM      5  C   UNL     1       2.152  11.160  17.989  0.00  0.00    +0.000 A 
ATOM      6  N   UNL     1       2.526  12.263  17.234  0.00  0.00    +0.000 N 
ATOM      7  N   UNL     1       2.729   9.943  17.721  0.00  0.00    +0.000 NA
ATOM      8  C   UNL     1       2.338   8.855  18.430  0.00  0.00    +0.000 A 
ATOM      9  N   UNL     1       1.412   8.832  19.401  0.00  0.00    +0.000 NA
ATOM     10  C   UNL     1       0.890  10.054  19.629  0.00  0.00    +0.000 A 
ATOM     11  H   UNL     1       2.317  13.157  17.667  0.00  0.00    +0.000 HD
ATOM     12  H   UNL     1       3.424  12.153  16.782  0.00  0.00    +0.000 HD
ENDROOT
BRANCH   2  13
ATOM     13  C   UNL     1      -1.262  12.370  21.420  0.00  0.00    +0.000 A 
ATOM     14  C   UNL     1      -1.094  12.878  22.697  0.00  0.00    +0.000 A 
ATOM     15  C   UNL     1      -2.356  13.390  23.134  0.00  0.00    +0.000 A 
ATOM     16  C   UNL     1      -3.237  13.171  22.102  0.00  0.00    +0.000 A 
ATOM     17  O   UNL     1      -2.586  12.571  21.080  0.00  0.00    +0.000 OA
ENDBRANCH   2  13
BRANCH   8  18
ATOM     18  C   UNL     1       2.935   7.559  18.121  0.00  0.00    +0.000 C 
ATOM     19  C   UNL     1       3.457   6.404  17.818  0.00  0.00    +0.000 C 
BRANCH  19  20
ATOM     20  C   UNL     1       4.066   5.056  17.465  0.00  0.00    +0.000 C 
ATOM     21  C   UNL     1       5.013   5.229  16.266  0.00  0.00    +0.000 C 
ATOM     22  C   UNL     1       6.220   6.108  16.601  0.00  0.00    +0.000 C 
ATOM     23  C   UNL     1       6.971   5.592  17.826  0.00  0.00    +0.000 C 
ATOM     24  C   UNL     1       6.053   5.388  19.029  0.00  0.00    +0.000 C 
ATOM     25  C   UNL     1       4.840   4.519  18.679  0.00  0.00    +0.000 C 
BRANCH  20  26
ATOM     26  O   UNL     1       3.028   4.146  17.131  0.00  0.00    +0.000 OA
ATOM     27  H   UNL     1       2.920   4.183  16.166  0.00  0.00    +0.000 HD
ENDBRANCH  20  26
ENDBRANCH  19  20
ENDBRANCH   8  18
BRANCH   1  28
ATOM     28  C   UNL     1      -0.789   9.398  21.273  0.00  0.00    +0.000 C 
BRANCH  28  30
ATOM     29  C   UNL     1       0.210   9.293  23.913  0.00  0.00    +0.000 C 
ATOM     30  C   UNL     1      -0.251   9.341  22.694  0.00  0.00    +0.000 C 
ENDBRANCH  28  30
ENDBRANCH   1  28
TORSDOF 6
ENDMDL
MODEL 9
REMARK VINA RESULT:      -6.3      5.936     10.146
REMARK  Name = 
REMARK  6 active torsions:
REMARK  status: ('A' for Active; 'I' for Inactive)
REMARK    1  A    between atoms: C_2  and  C_3
REMARK    2  A    between atoms: C_3  and  N_4
REMARK    3  A    between atoms: C_5  and  C_6
REMARK    4  A    between atoms: C_16  and  C_17
REMARK    5  A    between atoms: C_18  and  C_19
REMARK    6  A    between atoms: C_19  and  O_20
REMARK                            x       y       z     vdW  Elec       q    Type
REMARK                         _______ _______ _______ _____ _____    ______ ____
ROOT
ATOM      1  N   UNL     1       0.883  12.815  19.253  0.00  0.00    +0.000 N 
ATOM      2  C   UNL     1      -0.221  13.603  19.033  0.00  0.00    +0.000 A 
ATOM      3  N   UNL     1      -1.181  12.862  18.490  0.00  0.00    +0.000 NA
ATOM      4  C   UNL     1      -0.621  11.584  18.320  0.00  0.00    +0.000 A 
ATOM      5  C   UNL     1      -1.094  10.353  17.822  0.00  0.00    +0.000 A 
ATOM      6  N   UNL     1      -2.403  10.191  17.388  0.00  0.00    +0.000 N 
ATOM      7  N   UNL     1      -0.239   9.280  17.777  0.00  0.00    +0.000 NA
ATOM      8  C   UNL     1       1.029   9.424  18.236  0.00  0.00    +0.000 A 
ATOM      9  N   UNL     1       1.563  10.542  18.753  0.00  0.00    +0.000 NA
ATOM     10  C   UNL     1       0.683  11.564  18.760  0.00  0.00    +0.000 A 
ATOM     11  H   UNL     1      -2.877  11.057  17.153  0.00  0.00    +0.000 HD
ATOM     12  H   UNL     1      -2.523   9.400  16.769  0.00  0.00    +0.000 HD
ENDROOT
BRANCH   2  13
ATOM     13  C   UNL     1      -0.253  15.021  19.369  0.00  0.00    +0.000 A 
ATOM     14  C   UNL     1      -0.044  16.152  18.597  0.00  0.00    +0.000 A 
ATOM     15  C   UNL     1      -0.193  17.295  19.444  0.00  0.00    +0.000 A 
ATOM     16  C   UNL     1      -0.487  16.809  20.695  0.00  0.00    +0.000 A 
ATOM     17  O   UNL     1      -0.529  15.458  20.650  0.00  0.00    +0.000 OA
ENDBRANCH   2  13
BRANCH   8  18
ATOM     18  C   UNL     1       1.924   8.271  18.211  0.00  0.00    +0.000 C 
ATOM     19  C   UNL     1       2.712   7.233  18.215  0.00  0.00    +0.000 C 
BRANCH  19  20
ATOM     20  C   UNL     1       3.631   6.021  18.218  0.00  0.00    +0.000 C 
ATOM     21  C   UNL     1       3.849   5.558  19.668  0.00  0.00    +0.000 C 
ATOM     22  C   UNL     1       2.558   5.050  20.316  0.00  0.00    +0.000 C 
ATOM     23  C   UNL     1       1.901   3.954  19.481  0.00  0.00    +0.000 C 
ATOM     24  C   UNL     1       1.691   4.376  18.028  0.00  0.00    +0.000 C 
ATOM     25  C   UNL     1       2.985   4.897  17.394  0.00  0.00    +0.000 C 
BRANCH  20  26
ATOM     26  O   UNL     1       4.876   6.376  17.635  0.00  0.00    +0.000 OA
ATOM     27  H   UNL     1       5.445   5.590  17.682  0.00  0.00    +0.000 HD
ENDBRANCH  20  26
ENDBRANCH  19  20
ENDBRANCH   8  18
BRANCH   1  28
ATOM     28  C   UNL     1       2.076  13.192  19.929  0.00  0.00    +0.000 C 
BRANCH  28  30
ATOM     29  C   UNL     1       3.817  14.584  18.194  0.00  0.00    +0.000 C 
ATOM     30  C   UNL     1       3.013  13.941  18.995  0.00  0.00    +0.000 C 
ENDBRANCH  28  30
ENDBRANCH   1  28
TORSDOF 6
ENDMDL
