MODEL 1
REMARK VINA RESULT:      -7.7      0.000      0.000
REMARK  Name = 
REMARK  10 active torsions:
REMARK  status: ('A' for Active; 'I' for Inactive)
REMARK    1  A    between atoms: C_1  and  O_2
REMARK    2  A    between atoms: O_2  and  C_3
REMARK    3  A    between atoms: C_8  and  O_9
REMARK    4  A    between atoms: O_9  and  C_10
REMARK    5  A    between atoms: C_10  and  C_11
REMARK    6  A    between atoms: N_13  and  C_14
REMARK    7  A    between atoms: C_14  and  C_15
REMARK    8  A    between atoms: C_15  and  S_16
REMARK    9  A    between atoms: S_16  and  N_19
REMARK   10  A    between atoms: N_22  and  C_23
REMARK                            x       y       z     vdW  Elec       q    Type
REMARK                         _______ _______ _______ _____ _____    ______ ____
ROOT
ATOM      1  C   UNL     1       6.930   6.912  18.069  0.00  0.00    +0.000 C 
ENDROOT
BRANCH   1   2
ATOM      2  S   UNL     1       7.097   5.701  16.763  0.00  0.00    +0.000 S 
ATOM      3  O   UNL     1       7.753   6.369  15.658  0.00  0.00    +0.000 OA
ATOM      4  O   UNL     1       7.637   4.493  17.340  0.00  0.00    +0.000 OA
BRANCH   2   5
ATOM      5  N   UNL     1       5.466   5.450  16.346  0.00  0.00    +0.000 NA
ATOM      6  C   UNL     1       5.017   4.017  16.300  0.00  0.00    +0.000 C 
ATOM      7  C   UNL     1       4.824   3.444  17.721  0.00  0.00    +0.000 C 
ATOM      8  N   UNL     1       3.889   4.306  18.468  0.00  0.00    +0.000 N 
ATOM      9  C   UNL     1       4.263   5.733  18.534  0.00  0.00    +0.000 C 
ATOM     10  C   UNL     1       4.458   6.274  17.101  0.00  0.00    +0.000 C 
BRANCH   8  11
ATOM     11  C   UNL     1       2.974   3.774  19.359  0.00  0.00    +0.000 A 
ATOM     12  C   UNL     1       1.592   3.976  19.235  0.00  0.00    +0.000 A 
ATOM     13  C   UNL     1       0.692   3.513  20.202  0.00  0.00    +0.000 A 
ATOM     14  C   UNL     1       1.161   2.835  21.322  0.00  0.00    +0.000 A 
ATOM     15  C   UNL     1       2.524   2.599  21.458  0.00  0.00    +0.000 A 
ATOM     16  C   UNL     1       3.413   3.061  20.484  0.00  0.00    +0.000 A 
ENDBRANCH   8  11
ENDBRANCH   2   5
ENDBRANCH   1   2
BRANCH   1  17
ATOM     17  C   UNL     1       8.226   7.669  18.251  0.00  0.00    +0.000 C 
BRANCH  17  20
ATOM     18  C   UNL     1       8.843  10.023  18.434  0.00  0.00    +0.000 C 
ATOM     19  O   UNL     1       9.458   9.803  19.475  0.00  0.00    +0.000 OA
ATOM     20  N   UNL     1       8.209   9.019  17.718  0.00  0.00    +0.000 N 
ATOM     21  H   UNL     1       7.927   9.204  16.761  0.00  0.00    +0.000 HD
BRANCH  18  22
ATOM     22  C   UNL     1       8.633  11.425  17.878  0.00  0.00    +0.000 C 
BRANCH  22  23
ATOM     23  O   UNL     1       9.051  12.441  18.770  0.00  0.00    +0.000 OA
BRANCH  23  29
ATOM     24  C   UNL     1       8.982  14.869  18.158  0.00  0.00    +0.000 A 
ATOM     25  C   UNL     1       9.681  15.931  17.564  0.00  0.00    +0.000 A 
ATOM     26  C   UNL     1      10.908  15.715  16.941  0.00  0.00    +0.000 A 
ATOM     27  C   UNL     1      11.467  14.443  16.945  0.00  0.00    +0.000 A 
ATOM     28  C   UNL     1      10.808  13.393  17.591  0.00  0.00    +0.000 A 
ATOM     29  C   UNL     1       9.564  13.589  18.208  0.00  0.00    +0.000 A 
BRANCH  24  31
ATOM     30  C   UNL     1       6.641  14.855  17.860  0.00  0.00    +0.000 C 
ATOM     31  O   UNL     1       7.753  15.090  18.722  0.00  0.00    +0.000 OA
ENDBRANCH  24  31
ENDBRANCH  23  29
ENDBRANCH  22  23
ENDBRANCH  18  22
ENDBRANCH  17  20
ENDBRANCH   1  17
TORSDOF 9
ENDMDL
MODEL 2
REMARK VINA RESULT:      -7.7      2.655      3.269
REMARK  Name = 
REMARK  10 active torsions:
REMARK  status: ('A' for Active; 'I' for Inactive)
REMARK    1  A    between atoms: C_1  and  O_2
REMARK    2  A    between atoms: O_2  and  C_3
REMARK    3  A    between atoms: C_8  and  O_9
REMARK    4  A    between atoms: O_9  and  C_10
REMARK    5  A    between atoms: C_10  and  C_11
REMARK    6  A    between atoms: N_13  and  C_14
REMARK    7  A    between atoms: C_14  and  C_15
REMARK    8  A    between atoms: C_15  and  S_16
REMARK    9  A    between atoms: S_16  and  N_19
REMARK   10  A    between atoms: N_22  and  C_23
REMARK                            x       y       z     vdW  Elec       q    Type
REMARK                         _______ _______ _______ _____ _____    ______ ____
ROOT
ATOM      1  C   UNL     1       8.139   7.253  18.293  0.00  0.00    +0.000 C 
ENDROOT
BRANCH   1   2
ATOM      2  S   UNL     1       7.062   6.482  17.089  0.00  0.00    +0.000 S 
ATOM      3  O   UNL     1       5.806   7.202  17.136  0.00  0.00    +0.000 OA
ATOM      4  O   UNL     1       7.801   6.337  15.858  0.00  0.00    +0.000 OA
BRANCH   2   5
ATOM      5  N   UNL     1       6.832   4.953  17.797  0.00  0.00    +0.000 NA
ATOM      6  C   UNL     1       6.423   4.957  19.243  0.00  0.00    +0.000 C 
ATOM      7  C   UNL     1       4.937   5.343  19.404  0.00  0.00    +0.000 C 
ATOM      8  N   UNL     1       4.109   4.437  18.585  0.00  0.00    +0.000 N 
ATOM      9  C   UNL     1       4.473   4.371  17.156  0.00  0.00    +0.000 C 
ATOM     10  C   UNL     1       5.964   3.994  17.028  0.00  0.00    +0.000 C 
BRANCH   8  11
ATOM     11  C   UNL     1       2.869   4.005  19.020  0.00  0.00    +0.000 A 
ATOM     12  C   UNL     1       2.392   4.254  20.314  0.00  0.00    +0.000 A 
ATOM     13  C   UNL     1       1.178   3.722  20.765  0.00  0.00    +0.000 A 
ATOM     14  C   UNL     1       0.413   2.923  19.923  0.00  0.00    +0.000 A 
ATOM     15  C   UNL     1       0.850   2.679  18.627  0.00  0.00    +0.000 A 
ATOM     16  C   UNL     1       2.060   3.219  18.185  0.00  0.00    +0.000 A 
ENDBRANCH   8  11
ENDBRANCH   2   5
ENDBRANCH   1   2
BRANCH   1  17
ATOM     17  C   UNL     1       8.172   8.750  18.085  0.00  0.00    +0.000 C 
BRANCH  17  20
ATOM     18  C   UNL     1       9.232  10.810  18.849  0.00  0.00    +0.000 C 
ATOM     19  O   UNL     1       8.824  11.414  17.860  0.00  0.00    +0.000 OA
ATOM     20  N   UNL     1       8.941   9.475  19.080  0.00  0.00    +0.000 N 
ATOM     21  H   UNL     1       9.093   9.094  20.008  0.00  0.00    +0.000 HD
BRANCH  18  22
ATOM     22  C   UNL     1      10.176  11.436  19.868  0.00  0.00    +0.000 C 
BRANCH  22  23
ATOM     23  O   UNL     1       9.653  11.425  21.183  0.00  0.00    +0.000 OA
BRANCH  23  29
ATOM     24  C   UNL     1       8.768  12.946  22.966  0.00  0.00    +0.000 A 
ATOM     25  C   UNL     1       8.756  14.258  23.464  0.00  0.00    +0.000 A 
ATOM     26  C   UNL     1       9.386  15.289  22.770  0.00  0.00    +0.000 A 
ATOM     27  C   UNL     1      10.070  15.008  21.592  0.00  0.00    +0.000 A 
ATOM     28  C   UNL     1      10.141  13.693  21.124  0.00  0.00    +0.000 A 
ATOM     29  C   UNL     1       9.499  12.646  21.801  0.00  0.00    +0.000 A 
BRANCH  24  31
ATOM     30  C   UNL     1       6.718  11.829  23.310  0.00  0.00    +0.000 C 
ATOM     31  O   UNL     1       8.101  11.955  23.636  0.00  0.00    +0.000 OA
ENDBRANCH  24  31
ENDBRANCH  23  29
ENDBRANCH  22  23
ENDBRANCH  18  22
ENDBRANCH  17  20
ENDBRANCH   1  17
TORSDOF 9
ENDMDL
MODEL 3
REMARK VINA RESULT:      -7.7      6.319      8.374
REMARK  Name = 
REMARK  10 active torsions:
REMARK  status: ('A' for Active; 'I' for Inactive)
REMARK    1  A    between atoms: C_1  and  O_2
REMARK    2  A    between atoms: O_2  and  C_3
REMARK    3  A    between atoms: C_8  and  O_9
REMARK    4  A    between atoms: O_9  and  C_10
REMARK    5  A    between atoms: C_10  and  C_11
REMARK    6  A    between atoms: N_13  and  C_14
REMARK    7  A    between atoms: C_14  and  C_15
REMARK    8  A    between atoms: C_15  and  S_16
REMARK    9  A    between atoms: S_16  and  N_19
REMARK   10  A    between atoms: N_22  and  C_23
REMARK                            x       y       z     vdW  Elec       q    Type
REMARK                         _______ _______ _______ _____ _____    ______ ____
ROOT
ATOM      1  C   UNL     1       2.686   4.587  20.913  0.00  0.00    +0.000 C 
ENDROOT
BRANCH   1   2
ATOM      2  S   UNL     1       1.659   3.142  20.670  0.00  0.00    +0.000 S 
ATOM      3  O   UNL     1       1.445   2.560  21.979  0.00  0.00    +0.000 OA
ATOM      4  O   UNL     1       0.551   3.518  19.825  0.00  0.00    +0.000 OA
BRANCH   2   5
ATOM      5  N   UNL     1       2.720   2.135  19.801  0.00  0.00    +0.000 NA
ATOM      6  C   UNL     1       2.473   2.050  18.321  0.00  0.00    +0.000 C 
ATOM      7  C   UNL     1       2.962   3.323  17.597  0.00  0.00    +0.000 C 
ATOM      8  N   UNL     1       4.383   3.550  17.922  0.00  0.00    +0.000 N 
ATOM      9  C   UNL     1       4.696   3.623  19.363  0.00  0.00    +0.000 C 
ATOM     10  C   UNL     1       4.188   2.344  20.060  0.00  0.00    +0.000 C 
BRANCH   8  11
ATOM     11  C   UNL     1       5.266   4.047  16.980  0.00  0.00    +0.000 A 
ATOM     12  C   UNL     1       6.295   4.942  17.306  0.00  0.00    +0.000 A 
ATOM     13  C   UNL     1       7.113   5.511  16.323  0.00  0.00    +0.000 A 
ATOM     14  C   UNL     1       6.916   5.193  14.984  0.00  0.00    +0.000 A 
ATOM     15  C   UNL     1       5.920   4.290  14.634  0.00  0.00    +0.000 A 
ATOM     16  C   UNL     1       5.112   3.724  15.624  0.00  0.00    +0.000 A 
ENDBRANCH   8  11
ENDBRANCH   2   5
ENDBRANCH   1   2
BRANCH   1  17
ATOM     17  C   UNL     1       2.081   5.784  20.215  0.00  0.00    +0.000 C 
BRANCH  17  20
ATOM     18  C   UNL     1       1.498   8.114  20.642  0.00  0.00    +0.000 C 
ATOM     19  O   UNL     1       1.771   8.418  19.484  0.00  0.00    +0.000 OA
ATOM     20  N   UNL     1       1.589   6.813  21.112  0.00  0.00    +0.000 N 
ATOM     21  H   UNL     1       1.133   6.575  21.987  0.00  0.00    +0.000 HD
BRANCH  18  22
ATOM     22  C   UNL     1       1.127   9.143  21.702  0.00  0.00    +0.000 C 
BRANCH  22  23
ATOM     23  O   UNL     1      -0.268   9.368  21.789  0.00  0.00    +0.000 OA
BRANCH  23  29
ATOM     24  C   UNL     1      -0.740  11.512  20.584  0.00  0.00    +0.000 A 
ATOM     25  C   UNL     1      -1.240  12.818  20.703  0.00  0.00    +0.000 A 
ATOM     26  C   UNL     1      -1.606  13.330  21.946  0.00  0.00    +0.000 A 
ATOM     27  C   UNL     1      -1.517  12.524  23.075  0.00  0.00    +0.000 A 
ATOM     28  C   UNL     1      -1.081  11.201  22.955  0.00  0.00    +0.000 A 
ATOM     29  C   UNL     1      -0.693  10.675  21.715  0.00  0.00    +0.000 A 
BRANCH  24  31
ATOM     30  C   UNL     1      -1.350  10.389  18.601  0.00  0.00    +0.000 C 
ATOM     31  O   UNL     1      -0.337  11.044  19.362  0.00  0.00    +0.000 OA
ENDBRANCH  24  31
ENDBRANCH  23  29
ENDBRANCH  22  23
ENDBRANCH  18  22
ENDBRANCH  17  20
ENDBRANCH   1  17
TORSDOF 9
ENDMDL
MODEL 4
REMARK VINA RESULT:      -7.6      2.240      3.023
REMARK  Name = 
REMARK  10 active torsions:
REMARK  status: ('A' for Active; 'I' for Inactive)
REMARK    1  A    between atoms: C_1  and  O_2
REMARK    2  A    between atoms: O_2  and  C_3
REMARK    3  A    between atoms: C_8  and  O_9
REMARK    4  A    between atoms: O_9  and  C_10
REMARK    5  A    between atoms: C_10  and  C_11
REMARK    6  A    between atoms: N_13  and  C_14
REMARK    7  A    between atoms: C_14  and  C_15
REMARK    8  A    between atoms: C_15  and  S_16
REMARK    9  A    between atoms: S_16  and  N_19
REMARK   10  A    between atoms: N_22  and  C_23
REMARK                            x       y       z     vdW  Elec       q    Type
REMARK                         _______ _______ _______ _____ _____    ______ ____
ROOT
ATOM      1  C   UNL     1       8.106   7.541  18.194  0.00  0.00    +0.000 C 
ENDROOT
BRANCH   1   2
ATOM      2  S   UNL     1       7.004   6.625  17.122  0.00  0.00    +0.000 S 
ATOM      3  O   UNL     1       5.715   7.282  17.194  0.00  0.00    +0.000 OA
ATOM      4  O   UNL     1       7.675   6.421  15.861  0.00  0.00    +0.000 OA
BRANCH   2   5
ATOM      5  N   UNL     1       6.900   5.146  17.956  0.00  0.00    +0.000 NA
ATOM      6  C   UNL     1       6.390   5.226  19.367  0.00  0.00    +0.000 C 
ATOM      7  C   UNL     1       4.862   5.442  19.399  0.00  0.00    +0.000 C 
ATOM      8  N   UNL     1       4.205   4.375  18.621  0.00  0.00    +0.000 N 
ATOM      9  C   UNL     1       4.676   4.230  17.229  0.00  0.00    +0.000 C 
ATOM     10  C   UNL     1       6.206   4.026  17.229  0.00  0.00    +0.000 C 
BRANCH   8  11
ATOM     11  C   UNL     1       2.995   3.836  19.017  0.00  0.00    +0.000 A 
ATOM     12  C   UNL     1       2.307   2.879  18.257  0.00  0.00    +0.000 A 
ATOM     13  C   UNL     1       1.037   2.421  18.626  0.00  0.00    +0.000 A 
ATOM     14  C   UNL     1       0.424   2.917  19.771  0.00  0.00    +0.000 A 
ATOM     15  C   UNL     1       1.091   3.848  20.556  0.00  0.00    +0.000 A 
ATOM     16  C   UNL     1       2.362   4.295  20.182  0.00  0.00    +0.000 A 
ENDBRANCH   8  11
ENDBRANCH   2   5
ENDBRANCH   1   2
BRANCH   1  17
ATOM     17  C   UNL     1       7.966   9.025  17.947  0.00  0.00    +0.000 C 
BRANCH  17  20
ATOM     18  C   UNL     1       9.117  11.170  18.110  0.00  0.00    +0.000 C 
ATOM     19  O   UNL     1       8.209  11.730  17.500  0.00  0.00    +0.000 OA
ATOM     20  N   UNL     1       9.087   9.819  18.416  0.00  0.00    +0.000 N 
ATOM     21  H   UNL     1       9.729   9.460  19.115  0.00  0.00    +0.000 HD
BRANCH  18  22
ATOM     22  C   UNL     1      10.406  11.878  18.505  0.00  0.00    +0.000 C 
BRANCH  22  23
ATOM     23  O   UNL     1      10.740  11.696  19.868  0.00  0.00    +0.000 OA
BRANCH  23  29
ATOM     24  C   UNL     1      10.539  13.943  20.956  0.00  0.00    +0.000 A 
ATOM     25  C   UNL     1       9.848  14.707  21.909  0.00  0.00    +0.000 A 
ATOM     26  C   UNL     1       8.892  14.121  22.734  0.00  0.00    +0.000 A 
ATOM     27  C   UNL     1       8.587  12.772  22.584  0.00  0.00    +0.000 A 
ATOM     28  C   UNL     1       9.224  12.019  21.594  0.00  0.00    +0.000 A 
ATOM     29  C   UNL     1      10.201  12.590  20.766  0.00  0.00    +0.000 A 
BRANCH  24  31
ATOM     30  C   UNL     1      11.063  15.579  19.339  0.00  0.00    +0.000 C 
ATOM     31  O   UNL     1      11.512  14.525  20.188  0.00  0.00    +0.000 OA
ENDBRANCH  24  31
ENDBRANCH  23  29
ENDBRANCH  22  23
ENDBRANCH  18  22
ENDBRANCH  17  20
ENDBRANCH   1  17
TORSDOF 9
ENDMDL
MODEL 5
REMARK VINA RESULT:      -7.5      6.497      8.433
REMARK  Name = 
REMARK  10 active torsions:
REMARK  status: ('A' for Active; 'I' for Inactive)
REMARK    1  A    between atoms: C_1  and  O_2
REMARK    2  A    between atoms: O_2  and  C_3
REMARK    3  A    between atoms: C_8  and  O_9
REMARK    4  A    between atoms: O_9  and  C_10
REMARK    5  A    between atoms: C_10  and  C_11
REMARK    6  A    between atoms: N_13  and  C_14
REMARK    7  A    between atoms: C_14  and  C_15
REMARK    8  A    between atoms: C_15  and  S_16
REMARK    9  A    between atoms: S_16  and  N_19
REMARK   10  A    between atoms: N_22  and  C_23
REMARK                            x       y       z     vdW  Elec       q    Type
REMARK                         _______ _______ _______ _____ _____    ______ ____
ROOT
ATOM      1  C   UNL     1       2.724   5.065  20.291  0.00  0.00    +0.000 C 
ENDROOT
BRANCH   1   2
ATOM      2  S   UNL     1       1.936   3.510  20.695  0.00  0.00    +0.000 S 
ATOM      3  O   UNL     1       2.190   3.270  22.101  0.00  0.00    +0.000 OA
ATOM      4  O   UNL     1       0.594   3.540  20.167  0.00  0.00    +0.000 OA
BRANCH   2   5
ATOM      5  N   UNL     1       2.880   2.426  19.786  0.00  0.00    +0.000 NA
ATOM      6  C   UNL     1       2.508   2.293  18.336  0.00  0.00    +0.000 C 
ATOM      7  C   UNL     1       2.984   3.514  17.521  0.00  0.00    +0.000 C 
ATOM      8  N   UNL     1       4.435   3.692  17.718  0.00  0.00    +0.000 N 
ATOM      9  C   UNL     1       4.870   3.809  19.124  0.00  0.00    +0.000 C 
ATOM     10  C   UNL     1       4.372   2.581  19.914  0.00  0.00    +0.000 C 
BRANCH   8  11
ATOM     11  C   UNL     1       5.255   4.114  16.687  0.00  0.00    +0.000 A 
ATOM     12  C   UNL     1       4.879   4.032  15.339  0.00  0.00    +0.000 A 
ATOM     13  C   UNL     1       5.762   4.371  14.307  0.00  0.00    +0.000 A 
ATOM     14  C   UNL     1       7.051   4.799  14.606  0.00  0.00    +0.000 A 
ATOM     15  C   UNL     1       7.443   4.912  15.934  0.00  0.00    +0.000 A 
ATOM     16  C   UNL     1       6.552   4.577  16.957  0.00  0.00    +0.000 A 
ENDBRANCH   8  11
ENDBRANCH   2   5
ENDBRANCH   1   2
BRANCH   1  17
ATOM     17  C   UNL     1       1.838   6.222  20.693  0.00  0.00    +0.000 C 
BRANCH  17  20
ATOM     18  C   UNL     1       1.296   8.550  20.202  0.00  0.00    +0.000 C 
ATOM     19  O   UNL     1       0.694   8.658  21.268  0.00  0.00    +0.000 OA
ATOM     20  N   UNL     1       1.935   7.380  19.823  0.00  0.00    +0.000 N 
ATOM     21  H   UNL     1       2.608   7.413  19.064  0.00  0.00    +0.000 HD
BRANCH  18  22
ATOM     22  C   UNL     1       1.321   9.652  19.151  0.00  0.00    +0.000 C 
BRANCH  22  23
ATOM     23  O   UNL     1       0.498  10.753  19.487  0.00  0.00    +0.000 OA
BRANCH  23  29
ATOM     24  C   UNL     1      -1.862  11.562  19.266  0.00  0.00    +0.000 A 
ATOM     25  C   UNL     1      -3.028  11.525  18.485  0.00  0.00    +0.000 A 
ATOM     26  C   UNL     1      -3.113  10.692  17.372  0.00  0.00    +0.000 A 
ATOM     27  C   UNL     1      -2.016   9.920  17.005  0.00  0.00    +0.000 A 
ATOM     28  C   UNL     1      -0.830   9.999  17.740  0.00  0.00    +0.000 A 
ATOM     29  C   UNL     1      -0.733  10.820  18.873  0.00  0.00    +0.000 A 
BRANCH  24  31
ATOM     30  C   UNL     1      -3.083  12.776  20.879  0.00  0.00    +0.000 C 
ATOM     31  O   UNL     1      -1.815  12.349  20.386  0.00  0.00    +0.000 OA
ENDBRANCH  24  31
ENDBRANCH  23  29
ENDBRANCH  22  23
ENDBRANCH  18  22
ENDBRANCH  17  20
ENDBRANCH   1  17
TORSDOF 9
ENDMDL
MODEL 6
REMARK VINA RESULT:      -7.4      5.537      8.312
REMARK  Name = 
REMARK  10 active torsions:
REMARK  status: ('A' for Active; 'I' for Inactive)
REMARK    1  A    between atoms: C_1  and  O_2
REMARK    2  A    between atoms: O_2  and  C_3
REMARK    3  A    between atoms: C_8  and  O_9
REMARK    4  A    between atoms: O_9  and  C_10
REMARK    5  A    between atoms: C_10  and  C_11
REMARK    6  A    between atoms: N_13  and  C_14
REMARK    7  A    between atoms: C_14  and  C_15
REMARK    8  A    between atoms: C_15  and  S_16
REMARK    9  A    between atoms: S_16  and  N_19
REMARK   10  A    between atoms: N_22  and  C_23
REMARK                            x       y       z     vdW  Elec       q    Type
REMARK                         _______ _______ _______ _____ _____    ______ ____
ROOT
ATOM      1  C   UNL     1       1.349   4.442  19.295  0.00  0.00    +0.000 C 
ENDROOT
BRANCH   1   2
ATOM      2  S   UNL     1       1.365   2.656  19.197  0.00  0.00    +0.000 S 
ATOM      3  O   UNL     1       1.769   2.172  20.501  0.00  0.00    +0.000 OA
ATOM      4  O   UNL     1       0.128   2.231  18.588  0.00  0.00    +0.000 OA
BRANCH   2   5
ATOM      5  N   UNL     1       2.649   2.404  18.110  0.00  0.00    +0.000 NA
ATOM      6  C   UNL     1       2.797   3.435  17.026  0.00  0.00    +0.000 C 
ATOM      7  C   UNL     1       3.413   4.740  17.574  0.00  0.00    +0.000 C 
ATOM      8  N   UNL     1       4.693   4.431  18.239  0.00  0.00    +0.000 N 
ATOM      9  C   UNL     1       4.619   3.410  19.303  0.00  0.00    +0.000 C 
ATOM     10  C   UNL     1       3.992   2.122  18.728  0.00  0.00    +0.000 C 
BRANCH   8  11
ATOM     11  C   UNL     1       5.771   5.293  18.161  0.00  0.00    +0.000 A 
ATOM     12  C   UNL     1       6.877   5.201  19.018  0.00  0.00    +0.000 A 
ATOM     13  C   UNL     1       7.911   6.145  18.987  0.00  0.00    +0.000 A 
ATOM     14  C   UNL     1       7.858   7.208  18.093  0.00  0.00    +0.000 A 
ATOM     15  C   UNL     1       6.785   7.311  17.216  0.00  0.00    +0.000 A 
ATOM     16  C   UNL     1       5.761   6.361  17.250  0.00  0.00    +0.000 A 
ENDBRANCH   8  11
ENDBRANCH   2   5
ENDBRANCH   1   2
BRANCH   1  17
ATOM     17  C   UNL     1       1.996   4.903  20.581  0.00  0.00    +0.000 C 
BRANCH  17  20
ATOM     18  C   UNL     1       1.857   7.338  20.523  0.00  0.00    +0.000 C 
ATOM     19  O   UNL     1       2.603   7.380  19.547  0.00  0.00    +0.000 OA
ATOM     20  N   UNL     1       1.461   6.146  21.108  0.00  0.00    +0.000 N 
ATOM     21  H   UNL     1       0.671   6.151  21.744  0.00  0.00    +0.000 HD
BRANCH  18  22
ATOM     22  C   UNL     1       1.371   8.587  21.246  0.00  0.00    +0.000 C 
BRANCH  22  23
ATOM     23  O   UNL     1      -0.034   8.747  21.187  0.00  0.00    +0.000 OA
BRANCH  23  29
ATOM     24  C   UNL     1      -0.805  10.949  20.273  0.00  0.00    +0.000 A 
ATOM     25  C   UNL     1      -1.328  12.212  20.590  0.00  0.00    +0.000 A 
ATOM     26  C   UNL     1      -1.485  12.604  21.917  0.00  0.00    +0.000 A 
ATOM     27  C   UNL     1      -1.161  11.720  22.939  0.00  0.00    +0.000 A 
ATOM     28  C   UNL     1      -0.699  10.437  22.631  0.00  0.00    +0.000 A 
ATOM     29  C   UNL     1      -0.520  10.031  21.301  0.00  0.00    +0.000 A 
BRANCH  24  31
ATOM     30  C   UNL     1      -1.796  10.277  18.239  0.00  0.00    +0.000 C 
ATOM     31  O   UNL     1      -0.610  10.599  18.963  0.00  0.00    +0.000 OA
ENDBRANCH  24  31
ENDBRANCH  23  29
ENDBRANCH  22  23
ENDBRANCH  18  22
ENDBRANCH  17  20
ENDBRANCH   1  17
TORSDOF 9
ENDMDL
MODEL 7
REMARK VINA RESULT:      -7.4      1.932      2.390
REMARK  Name = 
REMARK  10 active torsions:
REMARK  status: ('A' for Active; 'I' for Inactive)
REMARK    1  A    between atoms: C_1  and  O_2
REMARK    2  A    between atoms: O_2  and  C_3
REMARK    3  A    between atoms: C_8  and  O_9
REMARK    4  A    between atoms: O_9  and  C_10
REMARK    5  A    between atoms: C_10  and  C_11
REMARK    6  A    between atoms: N_13  and  C_14
REMARK    7  A    between atoms: C_14  and  C_15
REMARK    8  A    between atoms: C_15  and  S_16
REMARK    9  A    between atoms: S_16  and  N_19
REMARK   10  A    between atoms: N_22  and  C_23
REMARK                            x       y       z     vdW  Elec       q    Type
REMARK                         _______ _______ _______ _____ _____    ______ ____
ROOT
ATOM      1  C   UNL     1       7.051   8.372  17.492  0.00  0.00    +0.000 C 
ENDROOT
BRANCH   1   2
ATOM      2  S   UNL     1       6.954   6.625  17.116  0.00  0.00    +0.000 S 
ATOM      3  O   UNL     1       7.876   6.383  16.025  0.00  0.00    +0.000 OA
ATOM      4  O   UNL     1       7.049   5.895  18.357  0.00  0.00    +0.000 OA
BRANCH   2   5
ATOM      5  N   UNL     1       5.368   6.514  16.512  0.00  0.00    +0.000 NA
ATOM      6  C   UNL     1       4.947   5.155  16.028  0.00  0.00    +0.000 C 
ATOM      7  C   UNL     1       4.648   4.207  17.210  0.00  0.00    +0.000 C 
ATOM      8  N   UNL     1       3.641   4.830  18.089  0.00  0.00    +0.000 N 
ATOM      9  C   UNL     1       3.986   6.179  18.583  0.00  0.00    +0.000 C 
ATOM     10  C   UNL     1       4.288   7.099  17.382  0.00  0.00    +0.000 C 
BRANCH   8  11
ATOM     11  C   UNL     1       2.666   4.076  18.715  0.00  0.00    +0.000 A 
ATOM     12  C   UNL     1       2.119   2.919  18.141  0.00  0.00    +0.000 A 
ATOM     13  C   UNL     1       1.063   2.228  18.745  0.00  0.00    +0.000 A 
ATOM     14  C   UNL     1       0.527   2.684  19.943  0.00  0.00    +0.000 A 
ATOM     15  C   UNL     1       1.064   3.814  20.547  0.00  0.00    +0.000 A 
ATOM     16  C   UNL     1       2.123   4.494  19.939  0.00  0.00    +0.000 A 
ENDBRANCH   8  11
ENDBRANCH   2   5
ENDBRANCH   1   2
BRANCH   1  17
ATOM     17  C   UNL     1       8.340   8.681  18.219  0.00  0.00    +0.000 C 
BRANCH  17  20
ATOM     18  C   UNL     1       9.368  10.755  18.991  0.00  0.00    +0.000 C 
ATOM     19  O   UNL     1       9.395  10.338  20.146  0.00  0.00    +0.000 OA
ATOM     20  N   UNL     1       8.887   9.995  17.936  0.00  0.00    +0.000 N 
ATOM     21  H   UNL     1       9.104  10.281  16.987  0.00  0.00    +0.000 HD
BRANCH  18  22
ATOM     22  C   UNL     1       9.769  12.175  18.614  0.00  0.00    +0.000 C 
BRANCH  22  23
ATOM     23  O   UNL     1      10.983  12.584  19.216  0.00  0.00    +0.000 OA
BRANCH  23  29
ATOM     24  C   UNL     1      11.599  14.995  19.496  0.00  0.00    +0.000 A 
ATOM     25  C   UNL     1      11.447  16.142  20.291  0.00  0.00    +0.000 A 
ATOM     26  C   UNL     1      10.759  16.083  21.500  0.00  0.00    +0.000 A 
ATOM     27  C   UNL     1      10.179  14.886  21.904  0.00  0.00    +0.000 A 
ATOM     28  C   UNL     1      10.271  13.755  21.088  0.00  0.00    +0.000 A 
ATOM     29  C   UNL     1      10.974  13.792  19.875  0.00  0.00    +0.000 A 
BRANCH  24  31
ATOM     30  C   UNL     1      11.619  15.586  17.212  0.00  0.00    +0.000 C 
ATOM     31  O   UNL     1      12.322  15.060  18.335  0.00  0.00    +0.000 OA
ENDBRANCH  24  31
ENDBRANCH  23  29
ENDBRANCH  22  23
ENDBRANCH  18  22
ENDBRANCH  17  20
ENDBRANCH   1  17
TORSDOF 9
ENDMDL
MODEL 8
REMARK VINA RESULT:      -7.4      1.664      2.008
REMARK  Name = 
REMARK  10 active torsions:
REMARK  status: ('A' for Active; 'I' for Inactive)
REMARK    1  A    between atoms: C_1  and  O_2
REMARK    2  A    between atoms: O_2  and  C_3
REMARK    3  A    between atoms: C_8  and  O_9
REMARK    4  A    between atoms: O_9  and  C_10
REMARK    5  A    between atoms: C_10  and  C_11
REMARK    6  A    between atoms: N_13  and  C_14
REMARK    7  A    between atoms: C_14  and  C_15
REMARK    8  A    between atoms: C_15  and  S_16
REMARK    9  A    between atoms: S_16  and  N_19
REMARK   10  A    between atoms: N_22  and  C_23
REMARK                            x       y       z     vdW  Elec       q    Type
REMARK                         _______ _______ _______ _____ _____    ______ ____
ROOT
ATOM      1  C   UNL     1       8.069   7.496  18.398  0.00  0.00    +0.000 C 
ENDROOT
BRANCH   1   2
ATOM      2  S   UNL     1       7.065   6.626  17.200  0.00  0.00    +0.000 S 
ATOM      3  O   UNL     1       5.759   7.252  17.220  0.00  0.00    +0.000 OA
ATOM      4  O   UNL     1       7.825   6.511  15.979  0.00  0.00    +0.000 OA
BRANCH   2   5
ATOM      5  N   UNL     1       6.939   5.097  17.936  0.00  0.00    +0.000 NA
ATOM      6  C   UNL     1       6.468   5.097  19.363  0.00  0.00    +0.000 C 
ATOM      7  C   UNL     1       4.948   5.353  19.452  0.00  0.00    +0.000 C 
ATOM      8  N   UNL     1       4.239   4.360  18.624  0.00  0.00    +0.000 N 
ATOM      9  C   UNL     1       4.670   4.295  17.212  0.00  0.00    +0.000 C 
ATOM     10  C   UNL     1       6.192   4.049  17.156  0.00  0.00    +0.000 C 
BRANCH   8  11
ATOM     11  C   UNL     1       3.024   3.829  19.017  0.00  0.00    +0.000 A 
ATOM     12  C   UNL     1       2.291   2.942  18.216  0.00  0.00    +0.000 A 
ATOM     13  C   UNL     1       1.018   2.496  18.589  0.00  0.00    +0.000 A 
ATOM     14  C   UNL     1       0.448   2.934  19.779  0.00  0.00    +0.000 A 
ATOM     15  C   UNL     1       1.161   3.795  20.604  0.00  0.00    +0.000 A 
ATOM     16  C   UNL     1       2.434   4.229  20.225  0.00  0.00    +0.000 A 
ENDBRANCH   8  11
ENDBRANCH   2   5
ENDBRANCH   1   2
BRANCH   1  17
ATOM     17  C   UNL     1       8.321   8.915  17.939  0.00  0.00    +0.000 C 
BRANCH  17  20
ATOM     18  C   UNL     1       9.678  10.807  18.668  0.00  0.00    +0.000 C 
ATOM     19  O   UNL     1      10.083  10.987  17.523  0.00  0.00    +0.000 OA
ATOM     20  N   UNL     1       8.767   9.812  18.989  0.00  0.00    +0.000 N 
ATOM     21  H   UNL     1       8.289   9.856  19.883  0.00  0.00    +0.000 HD
BRANCH  18  22
ATOM     22  C   UNL     1      10.204  11.589  19.864  0.00  0.00    +0.000 C 
BRANCH  22  23
ATOM     23  O   UNL     1       9.473  12.775  20.113  0.00  0.00    +0.000 OA
BRANCH  23  29
ATOM     24  C   UNL     1       9.541  15.213  19.541  0.00  0.00    +0.000 A 
ATOM     25  C   UNL     1      10.367  16.330  19.343  0.00  0.00    +0.000 A 
ATOM     26  C   UNL     1      11.753  16.204  19.368  0.00  0.00    +0.000 A 
ATOM     27  C   UNL     1      12.327  14.966  19.633  0.00  0.00    +0.000 A 
ATOM     28  C   UNL     1      11.512  13.861  19.895  0.00  0.00    +0.000 A 
ATOM     29  C   UNL     1      10.114  13.967  19.858  0.00  0.00    +0.000 A 
BRANCH  24  31
ATOM     30  C   UNL     1       7.688  15.811  18.208  0.00  0.00    +0.000 C 
ATOM     31  O   UNL     1       8.180  15.346  19.463  0.00  0.00    +0.000 OA
ENDBRANCH  24  31
ENDBRANCH  23  29
ENDBRANCH  22  23
ENDBRANCH  18  22
ENDBRANCH  17  20
ENDBRANCH   1  17
TORSDOF 9
ENDMDL
MODEL 9
REMARK VINA RESULT:      -7.3      1.411      2.063
REMARK  Name = 
REMARK  10 active torsions:
REMARK  status: ('A' for Active; 'I' for Inactive)
REMARK    1  A    between atoms: C_1  and  O_2
REMARK    2  A    between atoms: O_2  and  C_3
REMARK    3  A    between atoms: C_8  and  O_9
REMARK    4  A    between atoms: O_9  and  C_10
REMARK    5  A    between atoms: C_10  and  C_11
REMARK    6  A    between atoms: N_13  and  C_14
REMARK    7  A    between atoms: C_14  and  C_15
REMARK    8  A    between atoms: C_15  and  S_16
REMARK    9  A    between atoms: S_16  and  N_19
REMARK   10  A    between atoms: N_22  and  C_23
REMARK                            x       y       z     vdW  Elec       q    Type
REMARK                         _______ _______ _______ _____ _____    ______ ____
ROOT
ATOM      1  C   UNL     1       6.818   7.755  17.640  0.00  0.00    +0.000 C 
ENDROOT
BRANCH   1   2
ATOM      2  S   UNL     1       6.947   6.124  16.916  0.00  0.00    +0.000 S 
ATOM      3  O   UNL     1       7.777   6.259  15.736  0.00  0.00    +0.000 OA
ATOM      4  O   UNL     1       7.281   5.194  17.967  0.00  0.00    +0.000 OA
BRANCH   2   5
ATOM      5  N   UNL     1       5.342   5.865  16.416  0.00  0.00    +0.000 NA
ATOM      6  C   UNL     1       4.935   4.429  16.247  0.00  0.00    +0.000 C 
ATOM      7  C   UNL     1       4.703   3.746  17.612  0.00  0.00    +0.000 C 
ATOM      8  N   UNL     1       3.717   4.526  18.383  0.00  0.00    +0.000 N 
ATOM      9  C   UNL     1       4.048   5.953  18.568  0.00  0.00    +0.000 C 
ATOM     10  C   UNL     1       4.283   6.604  17.189  0.00  0.00    +0.000 C 
BRANCH   8  11
ATOM     11  C   UNL     1       2.784   3.906  19.194  0.00  0.00    +0.000 A 
ATOM     12  C   UNL     1       1.680   3.210  18.681  0.00  0.00    +0.000 A 
ATOM     13  C   UNL     1       0.694   2.676  19.520  0.00  0.00    +0.000 A 
ATOM     14  C   UNL     1       0.793   2.831  20.898  0.00  0.00    +0.000 A 
ATOM     15  C   UNL     1       1.888   3.496  21.435  0.00  0.00    +0.000 A 
ATOM     16  C   UNL     1       2.870   4.021  20.589  0.00  0.00    +0.000 A 
ENDBRANCH   8  11
ENDBRANCH   2   5
ENDBRANCH   1   2
BRANCH   1  17
ATOM     17  C   UNL     1       8.168   8.217  18.139  0.00  0.00    +0.000 C 
BRANCH  17  20
ATOM     18  C   UNL     1       9.140  10.425  18.504  0.00  0.00    +0.000 C 
ATOM     19  O   UNL     1       9.333  10.169  19.689  0.00  0.00    +0.000 OA
ATOM     20  N   UNL     1       8.587   9.507  17.624  0.00  0.00    +0.000 N 
ATOM     21  H   UNL     1       8.669   9.674  16.626  0.00  0.00    +0.000 HD
BRANCH  18  22
ATOM     22  C   UNL     1       9.396  11.800  17.902  0.00  0.00    +0.000 C 
BRANCH  22  23
ATOM     23  O   UNL     1       9.587  12.804  18.881  0.00  0.00    +0.000 OA
BRANCH  23  29
ATOM     24  C   UNL     1       8.090  14.214  20.310  0.00  0.00    +0.000 A 
ATOM     25  C   UNL     1       7.017  15.120  20.317  0.00  0.00    +0.000 A 
ATOM     26  C   UNL     1       6.333  15.423  19.143  0.00  0.00    +0.000 A 
ATOM     27  C   UNL     1       6.744  14.856  17.941  0.00  0.00    +0.000 A 
ATOM     28  C   UNL     1       7.852  14.004  17.915  0.00  0.00    +0.000 A 
ATOM     29  C   UNL     1       8.541  13.675  19.091  0.00  0.00    +0.000 A 
BRANCH  24  31
ATOM     30  C   UNL     1       9.851  14.693  21.806  0.00  0.00    +0.000 C 
ATOM     31  O   UNL     1       8.718  13.890  21.483  0.00  0.00    +0.000 OA
ENDBRANCH  24  31
ENDBRANCH  23  29
ENDBRANCH  22  23
ENDBRANCH  18  22
ENDBRANCH  17  20
ENDBRANCH   1  17
TORSDOF 9
ENDMDL
