MODEL 1
REMARK VINA RESULT:      -7.8      0.000      0.000
REMARK  Name = 
REMARK  5 active torsions:
REMARK  status: ('A' for Active; 'I' for Inactive)
REMARK    1  A    between atoms: C_1  and  C_2
REMARK    2  A    between atoms: N_7  and  C_8
REMARK    3  A    between atoms: C_11  and  S_12
REMARK    4  A    between atoms: S_12  and  N_15
REMARK    5  A    between atoms: C_22  and  N_23
REMARK                            x       y       z     vdW  Elec       q    Type
REMARK                         _______ _______ _______ _____ _____    ______ ____
ROOT
ATOM      1  C   UNL     1       1.173   9.663  19.173  0.00  0.00    +0.000 A 
ATOM      2  C   UNL     1       1.777   9.297  17.949  0.00  0.00    +0.000 A 
ATOM      3  C   UNL     1       2.497   8.103  17.780  0.00  0.00    +0.000 A 
ATOM      4  C   UNL     1       2.672   7.238  18.856  0.00  0.00    +0.000 A 
ATOM      5  C   UNL     1       2.081   7.532  20.078  0.00  0.00    +0.000 A 
ATOM      6  C   UNL     1       1.350   8.726  20.216  0.00  0.00    +0.000 A 
ENDROOT
BRANCH   1  13
ATOM      7  C   UNL     1      -1.044  15.538  20.542  0.00  0.00    +0.000 C 
ATOM      8  C   UNL     1      -1.761  14.212  20.544  0.00  0.00    +0.000 C 
ATOM      9  O   UNL     1      -2.980  14.163  20.701  0.00  0.00    +0.000 OA
ATOM     10  N   UNL     1      -0.992  13.091  20.288  0.00  0.00    +0.000 N 
ATOM     11  C   UNL     1      -1.645  11.780  20.173  0.00  0.00    +0.000 C 
ATOM     12  C   UNL     1      -1.001  10.919  19.063  0.00  0.00    +0.000 C 
ATOM     13  N   UNL     1       0.466  10.848  19.266  0.00  0.00    +0.000 N 
ATOM     14  C   UNL     1       1.105  12.180  19.313  0.00  0.00    +0.000 C 
ATOM     15  C   UNL     1       0.470  13.031  20.428  0.00  0.00    +0.000 C 
ENDBRANCH   1  13
BRANCH   4  16
ATOM     16  S   UNL     1       3.521   5.677  18.641  0.00  0.00    +0.000 S 
ATOM     17  O   UNL     1       3.701   5.490  17.217  0.00  0.00    +0.000 OA
ATOM     18  O   UNL     1       4.644   5.678  19.550  0.00  0.00    +0.000 OA
BRANCH  16  19
ATOM     19  N   UNL     1       2.382   4.521  19.192  0.00  0.00    +0.000 NA
ATOM     20  C   UNL     1       1.969   3.510  18.187  0.00  0.00    +0.000 C 
ATOM     21  C   UNL     1       0.789   2.685  18.685  0.00  0.00    +0.000 C 
ATOM     22  C   UNL     1       1.088   2.064  20.043  0.00  0.00    +0.000 C 
ATOM     23  C   UNL     1       1.423   3.163  21.038  0.00  0.00    +0.000 C 
ATOM     24  C   UNL     1       2.613   3.992  20.561  0.00  0.00    +0.000 C 
ENDBRANCH  16  19
ENDBRANCH   4  16
BRANCH   6  25
ATOM     25  N   UNL     1       0.705   8.891  21.507  0.00  0.00    +0.000 N 
ATOM     26  O   UNL     1       1.319   9.499  22.392  0.00  0.00    +0.000 OA
ATOM     27  O   UNL     1      -0.439   8.425  21.618  0.00  0.00    +0.000 OA
ENDBRANCH   6  25
TORSDOF 4
ENDMDL
MODEL 2
REMARK VINA RESULT:      -7.8      2.149      2.886
REMARK  Name = 
REMARK  5 active torsions:
REMARK  status: ('A' for Active; 'I' for Inactive)
REMARK    1  A    between atoms: C_1  and  C_2
REMARK    2  A    between atoms: N_7  and  C_8
REMARK    3  A    between atoms: C_11  and  S_12
REMARK    4  A    between atoms: S_12  and  N_15
REMARK    5  A    between atoms: C_22  and  N_23
REMARK                            x       y       z     vdW  Elec       q    Type
REMARK                         _______ _______ _______ _____ _____    ______ ____
ROOT
ATOM      1  C   UNL     1       1.360   9.397  19.120  0.00  0.00    +0.000 A 
ATOM      2  C   UNL     1       1.898   8.858  17.930  0.00  0.00    +0.000 A 
ATOM      3  C   UNL     1       2.437   7.563  17.853  0.00  0.00    +0.000 A 
ATOM      4  C   UNL     1       2.489   6.763  18.990  0.00  0.00    +0.000 A 
ATOM      5  C   UNL     1       1.954   7.229  20.184  0.00  0.00    +0.000 A 
ATOM      6  C   UNL     1       1.404   8.523  20.230  0.00  0.00    +0.000 A 
ENDROOT
BRANCH   1  13
ATOM      7  C   UNL     1       0.130  15.659  19.879  0.00  0.00    +0.000 C 
ATOM      8  C   UNL     1      -0.748  14.463  20.149  0.00  0.00    +0.000 C 
ATOM      9  O   UNL     1      -1.932  14.615  20.447  0.00  0.00    +0.000 OA
ATOM     10  N   UNL     1      -0.173  13.218  19.971  0.00  0.00    +0.000 N 
ATOM     11  C   UNL     1      -1.002  12.014  20.117  0.00  0.00    +0.000 C 
ATOM     12  C   UNL     1      -0.626  10.936  19.076  0.00  0.00    +0.000 C 
ATOM     13  N   UNL     1       0.832  10.675  19.122  0.00  0.00    +0.000 N 
ATOM     14  C   UNL     1       1.641  11.893  18.908  0.00  0.00    +0.000 C 
ATOM     15  C   UNL     1       1.274  12.961  19.955  0.00  0.00    +0.000 C 
ENDBRANCH   1  13
BRANCH   4  16
ATOM     16  S   UNL     1       3.102   5.084  18.895  0.00  0.00    +0.000 S 
ATOM     17  O   UNL     1       3.222   4.602  20.254  0.00  0.00    +0.000 OA
ATOM     18  O   UNL     1       2.292   4.394  17.917  0.00  0.00    +0.000 OA
BRANCH  16  19
ATOM     19  N   UNL     1       4.681   5.268  18.253  0.00  0.00    +0.000 NA
ATOM     20  C   UNL     1       5.778   5.240  19.251  0.00  0.00    +0.000 C 
ATOM     21  C   UNL     1       7.106   5.649  18.628  0.00  0.00    +0.000 C 
ATOM     22  C   UNL     1       7.418   4.806  17.399  0.00  0.00    +0.000 C 
ATOM     23  C   UNL     1       6.291   4.948  16.388  0.00  0.00    +0.000 C 
ATOM     24  C   UNL     1       4.954   4.528  16.994  0.00  0.00    +0.000 C 
ENDBRANCH  16  19
ENDBRANCH   4  16
BRANCH   6  25
ATOM     25  N   UNL     1       0.796   8.873  21.502  0.00  0.00    +0.000 N 
ATOM     26  O   UNL     1       1.459   9.548  22.299  0.00  0.00    +0.000 OA
ATOM     27  O   UNL     1      -0.368   8.485  21.684  0.00  0.00    +0.000 OA
ENDBRANCH   6  25
TORSDOF 4
ENDMDL
MODEL 3
REMARK VINA RESULT:      -7.4      0.468      1.217
REMARK  Name = 
REMARK  5 active torsions:
REMARK  status: ('A' for Active; 'I' for Inactive)
REMARK    1  A    between atoms: C_1  and  C_2
REMARK    2  A    between atoms: N_7  and  C_8
REMARK    3  A    between atoms: C_11  and  S_12
REMARK    4  A    between atoms: S_12  and  N_15
REMARK    5  A    between atoms: C_22  and  N_23
REMARK                            x       y       z     vdW  Elec       q    Type
REMARK                         _______ _______ _______ _____ _____    ______ ____
ROOT
ATOM      1  C   UNL     1       1.370   9.353  19.012  0.00  0.00    +0.000 A 
ATOM      2  C   UNL     1       2.009   9.013  17.799  0.00  0.00    +0.000 A 
ATOM      3  C   UNL     1       2.780   7.849  17.642  0.00  0.00    +0.000 A 
ATOM      4  C   UNL     1       2.970   6.991  18.721  0.00  0.00    +0.000 A 
ATOM      5  C   UNL     1       2.347   7.259  19.932  0.00  0.00    +0.000 A 
ATOM      6  C   UNL     1       1.566   8.423  20.058  0.00  0.00    +0.000 A 
ENDROOT
BRANCH   1  13
ATOM      7  C   UNL     1      -1.058  15.169  20.274  0.00  0.00    +0.000 C 
ATOM      8  C   UNL     1      -1.715  13.813  20.344  0.00  0.00    +0.000 C 
ATOM      9  O   UNL     1      -2.924  13.716  20.547  0.00  0.00    +0.000 OA
ATOM     10  N   UNL     1      -0.906  12.719  20.096  0.00  0.00    +0.000 N 
ATOM     11  C   UNL     1      -1.503  11.378  20.046  0.00  0.00    +0.000 C 
ATOM     12  C   UNL     1      -0.861  10.509  18.942  0.00  0.00    +0.000 C 
ATOM     13  N   UNL     1       0.614  10.509  19.093  0.00  0.00    +0.000 N 
ATOM     14  C   UNL     1       1.195  11.868  19.074  0.00  0.00    +0.000 C 
ATOM     15  C   UNL     1       0.562  12.727  20.185  0.00  0.00    +0.000 C 
ENDBRANCH   1  13
BRANCH   4  16
ATOM     16  S   UNL     1       3.885   5.465  18.519  0.00  0.00    +0.000 S 
ATOM     17  O   UNL     1       4.058   5.264  17.096  0.00  0.00    +0.000 OA
ATOM     18  O   UNL     1       5.016   5.530  19.416  0.00  0.00    +0.000 OA
BRANCH  16  19
ATOM     19  N   UNL     1       2.804   4.269  19.101  0.00  0.00    +0.000 NA
ATOM     20  C   UNL     1       2.614   4.249  20.572  0.00  0.00    +0.000 C 
ATOM     21  C   UNL     1       1.837   3.015  21.014  0.00  0.00    +0.000 C 
ATOM     22  C   UNL     1       0.521   2.896  20.257  0.00  0.00    +0.000 C 
ATOM     23  C   UNL     1       0.800   2.841  18.763  0.00  0.00    +0.000 C 
ATOM     24  C   UNL     1       1.566   4.078  18.302  0.00  0.00    +0.000 C 
ENDBRANCH  16  19
ENDBRANCH   4  16
BRANCH   6  25
ATOM     25  N   UNL     1       0.892   8.560  21.337  0.00  0.00    +0.000 N 
ATOM     26  O   UNL     1      -0.256   8.110  21.441  0.00  0.00    +0.000 OA
ATOM     27  O   UNL     1       1.536   9.103  22.247  0.00  0.00    +0.000 OA
ENDBRANCH   6  25
TORSDOF 4
ENDMDL
MODEL 4
REMARK VINA RESULT:      -7.3      2.186      2.811
REMARK  Name = 
REMARK  5 active torsions:
REMARK  status: ('A' for Active; 'I' for Inactive)
REMARK    1  A    between atoms: C_1  and  C_2
REMARK    2  A    between atoms: N_7  and  C_8
REMARK    3  A    between atoms: C_11  and  S_12
REMARK    4  A    between atoms: S_12  and  N_15
REMARK    5  A    between atoms: C_22  and  N_23
REMARK                            x       y       z     vdW  Elec       q    Type
REMARK                         _______ _______ _______ _____ _____    ______ ____
ROOT
ATOM      1  C   UNL     1       1.529   9.048  19.037  0.00  0.00    +0.000 A 
ATOM      2  C   UNL     1       2.023   8.414  17.876  0.00  0.00    +0.000 A 
ATOM      3  C   UNL     1       2.495   7.091  17.870  0.00  0.00    +0.000 A 
ATOM      4  C   UNL     1       2.522   6.358  19.052  0.00  0.00    +0.000 A 
ATOM      5  C   UNL     1       2.026   6.919  20.222  0.00  0.00    +0.000 A 
ATOM      6  C   UNL     1       1.544   8.240  20.197  0.00  0.00    +0.000 A 
ENDROOT
BRANCH   1  13
ATOM      7  C   UNL     1       0.655  15.406  19.381  0.00  0.00    +0.000 C 
ATOM      8  C   UNL     1      -0.267  14.282  19.783  0.00  0.00    +0.000 C 
ATOM      9  O   UNL     1      -1.425  14.518  20.126  0.00  0.00    +0.000 OA
ATOM     10  N   UNL     1       0.235  12.998  19.671  0.00  0.00    +0.000 N 
ATOM     11  C   UNL     1      -0.643  11.854  19.948  0.00  0.00    +0.000 C 
ATOM     12  C   UNL     1      -0.378  10.684  18.974  0.00  0.00    +0.000 C 
ATOM     13  N   UNL     1       1.066  10.350  18.968  0.00  0.00    +0.000 N 
ATOM     14  C   UNL     1       1.923  11.504  18.624  0.00  0.00    +0.000 C 
ATOM     15  C   UNL     1       1.665  12.663  19.604  0.00  0.00    +0.000 C 
ENDBRANCH   1  13
BRANCH   4  16
ATOM     16  S   UNL     1       3.048   4.646  19.050  0.00  0.00    +0.000 S 
ATOM     17  O   UNL     1       3.030   4.200  20.427  0.00  0.00    +0.000 OA
ATOM     18  O   UNL     1       2.283   3.971  18.027  0.00  0.00    +0.000 OA
BRANCH  16  19
ATOM     19  N   UNL     1       4.681   4.729  18.537  0.00  0.00    +0.000 NA
ATOM     20  C   UNL     1       4.886   4.691  17.067  0.00  0.00    +0.000 C 
ATOM     21  C   UNL     1       6.359   4.526  16.717  0.00  0.00    +0.000 C 
ATOM     22  C   UNL     1       7.207   5.595  17.393  0.00  0.00    +0.000 C 
ATOM     23  C   UNL     1       7.008   5.520  18.899  0.00  0.00    +0.000 C 
ATOM     24  C   UNL     1       5.538   5.697  19.268  0.00  0.00    +0.000 C 
ENDBRANCH  16  19
ENDBRANCH   4  16
BRANCH   6  25
ATOM     25  N   UNL     1       0.970   8.695  21.451  0.00  0.00    +0.000 N 
ATOM     26  O   UNL     1       1.687   9.357  22.213  0.00  0.00    +0.000 OA
ATOM     27  O   UNL     1      -0.218   8.404  21.655  0.00  0.00    +0.000 OA
ENDBRANCH   6  25
TORSDOF 4
ENDMDL
MODEL 5
REMARK VINA RESULT:      -7.0      2.376      3.181
REMARK  Name = 
REMARK  5 active torsions:
REMARK  status: ('A' for Active; 'I' for Inactive)
REMARK    1  A    between atoms: C_1  and  C_2
REMARK    2  A    between atoms: N_7  and  C_8
REMARK    3  A    between atoms: C_11  and  S_12
REMARK    4  A    between atoms: S_12  and  N_15
REMARK    5  A    between atoms: C_22  and  N_23
REMARK                            x       y       z     vdW  Elec       q    Type
REMARK                         _______ _______ _______ _____ _____    ______ ____
ROOT
ATOM      1  C   UNL     1       1.410   9.734  19.491  0.00  0.00    +0.000 A 
ATOM      2  C   UNL     1       1.908   9.288  18.247  0.00  0.00    +0.000 A 
ATOM      3  C   UNL     1       2.318   7.964  18.019  0.00  0.00    +0.000 A 
ATOM      4  C   UNL     1       2.277   7.035  19.055  0.00  0.00    +0.000 A 
ATOM      5  C   UNL     1       1.774   7.409  20.294  0.00  0.00    +0.000 A 
ATOM      6  C   UNL     1       1.354   8.737  20.492  0.00  0.00    +0.000 A 
ENDROOT
BRANCH   1  13
ATOM      7  C   UNL     1      -0.528  15.815  18.732  0.00  0.00    +0.000 C 
ATOM      8  C   UNL     1       0.620  15.262  19.538  0.00  0.00    +0.000 C 
ATOM      9  O   UNL     1       1.264  15.993  20.289  0.00  0.00    +0.000 OA
ATOM     10  N   UNL     1       0.849  13.901  19.439  0.00  0.00    +0.000 N 
ATOM     11  C   UNL     1       1.884  13.282  20.276  0.00  0.00    +0.000 C 
ATOM     12  C   UNL     1       1.448  11.889  20.784  0.00  0.00    +0.000 C 
ATOM     13  N   UNL     1       1.010  11.050  19.643  0.00  0.00    +0.000 N 
ATOM     14  C   UNL     1      -0.077  11.669  18.857  0.00  0.00    +0.000 C 
ATOM     15  C   UNL     1       0.366  13.050  18.341  0.00  0.00    +0.000 C 
ENDBRANCH   1  13
BRANCH   4  16
ATOM     16  S   UNL     1       2.723   5.326  18.763  0.00  0.00    +0.000 S 
ATOM     17  O   UNL     1       2.771   4.678  20.057  0.00  0.00    +0.000 OA
ATOM     18  O   UNL     1       1.866   4.841  17.706  0.00  0.00    +0.000 OA
BRANCH  16  19
ATOM     19  N   UNL     1       4.323   5.427  18.157  0.00  0.00    +0.000 NA
ATOM     20  C   UNL     1       5.395   5.285  19.173  0.00  0.00    +0.000 C 
ATOM     21  C   UNL     1       6.761   5.627  18.589  0.00  0.00    +0.000 C 
ATOM     22  C   UNL     1       7.040   4.811  17.334  0.00  0.00    +0.000 C 
ATOM     23  C   UNL     1       5.945   5.069  16.310  0.00  0.00    +0.000 C 
ATOM     24  C   UNL     1       4.571   4.718  16.875  0.00  0.00    +0.000 C 
ENDBRANCH  16  19
ENDBRANCH   4  16
BRANCH   6  25
ATOM     25  N   UNL     1       0.767   8.995  21.795  0.00  0.00    +0.000 N 
ATOM     26  O   UNL     1       1.520   9.327  22.718  0.00  0.00    +0.000 OA
ATOM     27  O   UNL     1      -0.466   8.885  21.878  0.00  0.00    +0.000 OA
ENDBRANCH   6  25
TORSDOF 4
ENDMDL
MODEL 6
REMARK VINA RESULT:      -6.9      2.329      3.180
REMARK  Name = 
REMARK  5 active torsions:
REMARK  status: ('A' for Active; 'I' for Inactive)
REMARK    1  A    between atoms: C_1  and  C_2
REMARK    2  A    between atoms: N_7  and  C_8
REMARK    3  A    between atoms: C_11  and  S_12
REMARK    4  A    between atoms: S_12  and  N_15
REMARK    5  A    between atoms: C_22  and  N_23
REMARK                            x       y       z     vdW  Elec       q    Type
REMARK                         _______ _______ _______ _____ _____    ______ ____
ROOT
ATOM      1  C   UNL     1       1.071  10.097  20.033  0.00  0.00    +0.000 A 
ATOM      2  C   UNL     1       1.528   9.784  18.734  0.00  0.00    +0.000 A 
ATOM      3  C   UNL     1       2.021   8.517  18.383  0.00  0.00    +0.000 A 
ATOM      4  C   UNL     1       2.109   7.514  19.343  0.00  0.00    +0.000 A 
ATOM      5  C   UNL     1       1.652   7.755  20.632  0.00  0.00    +0.000 A 
ATOM      6  C   UNL     1       1.147   9.027  20.954  0.00  0.00    +0.000 A 
ENDROOT
BRANCH   1  13
ATOM      7  C   UNL     1      -2.270  15.576  20.397  0.00  0.00    +0.000 C 
ATOM      8  C   UNL     1      -0.801  15.357  20.135  0.00  0.00    +0.000 C 
ATOM      9  O   UNL     1      -0.027  16.312  20.090  0.00  0.00    +0.000 OA
ATOM     10  N   UNL     1      -0.379  14.044  20.026  0.00  0.00    +0.000 N 
ATOM     11  C   UNL     1       1.053  13.758  19.874  0.00  0.00    +0.000 C 
ATOM     12  C   UNL     1       1.469  12.497  20.665  0.00  0.00    +0.000 C 
ATOM     13  N   UNL     1       0.584  11.363  20.308  0.00  0.00    +0.000 N 
ATOM     14  C   UNL     1      -0.847  11.656  20.533  0.00  0.00    +0.000 C 
ATOM     15  C   UNL     1      -1.261  12.905  19.732  0.00  0.00    +0.000 C 
ENDBRANCH   1  13
BRANCH   4  16
ATOM     16  S   UNL     1       2.663   5.872  18.896  0.00  0.00    +0.000 S 
ATOM     17  O   UNL     1       2.569   5.057  20.089  0.00  0.00    +0.000 OA
ATOM     18  O   UNL     1       1.974   5.511  17.678  0.00  0.00    +0.000 OA
BRANCH  16  19
ATOM     19  N   UNL     1       4.323   6.093  18.531  0.00  0.00    +0.000 NA
ATOM     20  C   UNL     1       5.253   5.168  19.225  0.00  0.00    +0.000 C 
ATOM     21  C   UNL     1       6.704   5.592  19.030  0.00  0.00    +0.000 C 
ATOM     22  C   UNL     1       7.036   5.748  17.552  0.00  0.00    +0.000 C 
ATOM     23  C   UNL     1       6.096   6.768  16.928  0.00  0.00    +0.000 C 
ATOM     24  C   UNL     1       4.638   6.351  17.102  0.00  0.00    +0.000 C 
ENDBRANCH  16  19
ENDBRANCH   4  16
BRANCH   6  25
ATOM     25  N   UNL     1       0.618   9.142  22.302  0.00  0.00    +0.000 N 
ATOM     26  O   UNL     1       1.362   9.589  23.183  0.00  0.00    +0.000 OA
ATOM     27  O   UNL     1      -0.563   8.800  22.464  0.00  0.00    +0.000 OA
ENDBRANCH   6  25
TORSDOF 4
ENDMDL
MODEL 7
REMARK VINA RESULT:      -6.6      1.049      1.602
REMARK  Name = 
REMARK  5 active torsions:
REMARK  status: ('A' for Active; 'I' for Inactive)
REMARK    1  A    between atoms: C_1  and  C_2
REMARK    2  A    between atoms: N_7  and  C_8
REMARK    3  A    between atoms: C_11  and  S_12
REMARK    4  A    between atoms: S_12  and  N_15
REMARK    5  A    between atoms: C_22  and  N_23
REMARK                            x       y       z     vdW  Elec       q    Type
REMARK                         _______ _______ _______ _____ _____    ______ ____
ROOT
ATOM      1  C   UNL     1       0.899  10.071  19.985  0.00  0.00    +0.000 A 
ATOM      2  C   UNL     1       1.423   9.904  18.685  0.00  0.00    +0.000 A 
ATOM      3  C   UNL     1       2.050   8.721  18.260  0.00  0.00    +0.000 A 
ATOM      4  C   UNL     1       2.209   7.662  19.148  0.00  0.00    +0.000 A 
ATOM      5  C   UNL     1       1.693   7.758  20.434  0.00  0.00    +0.000 A 
ATOM      6  C   UNL     1       1.054   8.947  20.828  0.00  0.00    +0.000 A 
ENDROOT
BRANCH   1  13
ATOM      7  C   UNL     1      -2.985  15.151  20.628  0.00  0.00    +0.000 C 
ATOM      8  C   UNL     1      -1.496  15.099  20.398  0.00  0.00    +0.000 C 
ATOM      9  O   UNL     1      -0.821  16.126  20.445  0.00  0.00    +0.000 OA
ATOM     10  N   UNL     1      -0.941  13.845  20.211  0.00  0.00    +0.000 N 
ATOM     11  C   UNL     1       0.516  13.714  20.084  0.00  0.00    +0.000 C 
ATOM     12  C   UNL     1       1.037  12.446  20.797  0.00  0.00    +0.000 C 
ATOM     13  N   UNL     1       0.280  11.259  20.333  0.00  0.00    +0.000 N 
ATOM     14  C   UNL     1      -1.178  11.392  20.532  0.00  0.00    +0.000 C 
ATOM     15  C   UNL     1      -1.696  12.649  19.809  0.00  0.00    +0.000 C 
ENDBRANCH   1  13
BRANCH   4  16
ATOM     16  S   UNL     1       2.938   6.119  18.604  0.00  0.00    +0.000 S 
ATOM     17  O   UNL     1       2.499   5.906  17.241  0.00  0.00    +0.000 OA
ATOM     18  O   UNL     1       4.340   6.170  18.947  0.00  0.00    +0.000 OA
BRANCH  16  19
ATOM     19  N   UNL     1       2.182   4.945  19.598  0.00  0.00    +0.000 NA
ATOM     20  C   UNL     1       1.409   3.905  18.874  0.00  0.00    +0.000 C 
ATOM     21  C   UNL     1       0.583   3.059  19.835  0.00  0.00    +0.000 C 
ATOM     22  C   UNL     1       1.455   2.473  20.937  0.00  0.00    +0.000 C 
ATOM     23  C   UNL     1       2.150   3.600  21.685  0.00  0.00    +0.000 C 
ATOM     24  C   UNL     1       2.994   4.449  20.739  0.00  0.00    +0.000 C 
ENDBRANCH  16  19
ENDBRANCH   4  16
BRANCH   6  25
ATOM     25  N   UNL     1       0.476   8.907  22.160  0.00  0.00    +0.000 N 
ATOM     26  O   UNL     1      -0.622   8.356  22.303  0.00  0.00    +0.000 OA
ATOM     27  O   UNL     1       1.150   9.412  23.071  0.00  0.00    +0.000 OA
ENDBRANCH   6  25
TORSDOF 4
ENDMDL
MODEL 8
REMARK VINA RESULT:      -6.6      2.447      3.207
REMARK  Name = 
REMARK  5 active torsions:
REMARK  status: ('A' for Active; 'I' for Inactive)
REMARK    1  A    between atoms: C_1  and  C_2
REMARK    2  A    between atoms: N_7  and  C_8
REMARK    3  A    between atoms: C_11  and  S_12
REMARK    4  A    between atoms: S_12  and  N_15
REMARK    5  A    between atoms: C_22  and  N_23
REMARK                            x       y       z     vdW  Elec       q    Type
REMARK                         _______ _______ _______ _____ _____    ______ ____
ROOT
ATOM      1  C   UNL     1       1.410   9.874  19.477  0.00  0.00    +0.000 A 
ATOM      2  C   UNL     1       1.833   9.400  18.216  0.00  0.00    +0.000 A 
ATOM      3  C   UNL     1       2.189   8.061  17.983  0.00  0.00    +0.000 A 
ATOM      4  C   UNL     1       2.167   7.144  19.029  0.00  0.00    +0.000 A 
ATOM      5  C   UNL     1       1.736   7.545  20.287  0.00  0.00    +0.000 A 
ATOM      6  C   UNL     1       1.370   8.888  20.490  0.00  0.00    +0.000 A 
ENDROOT
BRANCH   1  13
ATOM      7  C   UNL     1      -0.743  15.896  18.846  0.00  0.00    +0.000 C 
ATOM      8  C   UNL     1       0.605  15.396  19.299  0.00  0.00    +0.000 C 
ATOM      9  O   UNL     1       1.441  16.179  19.748  0.00  0.00    +0.000 OA
ATOM     10  N   UNL     1       0.809  14.029  19.249  0.00  0.00    +0.000 N 
ATOM     11  C   UNL     1       2.061  13.468  19.772  0.00  0.00    +0.000 C 
ATOM     12  C   UNL     1       1.822  12.130  20.507  0.00  0.00    +0.000 C 
ATOM     13  N   UNL     1       1.061  11.203  19.634  0.00  0.00    +0.000 N 
ATOM     14  C   UNL     1      -0.225  11.770  19.176  0.00  0.00    +0.000 C 
ATOM     15  C   UNL     1       0.019  13.096  18.432  0.00  0.00    +0.000 C 
ENDBRANCH   1  13
BRANCH   4  16
ATOM     16  S   UNL     1       2.543   5.419  18.735  0.00  0.00    +0.000 S 
ATOM     17  O   UNL     1       2.486   4.751  20.018  0.00  0.00    +0.000 OA
ATOM     18  O   UNL     1       1.723   4.992  17.624  0.00  0.00    +0.000 OA
BRANCH  16  19
ATOM     19  N   UNL     1       4.177   5.446  18.219  0.00  0.00    +0.000 NA
ATOM     20  C   UNL     1       4.447   6.267  17.012  0.00  0.00    +0.000 C 
ATOM     21  C   UNL     1       5.860   6.039  16.491  0.00  0.00    +0.000 C 
ATOM     22  C   UNL     1       6.892   6.265  17.589  0.00  0.00    +0.000 C 
ATOM     23  C   UNL     1       6.600   5.335  18.756  0.00  0.00    +0.000 C 
ATOM     24  C   UNL     1       5.191   5.560  19.299  0.00  0.00    +0.000 C 
ENDBRANCH  16  19
ENDBRANCH   4  16
BRANCH   6  25
ATOM     25  N   UNL     1       0.854   9.177  21.816  0.00  0.00    +0.000 N 
ATOM     26  O   UNL     1      -0.371   9.130  21.988  0.00  0.00    +0.000 OA
ATOM     27  O   UNL     1       1.693   9.428  22.694  0.00  0.00    +0.000 OA
ENDBRANCH   6  25
TORSDOF 4
ENDMDL
MODEL 9
REMARK VINA RESULT:      -6.6      2.650      3.363
REMARK  Name = 
REMARK  5 active torsions:
REMARK  status: ('A' for Active; 'I' for Inactive)
REMARK    1  A    between atoms: C_1  and  C_2
REMARK    2  A    between atoms: N_7  and  C_8
REMARK    3  A    between atoms: C_11  and  S_12
REMARK    4  A    between atoms: S_12  and  N_15
REMARK    5  A    between atoms: C_22  and  N_23
REMARK                            x       y       z     vdW  Elec       q    Type
REMARK                         _______ _______ _______ _____ _____    ______ ____
ROOT
ATOM      1  C   UNL     1       1.998   8.602  18.699  0.00  0.00    +0.000 A 
ATOM      2  C   UNL     1       2.776   8.264  17.570  0.00  0.00    +0.000 A 
ATOM      3  C   UNL     1       3.581   7.115  17.514  0.00  0.00    +0.000 A 
ATOM      4  C   UNL     1       3.665   6.270  18.616  0.00  0.00    +0.000 A 
ATOM      5  C   UNL     1       2.905   6.537  19.747  0.00  0.00    +0.000 A 
ATOM      6  C   UNL     1       2.093   7.685  19.771  0.00  0.00    +0.000 A 
ENDROOT
BRANCH   1  13
ATOM      7  C   UNL     1      -0.638  14.398  19.576  0.00  0.00    +0.000 C 
ATOM      8  C   UNL     1      -1.272  13.031  19.635  0.00  0.00    +0.000 C 
ATOM      9  O   UNL     1      -2.492  12.914  19.743  0.00  0.00    +0.000 OA
ATOM     10  N   UNL     1      -0.424  11.948  19.488  0.00  0.00    +0.000 N 
ATOM     11  C   UNL     1      -0.989  10.593  19.433  0.00  0.00    +0.000 C 
ATOM     12  C   UNL     1      -0.242   9.706  18.412  0.00  0.00    +0.000 C 
ATOM     13  N   UNL     1       1.215   9.743  18.683  0.00  0.00    +0.000 N 
ATOM     14  C   UNL     1       1.769  11.113  18.669  0.00  0.00    +0.000 C 
ATOM     15  C   UNL     1       1.030  11.991  19.697  0.00  0.00    +0.000 C 
ENDBRANCH   1  13
BRANCH   4  16
ATOM     16  S   UNL     1       4.626   4.762  18.536  0.00  0.00    +0.000 S 
ATOM     17  O   UNL     1       5.680   4.882  19.521  0.00  0.00    +0.000 OA
ATOM     18  O   UNL     1       3.689   3.663  18.561  0.00  0.00    +0.000 OA
BRANCH  16  19
ATOM     19  N   UNL     1       5.341   4.824  16.979  0.00  0.00    +0.000 NA
ATOM     20  C   UNL     1       6.818   4.680  16.955  0.00  0.00    +0.000 C 
ATOM     21  C   UNL     1       7.382   4.987  15.573  0.00  0.00    +0.000 C 
ATOM     22  C   UNL     1       6.700   4.147  14.503  0.00  0.00    +0.000 C 
ATOM     23  C   UNL     1       5.202   4.407  14.534  0.00  0.00    +0.000 C 
ATOM     24  C   UNL     1       4.618   4.090  15.909  0.00  0.00    +0.000 C 
ENDBRANCH  16  19
ENDBRANCH   4  16
BRANCH   6  25
ATOM     25  N   UNL     1       1.276   7.820  20.965  0.00  0.00    +0.000 N 
ATOM     26  O   UNL     1       1.435   8.825  21.669  0.00  0.00    +0.000 OA
ATOM     27  O   UNL     1       0.453   6.917  21.178  0.00  0.00    +0.000 OA
ENDBRANCH   6  25
TORSDOF 4
ENDMDL
