MODEL 1
REMARK VINA RESULT:      -8.2      0.000      0.000
REMARK  Name = 
REMARK  9 active torsions:
REMARK  status: ('A' for Active; 'I' for Inactive)
REMARK    1  A    between atoms: C_1  and  C_2
REMARK    2  A    between atoms: C_5  and  N_6
REMARK    3  A    between atoms: C_7  and  C_9
REMARK    4  A    between atoms: C_9  and  C_10
REMARK    5  A    between atoms: C_10  and  C_11
REMARK    6  A    between atoms: C_18  and  N_19
REMARK    7  A    between atoms: C_20  and  C_22
REMARK    8  A    between atoms: C_25  and  C_26
REMARK    9  A    between atoms: C_26  and  O_27
REMARK                            x       y       z     vdW  Elec       q    Type
REMARK                         _______ _______ _______ _____ _____    ______ ____
ROOT
ATOM      1  C   UNL     1       1.549   3.243  20.935  0.00  0.00    +0.000 C 
ATOM      2  C   UNL     1       2.500   3.565  19.815  0.00  0.00    +0.000 A 
ATOM      3  C   UNL     1       3.235   2.481  19.309  0.00  0.00    +0.000 A 
ATOM      4  C   UNL     1       4.024   2.609  18.172  0.00  0.00    +0.000 A 
ATOM      5  C   UNL     1       4.111   3.825  17.511  0.00  0.00    +0.000 A 
ATOM      6  C   UNL     1       3.435   4.930  18.041  0.00  0.00    +0.000 A 
ATOM      7  C   UNL     1       2.640   4.836  19.210  0.00  0.00    +0.000 A 
ENDROOT
BRANCH   5   8
ATOM      8  N   UNL     1       4.846   3.972  16.314  0.00  0.00    +0.000 N 
ATOM      9  C   UNL     1       6.179   4.343  16.240  0.00  0.00    +0.000 C 
ATOM     10  O   UNL     1       6.894   4.694  17.174  0.00  0.00    +0.000 OA
ATOM     11  H   UNL     1       4.338   3.828  15.450  0.00  0.00    +0.000 HD
BRANCH   9  12
ATOM     12  C   UNL     1       6.724   4.390  14.831  0.00  0.00    +0.000 C 
BRANCH  12  13
ATOM     13  C   UNL     1       5.850   3.514  13.939  0.00  0.00    +0.000 C 
BRANCH  13  14
ATOM     14  C   UNL     1       5.739   3.970  12.470  0.00  0.00    +0.000 C 
ATOM     15  C   UNL     1       7.139   3.998  11.825  0.00  0.00    +0.000 C 
ATOM     16  C   UNL     1       7.712   2.599  11.577  0.00  0.00    +0.000 C 
ATOM     17  C   UNL     1       6.742   1.705  10.808  0.00  0.00    +0.000 C 
ATOM     18  C   UNL     1       5.346   1.688  11.427  0.00  0.00    +0.000 C 
ATOM     19  C   UNL     1       4.807   3.104  11.610  0.00  0.00    +0.000 C 
ENDBRANCH  13  14
ENDBRANCH  12  13
ENDBRANCH   9  12
ENDBRANCH   5   8
BRANCH   7  20
ATOM     20  N   UNL     1       2.034   5.996  19.765  0.00  0.00    +0.000 N 
ATOM     21  C   UNL     1       2.244   7.302  19.326  0.00  0.00    +0.000 C 
ATOM     22  O   UNL     1       2.888   7.638  18.343  0.00  0.00    +0.000 OA
ATOM     23  H   UNL     1       1.422   5.841  20.554  0.00  0.00    +0.000 HD
BRANCH  21  24
ATOM     24  C   UNL     1       1.579   8.405  20.090  0.00  0.00    +0.000 A 
ATOM     25  C   UNL     1       1.069   9.489  19.361  0.00  0.00    +0.000 A 
ATOM     26  C   UNL     1       0.299  10.469  19.989  0.00  0.00    +0.000 A 
ATOM     27  C   UNL     1      -0.007  10.378  21.350  0.00  0.00    +0.000 A 
ATOM     28  C   UNL     1       0.563   9.327  22.090  0.00  0.00    +0.000 A 
ATOM     29  C   UNL     1       1.350   8.348  21.471  0.00  0.00    +0.000 A 
BRANCH  27  30
ATOM     30  C   UNL     1      -0.896  11.416  21.983  0.00  0.00    +0.000 C 
BRANCH  30  31
ATOM     31  O   UNL     1      -1.003  11.236  23.390  0.00  0.00    +0.000 OA
ATOM     32  H   UNL     1      -1.795  11.725  23.673  0.00  0.00    +0.000 HD
ENDBRANCH  30  31
ENDBRANCH  27  30
ENDBRANCH  21  24
ENDBRANCH   7  20
TORSDOF 8
ENDMDL
MODEL 2
REMARK VINA RESULT:      -7.8      1.238      1.325
REMARK  Name = 
REMARK  9 active torsions:
REMARK  status: ('A' for Active; 'I' for Inactive)
REMARK    1  A    between atoms: C_1  and  C_2
REMARK    2  A    between atoms: C_5  and  N_6
REMARK    3  A    between atoms: C_7  and  C_9
REMARK    4  A    between atoms: C_9  and  C_10
REMARK    5  A    between atoms: C_10  and  C_11
REMARK    6  A    between atoms: C_18  and  N_19
REMARK    7  A    between atoms: C_20  and  C_22
REMARK    8  A    between atoms: C_25  and  C_26
REMARK    9  A    between atoms: C_26  and  O_27
REMARK                            x       y       z     vdW  Elec       q    Type
REMARK                         _______ _______ _______ _____ _____    ______ ____
ROOT
ATOM      1  C   UNL     1       1.964   4.232  20.996  0.00  0.00    +0.000 C 
ATOM      2  C   UNL     1       2.884   4.405  19.820  0.00  0.00    +0.000 A 
ATOM      3  C   UNL     1       3.771   3.342  19.579  0.00  0.00    +0.000 A 
ATOM      4  C   UNL     1       4.559   3.303  18.434  0.00  0.00    +0.000 A 
ATOM      5  C   UNL     1       4.493   4.326  17.500  0.00  0.00    +0.000 A 
ATOM      6  C   UNL     1       3.661   5.422  17.760  0.00  0.00    +0.000 A 
ATOM      7  C   UNL     1       2.862   5.501  18.927  0.00  0.00    +0.000 A 
ENDROOT
BRANCH   5   8
ATOM      8  N   UNL     1       5.225   4.283  16.294  0.00  0.00    +0.000 N 
ATOM      9  C   UNL     1       6.436   4.919  16.076  0.00  0.00    +0.000 C 
ATOM     10  O   UNL     1       7.008   5.689  16.844  0.00  0.00    +0.000 OA
ATOM     11  H   UNL     1       4.803   3.775  15.526  0.00  0.00    +0.000 HD
BRANCH   9  12
ATOM     12  C   UNL     1       7.018   4.675  14.702  0.00  0.00    +0.000 C 
BRANCH  12  13
ATOM     13  C   UNL     1       6.094   3.729  13.941  0.00  0.00    +0.000 C 
BRANCH  13  14
ATOM     14  C   UNL     1       5.860   4.084  12.459  0.00  0.00    +0.000 C 
ATOM     15  C   UNL     1       7.203   4.076  11.702  0.00  0.00    +0.000 C 
ATOM     16  C   UNL     1       7.769   2.667  11.502  0.00  0.00    +0.000 C 
ATOM     17  C   UNL     1       6.751   1.717  10.876  0.00  0.00    +0.000 C 
ATOM     18  C   UNL     1       5.410   1.734  11.606  0.00  0.00    +0.000 C 
ATOM     19  C   UNL     1       4.871   3.156  11.737  0.00  0.00    +0.000 C 
ENDBRANCH  13  14
ENDBRANCH  12  13
ENDBRANCH   9  12
ENDBRANCH   5   8
BRANCH   7  20
ATOM     20  N   UNL     1       2.092   6.665  19.195  0.00  0.00    +0.000 N 
ATOM     21  C   UNL     1       2.323   7.927  18.650  0.00  0.00    +0.000 C 
ATOM     22  O   UNL     1       3.144   8.200  17.788  0.00  0.00    +0.000 OA
ATOM     23  H   UNL     1       1.334   6.551  19.855  0.00  0.00    +0.000 HD
BRANCH  21  24
ATOM     24  C   UNL     1       1.454   9.053  19.117  0.00  0.00    +0.000 A 
ATOM     25  C   UNL     1       1.069  10.016  18.173  0.00  0.00    +0.000 A 
ATOM     26  C   UNL     1       0.134  10.998  18.499  0.00  0.00    +0.000 A 
ATOM     27  C   UNL     1      -0.465  11.028  19.762  0.00  0.00    +0.000 A 
ATOM     28  C   UNL     1      -0.025  10.104  20.726  0.00  0.00    +0.000 A 
ATOM     29  C   UNL     1       0.925   9.124  20.412  0.00  0.00    +0.000 A 
BRANCH  27  30
ATOM     30  C   UNL     1      -1.520  12.061  20.060  0.00  0.00    +0.000 C 
BRANCH  30  31
ATOM     31  O   UNL     1      -1.770  12.902  18.941  0.00  0.00    +0.000 OA
ATOM     32  H   UNL     1      -0.991  13.478  18.848  0.00  0.00    +0.000 HD
ENDBRANCH  30  31
ENDBRANCH  27  30
ENDBRANCH  21  24
ENDBRANCH   7  20
TORSDOF 8
ENDMDL
MODEL 3
REMARK VINA RESULT:      -7.8      1.406      1.998
REMARK  Name = 
REMARK  9 active torsions:
REMARK  status: ('A' for Active; 'I' for Inactive)
REMARK    1  A    between atoms: C_1  and  C_2
REMARK    2  A    between atoms: C_5  and  N_6
REMARK    3  A    between atoms: C_7  and  C_9
REMARK    4  A    between atoms: C_9  and  C_10
REMARK    5  A    between atoms: C_10  and  C_11
REMARK    6  A    between atoms: C_18  and  N_19
REMARK    7  A    between atoms: C_20  and  C_22
REMARK    8  A    between atoms: C_25  and  C_26
REMARK    9  A    between atoms: C_26  and  O_27
REMARK                            x       y       z     vdW  Elec       q    Type
REMARK                         _______ _______ _______ _____ _____    ______ ____
ROOT
ATOM      1  C   UNL     1       1.132   3.269  21.306  0.00  0.00    +0.000 C 
ATOM      2  C   UNL     1       2.434   3.582  20.622  0.00  0.00    +0.000 A 
ATOM      3  C   UNL     1       3.221   2.472  20.272  0.00  0.00    +0.000 A 
ATOM      4  C   UNL     1       4.364   2.611  19.494  0.00  0.00    +0.000 A 
ATOM      5  C   UNL     1       4.763   3.863  19.049  0.00  0.00    +0.000 A 
ATOM      6  C   UNL     1       4.024   4.984  19.444  0.00  0.00    +0.000 A 
ATOM      7  C   UNL     1       2.865   4.877  20.253  0.00  0.00    +0.000 A 
ENDROOT
BRANCH   5   8
ATOM      8  N   UNL     1       5.878   4.033  18.199  0.00  0.00    +0.000 N 
ATOM      9  C   UNL     1       7.040   4.706  18.538  0.00  0.00    +0.000 C 
ATOM     10  O   UNL     1       7.246   5.338  19.570  0.00  0.00    +0.000 OA
ATOM     11  H   UNL     1       5.793   3.660  17.261  0.00  0.00    +0.000 HD
BRANCH   9  12
ATOM     12  C   UNL     1       8.087   4.706  17.447  0.00  0.00    +0.000 C 
BRANCH  12  13
ATOM     13  C   UNL     1       7.445   4.218  16.152  0.00  0.00    +0.000 C 
BRANCH  13  14
ATOM     14  C   UNL     1       7.007   5.326  15.175  0.00  0.00    +0.000 C 
ATOM     15  C   UNL     1       7.569   5.034  13.769  0.00  0.00    +0.000 C 
ATOM     16  C   UNL     1       6.878   3.852  13.082  0.00  0.00    +0.000 C 
ATOM     17  C   UNL     1       5.358   3.993  13.076  0.00  0.00    +0.000 C 
ATOM     18  C   UNL     1       4.794   4.304  14.460  0.00  0.00    +0.000 C 
ATOM     19  C   UNL     1       5.486   5.517  15.078  0.00  0.00    +0.000 C 
ENDBRANCH  13  14
ENDBRANCH  12  13
ENDBRANCH   9  12
ENDBRANCH   5   8
BRANCH   7  20
ATOM     20  N   UNL     1       2.188   6.043  20.700  0.00  0.00    +0.000 N 
ATOM     21  C   UNL     1       2.043   7.221  19.968  0.00  0.00    +0.000 C 
ATOM     22  O   UNL     1       2.376   7.392  18.805  0.00  0.00    +0.000 OA
ATOM     23  H   UNL     1       1.807   6.002  21.635  0.00  0.00    +0.000 HD
BRANCH  21  24
ATOM     24  C   UNL     1       1.366   8.375  20.639  0.00  0.00    +0.000 A 
ATOM     25  C   UNL     1       0.785   9.357  19.824  0.00  0.00    +0.000 A 
ATOM     26  C   UNL     1       0.003  10.370  20.378  0.00  0.00    +0.000 A 
ATOM     27  C   UNL     1      -0.246  10.415  21.752  0.00  0.00    +0.000 A 
ATOM     28  C   UNL     1       0.395   9.470  22.573  0.00  0.00    +0.000 A 
ATOM     29  C   UNL     1       1.194   8.458  22.027  0.00  0.00    +0.000 A 
BRANCH  27  30
ATOM     30  C   UNL     1      -1.149  11.484  22.311  0.00  0.00    +0.000 C 
BRANCH  30  31
ATOM     31  O   UNL     1      -1.899  11.015  23.424  0.00  0.00    +0.000 OA
ATOM     32  H   UNL     1      -2.750  10.699  23.073  0.00  0.00    +0.000 HD
ENDBRANCH  30  31
ENDBRANCH  27  30
ENDBRANCH  21  24
ENDBRANCH   7  20
TORSDOF 8
ENDMDL
MODEL 4
REMARK VINA RESULT:      -7.7      4.487     11.645
REMARK  Name = 
REMARK  9 active torsions:
REMARK  status: ('A' for Active; 'I' for Inactive)
REMARK    1  A    between atoms: C_1  and  C_2
REMARK    2  A    between atoms: C_5  and  N_6
REMARK    3  A    between atoms: C_7  and  C_9
REMARK    4  A    between atoms: C_9  and  C_10
REMARK    5  A    between atoms: C_10  and  C_11
REMARK    6  A    between atoms: C_18  and  N_19
REMARK    7  A    between atoms: C_20  and  C_22
REMARK    8  A    between atoms: C_25  and  C_26
REMARK    9  A    between atoms: C_26  and  O_27
REMARK                            x       y       z     vdW  Elec       q    Type
REMARK                         _______ _______ _______ _____ _____    ______ ____
ROOT
ATOM      1  C   UNL     1       2.428  12.272  18.692  0.00  0.00    +0.000 C 
ATOM      2  C   UNL     1       0.952  11.987  18.714  0.00  0.00    +0.000 A 
ATOM      3  C   UNL     1       0.124  13.083  19.012  0.00  0.00    +0.000 A 
ATOM      4  C   UNL     1      -1.259  12.995  18.906  0.00  0.00    +0.000 A 
ATOM      5  C   UNL     1      -1.859  11.809  18.510  0.00  0.00    +0.000 A 
ATOM      6  C   UNL     1      -1.050  10.691  18.273  0.00  0.00    +0.000 A 
ATOM      7  C   UNL     1       0.361  10.744  18.392  0.00  0.00    +0.000 A 
ENDROOT
BRANCH   5   8
ATOM      8  N   UNL     1      -3.255  11.705  18.324  0.00  0.00    +0.000 N 
ATOM      9  C   UNL     1      -3.877  11.436  17.116  0.00  0.00    +0.000 C 
ATOM     10  O   UNL     1      -3.337  11.348  16.017  0.00  0.00    +0.000 OA
ATOM     11  H   UNL     1      -3.834  11.877  19.136  0.00  0.00    +0.000 HD
BRANCH   9  12
ATOM     12  C   UNL     1      -5.384  11.345  17.210  0.00  0.00    +0.000 C 
BRANCH  12  13
ATOM     13  C   UNL     1      -5.763  10.986  18.643  0.00  0.00    +0.000 C 
BRANCH  13  14
ATOM     14  C   UNL     1      -7.166  11.444  19.089  0.00  0.00    +0.000 C 
ATOM     15  C   UNL     1      -7.290  11.327  20.622  0.00  0.00    +0.000 C 
ATOM     16  C   UNL     1      -6.469  12.380  21.371  0.00  0.00    +0.000 C 
ATOM     17  C   UNL     1      -6.755  13.797  20.877  0.00  0.00    +0.000 C 
ATOM     18  C   UNL     1      -6.655  13.917  19.358  0.00  0.00    +0.000 C 
ATOM     19  C   UNL     1      -7.527  12.875  18.664  0.00  0.00    +0.000 C 
ENDBRANCH  13  14
ENDBRANCH  12  13
ENDBRANCH   9  12
ENDBRANCH   5   8
BRANCH   7  20
ATOM     20  N   UNL     1       1.143   9.569  18.223  0.00  0.00    +0.000 N 
ATOM     21  C   UNL     1       1.521   8.699  19.244  0.00  0.00    +0.000 C 
ATOM     22  O   UNL     1       1.154   8.751  20.408  0.00  0.00    +0.000 OA
ATOM     23  H   UNL     1       1.458   9.380  17.281  0.00  0.00    +0.000 HD
BRANCH  21  24
ATOM     24  C   UNL     1       2.417   7.555  18.883  0.00  0.00    +0.000 A 
ATOM     25  C   UNL     1       3.199   7.677  17.725  0.00  0.00    +0.000 A 
ATOM     26  C   UNL     1       4.169   6.723  17.418  0.00  0.00    +0.000 A 
ATOM     27  C   UNL     1       4.407   5.641  18.271  0.00  0.00    +0.000 A 
ATOM     28  C   UNL     1       3.574   5.486  19.394  0.00  0.00    +0.000 A 
ATOM     29  C   UNL     1       2.587   6.430  19.701  0.00  0.00    +0.000 A 
BRANCH  27  30
ATOM     30  C   UNL     1       5.507   4.665  17.945  0.00  0.00    +0.000 C 
BRANCH  30  31
ATOM     31  O   UNL     1       5.650   3.671  18.953  0.00  0.00    +0.000 OA
ATOM     32  H   UNL     1       6.501   3.842  19.393  0.00  0.00    +0.000 HD
ENDBRANCH  30  31
ENDBRANCH  27  30
ENDBRANCH  21  24
ENDBRANCH   7  20
TORSDOF 8
ENDMDL
MODEL 5
REMARK VINA RESULT:      -7.7      1.983     10.053
REMARK  Name = 
REMARK  9 active torsions:
REMARK  status: ('A' for Active; 'I' for Inactive)
REMARK    1  A    between atoms: C_1  and  C_2
REMARK    2  A    between atoms: C_5  and  N_6
REMARK    3  A    between atoms: C_7  and  C_9
REMARK    4  A    between atoms: C_9  and  C_10
REMARK    5  A    between atoms: C_10  and  C_11
REMARK    6  A    between atoms: C_18  and  N_19
REMARK    7  A    between atoms: C_20  and  C_22
REMARK    8  A    between atoms: C_25  and  C_26
REMARK    9  A    between atoms: C_26  and  O_27
REMARK                            x       y       z     vdW  Elec       q    Type
REMARK                         _______ _______ _______ _____ _____    ______ ____
ROOT
ATOM      1  C   UNL     1       2.324   1.941  18.532  0.00  0.00    +0.000 C 
ATOM      2  C   UNL     1       2.110   3.319  19.095  0.00  0.00    +0.000 A 
ATOM      3  C   UNL     1       1.128   3.423  20.094  0.00  0.00    +0.000 A 
ATOM      4  C   UNL     1       0.946   4.600  20.809  0.00  0.00    +0.000 A 
ATOM      5  C   UNL     1       1.730   5.713  20.543  0.00  0.00    +0.000 A 
ATOM      6  C   UNL     1       2.668   5.642  19.507  0.00  0.00    +0.000 A 
ATOM      7  C   UNL     1       2.863   4.463  18.746  0.00  0.00    +0.000 A 
ENDROOT
BRANCH   5   8
ATOM      8  N   UNL     1       1.620   6.901  21.298  0.00  0.00    +0.000 N 
ATOM      9  C   UNL     1       1.450   8.168  20.764  0.00  0.00    +0.000 C 
ATOM     10  O   UNL     1       1.470   8.471  19.574  0.00  0.00    +0.000 OA
ATOM     11  H   UNL     1       1.709   6.810  22.302  0.00  0.00    +0.000 HD
BRANCH   9  12
ATOM     12  C   UNL     1       1.327   9.259  21.804  0.00  0.00    +0.000 C 
BRANCH  12  13
ATOM     13  C   UNL     1       0.827  10.530  21.123  0.00  0.00    +0.000 C 
BRANCH  13  14
ATOM     14  C   UNL     1      -0.704  10.712  21.107  0.00  0.00    +0.000 C 
ATOM     15  C   UNL     1      -1.180  11.241  22.475  0.00  0.00    +0.000 C 
ATOM     16  C   UNL     1      -0.788  12.702  22.720  0.00  0.00    +0.000 C 
ATOM     17  C   UNL     1      -1.210  13.615  21.572  0.00  0.00    +0.000 C 
ATOM     18  C   UNL     1      -0.761  13.088  20.211  0.00  0.00    +0.000 C 
ATOM     19  C   UNL     1      -1.216  11.646  20.001  0.00  0.00    +0.000 C 
ENDBRANCH  13  14
ENDBRANCH  12  13
ENDBRANCH   9  12
ENDBRANCH   5   8
BRANCH   7  20
ATOM     20  N   UNL     1       3.768   4.454  17.650  0.00  0.00    +0.000 N 
ATOM     21  C   UNL     1       5.155   4.364  17.750  0.00  0.00    +0.000 C 
ATOM     22  O   UNL     1       5.793   4.173  18.775  0.00  0.00    +0.000 OA
ATOM     23  H   UNL     1       3.352   4.544  16.733  0.00  0.00    +0.000 HD
BRANCH  21  24
ATOM     24  C   UNL     1       5.949   4.454  16.484  0.00  0.00    +0.000 A 
ATOM     25  C   UNL     1       5.443   3.807  15.347  0.00  0.00    +0.000 A 
ATOM     26  C   UNL     1       6.045   3.982  14.101  0.00  0.00    +0.000 A 
ATOM     27  C   UNL     1       7.146   4.829  13.949  0.00  0.00    +0.000 A 
ATOM     28  C   UNL     1       7.692   5.421  15.102  0.00  0.00    +0.000 A 
ATOM     29  C   UNL     1       7.104   5.238  16.360  0.00  0.00    +0.000 A 
BRANCH  27  30
ATOM     30  C   UNL     1       7.732   5.049  12.579  0.00  0.00    +0.000 C 
BRANCH  30  31
ATOM     31  O   UNL     1       7.205   4.136  11.625  0.00  0.00    +0.000 OA
ATOM     32  H   UNL     1       7.919   3.509  11.417  0.00  0.00    +0.000 HD
ENDBRANCH  30  31
ENDBRANCH  27  30
ENDBRANCH  21  24
ENDBRANCH   7  20
TORSDOF 8
ENDMDL
MODEL 6
REMARK VINA RESULT:      -7.7      4.512     11.712
REMARK  Name = 
REMARK  9 active torsions:
REMARK  status: ('A' for Active; 'I' for Inactive)
REMARK    1  A    between atoms: C_1  and  C_2
REMARK    2  A    between atoms: C_5  and  N_6
REMARK    3  A    between atoms: C_7  and  C_9
REMARK    4  A    between atoms: C_9  and  C_10
REMARK    5  A    between atoms: C_10  and  C_11
REMARK    6  A    between atoms: C_18  and  N_19
REMARK    7  A    between atoms: C_20  and  C_22
REMARK    8  A    between atoms: C_25  and  C_26
REMARK    9  A    between atoms: C_26  and  O_27
REMARK                            x       y       z     vdW  Elec       q    Type
REMARK                         _______ _______ _______ _____ _____    ______ ____
ROOT
ATOM      1  C   UNL     1       2.517  11.986  18.324  0.00  0.00    +0.000 C 
ATOM      2  C   UNL     1       1.032  11.778  18.434  0.00  0.00    +0.000 A 
ATOM      3  C   UNL     1       0.264  12.944  18.590  0.00  0.00    +0.000 A 
ATOM      4  C   UNL     1      -1.124  12.907  18.542  0.00  0.00    +0.000 A 
ATOM      5  C   UNL     1      -1.789  11.706  18.346  0.00  0.00    +0.000 A 
ATOM      6  C   UNL     1      -1.038  10.528  18.254  0.00  0.00    +0.000 A 
ATOM      7  C   UNL     1       0.378  10.530  18.320  0.00  0.00    +0.000 A 
ENDROOT
BRANCH   5   8
ATOM      8  N   UNL     1      -3.194  11.642  18.221  0.00  0.00    +0.000 N 
ATOM      9  C   UNL     1      -3.876  11.410  17.038  0.00  0.00    +0.000 C 
ATOM     10  O   UNL     1      -3.388  11.325  15.914  0.00  0.00    +0.000 OA
ATOM     11  H   UNL     1      -3.732  11.817  19.061  0.00  0.00    +0.000 HD
BRANCH   9  12
ATOM     12  C   UNL     1      -5.379  11.358  17.198  0.00  0.00    +0.000 C 
BRANCH  12  13
ATOM     13  C   UNL     1      -5.711  11.301  18.686  0.00  0.00    +0.000 C 
BRANCH  13  14
ATOM     14  C   UNL     1      -7.188  11.560  19.043  0.00  0.00    +0.000 C 
ATOM     15  C   UNL     1      -7.423  11.262  20.538  0.00  0.00    +0.000 C 
ATOM     16  C   UNL     1      -6.788  12.304  21.463  0.00  0.00    +0.000 C 
ATOM     17  C   UNL     1      -7.190  13.730  21.091  0.00  0.00    +0.000 C 
ATOM     18  C   UNL     1      -6.981  14.028  19.609  0.00  0.00    +0.000 C 
ATOM     19  C   UNL     1      -7.671  12.985  18.734  0.00  0.00    +0.000 C 
ENDBRANCH  13  14
ENDBRANCH  12  13
ENDBRANCH   9  12
ENDBRANCH   5   8
BRANCH   7  20
ATOM     20  N   UNL     1       1.102   9.307  18.304  0.00  0.00    +0.000 N 
ATOM     21  C   UNL     1       1.510   8.598  19.432  0.00  0.00    +0.000 C 
ATOM     22  O   UNL     1       1.220   8.856  20.591  0.00  0.00    +0.000 OA
ATOM     23  H   UNL     1       1.350   8.953  17.391  0.00  0.00    +0.000 HD
BRANCH  21  24
ATOM     24  C   UNL     1       2.337   7.369  19.216  0.00  0.00    +0.000 A 
ATOM     25  C   UNL     1       2.161   6.298  20.104  0.00  0.00    +0.000 A 
ATOM     26  C   UNL     1       2.778   5.069  19.868  0.00  0.00    +0.000 A 
ATOM     27  C   UNL     1       3.559   4.866  18.727  0.00  0.00    +0.000 A 
ATOM     28  C   UNL     1       3.788   5.962  17.876  0.00  0.00    +0.000 A 
ATOM     29  C   UNL     1       3.186   7.203  18.114  0.00  0.00    +0.000 A 
BRANCH  27  30
ATOM     30  C   UNL     1       4.157   3.508  18.467  0.00  0.00    +0.000 C 
BRANCH  30  31
ATOM     31  O   UNL     1       5.541   3.467  18.792  0.00  0.00    +0.000 OA
ATOM     32  H   UNL     1       5.788   2.526  18.834  0.00  0.00    +0.000 HD
ENDBRANCH  30  31
ENDBRANCH  27  30
ENDBRANCH  21  24
ENDBRANCH   7  20
TORSDOF 8
ENDMDL
MODEL 7
REMARK VINA RESULT:      -7.6      3.662      6.300
REMARK  Name = 
REMARK  9 active torsions:
REMARK  status: ('A' for Active; 'I' for Inactive)
REMARK    1  A    between atoms: C_1  and  C_2
REMARK    2  A    between atoms: C_5  and  N_6
REMARK    3  A    between atoms: C_7  and  C_9
REMARK    4  A    between atoms: C_9  and  C_10
REMARK    5  A    between atoms: C_10  and  C_11
REMARK    6  A    between atoms: C_18  and  N_19
REMARK    7  A    between atoms: C_20  and  C_22
REMARK    8  A    between atoms: C_25  and  C_26
REMARK    9  A    between atoms: C_26  and  O_27
REMARK                            x       y       z     vdW  Elec       q    Type
REMARK                         _______ _______ _______ _____ _____    ______ ____
ROOT
ATOM      1  C   UNL     1       1.153  11.292  17.973  0.00  0.00    +0.000 C 
ATOM      2  C   UNL     1       1.321   9.972  18.674  0.00  0.00    +0.000 A 
ATOM      3  C   UNL     1       2.089   9.013  17.992  0.00  0.00    +0.000 A 
ATOM      4  C   UNL     1       2.455   7.817  18.596  0.00  0.00    +0.000 A 
ATOM      5  C   UNL     1       2.058   7.534  19.894  0.00  0.00    +0.000 A 
ATOM      6  C   UNL     1       1.239   8.452  20.562  0.00  0.00    +0.000 A 
ATOM      7  C   UNL     1       0.831   9.671  19.966  0.00  0.00    +0.000 A 
ENDROOT
BRANCH   5   8
ATOM      8  N   UNL     1       2.471   6.361  20.563  0.00  0.00    +0.000 N 
ATOM      9  C   UNL     1       1.783   5.159  20.557  0.00  0.00    +0.000 C 
ATOM     10  O   UNL     1       0.677   4.951  20.066  0.00  0.00    +0.000 OA
ATOM     11  H   UNL     1       3.318   6.429  21.115  0.00  0.00    +0.000 HD
BRANCH   9  12
ATOM     12  C   UNL     1       2.471   4.056  21.328  0.00  0.00    +0.000 C 
BRANCH  12  13
ATOM     13  C   UNL     1       2.394   2.768  20.514  0.00  0.00    +0.000 C 
BRANCH  13  14
ATOM     14  C   UNL     1       3.730   2.283  19.917  0.00  0.00    +0.000 C 
ATOM     15  C   UNL     1       3.458   1.373  18.701  0.00  0.00    +0.000 C 
ATOM     16  C   UNL     1       2.939   2.143  17.483  0.00  0.00    +0.000 C 
ATOM     17  C   UNL     1       3.831   3.330  17.125  0.00  0.00    +0.000 C 
ATOM     18  C   UNL     1       4.123   4.225  18.327  0.00  0.00    +0.000 C 
ATOM     19  C   UNL     1       4.679   3.414  19.495  0.00  0.00    +0.000 C 
ENDBRANCH  13  14
ENDBRANCH  12  13
ENDBRANCH   9  12
ENDBRANCH   5   8
BRANCH   7  20
ATOM     20  N   UNL     1      -0.066  10.540  20.643  0.00  0.00    +0.000 N 
ATOM     21  C   UNL     1       0.301  11.676  21.364  0.00  0.00    +0.000 C 
ATOM     22  O   UNL     1       1.423  12.154  21.433  0.00  0.00    +0.000 OA
ATOM     23  H   UNL     1      -1.043  10.283  20.606  0.00  0.00    +0.000 HD
BRANCH  21  24
ATOM     24  C   UNL     1      -0.781  12.422  22.080  0.00  0.00    +0.000 A 
ATOM     25  C   UNL     1      -1.843  11.679  22.617  0.00  0.00    +0.000 A 
ATOM     26  C   UNL     1      -2.798  12.288  23.431  0.00  0.00    +0.000 A 
ATOM     27  C   UNL     1      -2.703  13.644  23.757  0.00  0.00    +0.000 A 
ATOM     28  C   UNL     1      -1.677  14.399  23.161  0.00  0.00    +0.000 A 
ATOM     29  C   UNL     1      -0.723  13.799  22.330  0.00  0.00    +0.000 A 
BRANCH  27  30
ATOM     30  C   UNL     1      -3.712  14.257  24.692  0.00  0.00    +0.000 C 
BRANCH  30  31
ATOM     31  O   UNL     1      -3.114  14.690  25.907  0.00  0.00    +0.000 OA
ATOM     32  H   UNL     1      -3.823  14.712  26.574  0.00  0.00    +0.000 HD
ENDBRANCH  30  31
ENDBRANCH  27  30
ENDBRANCH  21  24
ENDBRANCH   7  20
TORSDOF 8
ENDMDL
MODEL 8
REMARK VINA RESULT:      -7.6      1.992      9.603
REMARK  Name = 
REMARK  9 active torsions:
REMARK  status: ('A' for Active; 'I' for Inactive)
REMARK    1  A    between atoms: C_1  and  C_2
REMARK    2  A    between atoms: C_5  and  N_6
REMARK    3  A    between atoms: C_7  and  C_9
REMARK    4  A    between atoms: C_9  and  C_10
REMARK    5  A    between atoms: C_10  and  C_11
REMARK    6  A    between atoms: C_18  and  N_19
REMARK    7  A    between atoms: C_20  and  C_22
REMARK    8  A    between atoms: C_25  and  C_26
REMARK    9  A    between atoms: C_26  and  O_27
REMARK                            x       y       z     vdW  Elec       q    Type
REMARK                         _______ _______ _______ _____ _____    ______ ____
ROOT
ATOM      1  C   UNL     1       2.257   2.301  19.014  0.00  0.00    +0.000 C 
ATOM      2  C   UNL     1       2.133   3.768  19.321  0.00  0.00    +0.000 A 
ATOM      3  C   UNL     1       1.229   4.102  20.343  0.00  0.00    +0.000 A 
ATOM      4  C   UNL     1       1.139   5.399  20.834  0.00  0.00    +0.000 A 
ATOM      5  C   UNL     1       1.942   6.404  20.316  0.00  0.00    +0.000 A 
ATOM      6  C   UNL     1       2.802   6.098  19.254  0.00  0.00    +0.000 A 
ATOM      7  C   UNL     1       2.901   4.790  18.718  0.00  0.00    +0.000 A 
ENDROOT
BRANCH   5   8
ATOM      8  N   UNL     1       1.928   7.715  20.839  0.00  0.00    +0.000 N 
ATOM      9  C   UNL     1       0.807   8.361  21.335  0.00  0.00    +0.000 C 
ATOM     10  O   UNL     1      -0.349   7.947  21.308  0.00  0.00    +0.000 OA
ATOM     11  H   UNL     1       2.803   8.224  20.810  0.00  0.00    +0.000 HD
BRANCH   9  12
ATOM     12  C   UNL     1       1.085   9.749  21.866  0.00  0.00    +0.000 C 
BRANCH  12  13
ATOM     13  C   UNL     1       0.339  10.762  21.002  0.00  0.00    +0.000 C 
BRANCH  13  14
ATOM     14  C   UNL     1       0.555  10.618  19.482  0.00  0.00    +0.000 C 
ATOM     15  C   UNL     1      -0.807  10.633  18.758  0.00  0.00    +0.000 C 
ATOM     16  C   UNL     1      -1.467  12.016  18.756  0.00  0.00    +0.000 C 
ATOM     17  C   UNL     1      -0.528  13.105  18.240  0.00  0.00    +0.000 C 
ATOM     18  C   UNL     1       0.831  13.083  18.936  0.00  0.00    +0.000 C 
ATOM     19  C   UNL     1       1.462  11.695  18.869  0.00  0.00    +0.000 C 
ENDBRANCH  13  14
ENDBRANCH  12  13
ENDBRANCH   9  12
ENDBRANCH   5   8
BRANCH   7  20
ATOM     20  N   UNL     1       3.724   4.536  17.588  0.00  0.00    +0.000 N 
ATOM     21  C   UNL     1       5.056   4.927  17.457  0.00  0.00    +0.000 C 
ATOM     22  O   UNL     1       5.743   5.445  18.324  0.00  0.00    +0.000 OA
ATOM     23  H   UNL     1       3.282   4.051  16.819  0.00  0.00    +0.000 HD
BRANCH  21  24
ATOM     24  C   UNL     1       5.738   4.639  16.156  0.00  0.00    +0.000 A 
ATOM     25  C   UNL     1       5.142   3.704  15.297  0.00  0.00    +0.000 A 
ATOM     26  C   UNL     1       5.634   3.508  14.007  0.00  0.00    +0.000 A 
ATOM     27  C   UNL     1       6.711   4.259  13.528  0.00  0.00    +0.000 A 
ATOM     28  C   UNL     1       7.348   5.146  14.414  0.00  0.00    +0.000 A 
ATOM     29  C   UNL     1       6.871   5.337  15.716  0.00  0.00    +0.000 A 
BRANCH  27  30
ATOM     30  C   UNL     1       7.175   4.071  12.107  0.00  0.00    +0.000 C 
BRANCH  30  31
ATOM     31  O   UNL     1       7.039   2.721  11.680  0.00  0.00    +0.000 OA
ATOM     32  H   UNL     1       6.330   2.711  11.013  0.00  0.00    +0.000 HD
ENDBRANCH  30  31
ENDBRANCH  27  30
ENDBRANCH  21  24
ENDBRANCH   7  20
TORSDOF 8
ENDMDL
MODEL 9
REMARK VINA RESULT:      -7.6      2.040      9.745
REMARK  Name = 
REMARK  9 active torsions:
REMARK  status: ('A' for Active; 'I' for Inactive)
REMARK    1  A    between atoms: C_1  and  C_2
REMARK    2  A    between atoms: C_5  and  N_6
REMARK    3  A    between atoms: C_7  and  C_9
REMARK    4  A    between atoms: C_9  and  C_10
REMARK    5  A    between atoms: C_10  and  C_11
REMARK    6  A    between atoms: C_18  and  N_19
REMARK    7  A    between atoms: C_20  and  C_22
REMARK    8  A    between atoms: C_25  and  C_26
REMARK    9  A    between atoms: C_26  and  O_27
REMARK                            x       y       z     vdW  Elec       q    Type
REMARK                         _______ _______ _______ _____ _____    ______ ____
ROOT
ATOM      1  C   UNL     1       2.095   2.363  18.694  0.00  0.00    +0.000 C 
ATOM      2  C   UNL     1       1.962   3.780  19.180  0.00  0.00    +0.000 A 
ATOM      3  C   UNL     1       1.009   3.992  20.189  0.00  0.00    +0.000 A 
ATOM      4  C   UNL     1       0.900   5.216  20.837  0.00  0.00    +0.000 A 
ATOM      5  C   UNL     1       1.732   6.270  20.492  0.00  0.00    +0.000 A 
ATOM      6  C   UNL     1       2.643   6.093  19.443  0.00  0.00    +0.000 A 
ATOM      7  C   UNL     1       2.763   4.863  18.750  0.00  0.00    +0.000 A 
ENDROOT
BRANCH   5   8
ATOM      8  N   UNL     1       1.698   7.505  21.177  0.00  0.00    +0.000 N 
ATOM      9  C   UNL     1       0.545   8.156  21.583  0.00  0.00    +0.000 C 
ATOM     10  O   UNL     1      -0.611   7.825  21.331  0.00  0.00    +0.000 OA
ATOM     11  H   UNL     1       2.590   7.954  21.345  0.00  0.00    +0.000 HD
BRANCH   9  12
ATOM     12  C   UNL     1       0.801   9.446  22.329  0.00  0.00    +0.000 C 
BRANCH  12  13
ATOM     13  C   UNL     1       0.905  10.583  21.317  0.00  0.00    +0.000 C 
BRANCH  13  14
ATOM     14  C   UNL     1      -0.343  11.480  21.200  0.00  0.00    +0.000 C 
ATOM     15  C   UNL     1       0.077  12.964  21.217  0.00  0.00    +0.000 C 
ATOM     16  C   UNL     1       0.781  13.400  19.928  0.00  0.00    +0.000 C 
ATOM     17  C   UNL     1      -0.022  13.044  18.680  0.00  0.00    +0.000 C 
ATOM     18  C   UNL     1      -0.461  11.582  18.665  0.00  0.00    +0.000 C 
ATOM     19  C   UNL     1      -1.196  11.213  19.951  0.00  0.00    +0.000 C 
ENDBRANCH  13  14
ENDBRANCH  12  13
ENDBRANCH   9  12
ENDBRANCH   5   8
BRANCH   7  20
ATOM     20  N   UNL     1       3.642   4.745  17.639  0.00  0.00    +0.000 N 
ATOM     21  C   UNL     1       4.986   4.383  17.710  0.00  0.00    +0.000 C 
ATOM     22  O   UNL     1       5.581   4.010  18.710  0.00  0.00    +0.000 OA
ATOM     23  H   UNL     1       3.246   4.968  16.736  0.00  0.00    +0.000 HD
BRANCH  21  24
ATOM     24  C   UNL     1       5.774   4.392  16.437  0.00  0.00    +0.000 A 
ATOM     25  C   UNL     1       5.124   3.991  15.261  0.00  0.00    +0.000 A 
ATOM     26  C   UNL     1       5.746   4.127  14.021  0.00  0.00    +0.000 A 
ATOM     27  C   UNL     1       7.019   4.696  13.916  0.00  0.00    +0.000 A 
ATOM     28  C   UNL     1       7.695   5.033  15.102  0.00  0.00    +0.000 A 
ATOM     29  C   UNL     1       7.084   4.884  16.353  0.00  0.00    +0.000 A 
BRANCH  27  30
ATOM     30  C   UNL     1       7.637   4.891  12.556  0.00  0.00    +0.000 C 
BRANCH  30  31
ATOM     31  O   UNL     1       8.324   6.132  12.459  0.00  0.00    +0.000 OA
ATOM     32  H   UNL     1       7.643   6.827  12.449  0.00  0.00    +0.000 HD
ENDBRANCH  30  31
ENDBRANCH  27  30
ENDBRANCH  21  24
ENDBRANCH   7  20
TORSDOF 8
ENDMDL
