MODEL 1
REMARK VINA RESULT:      -4.7      0.000      0.000
REMARK  Name = 
REMARK  6 active torsions:
REMARK  status: ('A' for Active; 'I' for Inactive)
REMARK    1  A    between atoms: C_1  and  O_2
REMARK    2  A    between atoms: O_2  and  C_3
REMARK    3  A    between atoms: C_3  and  C_5
REMARK    4  A    between atoms: C_5  and  N_6
REMARK    5  A    between atoms: N_6  and  S_7
REMARK    6  A    between atoms: S_7  and  C_8
REMARK                            x       y       z     vdW  Elec       q    Type
REMARK                         _______ _______ _______ _____ _____    ______ ____
ROOT
ATOM      1  N   UNL     1       5.846   3.823  18.792  0.00  0.00    +0.000 NA
ATOM      2  H   UNL     1       6.511   4.134  19.498  0.00  0.00    +0.000 HD
ENDROOT
BRANCH   1   3
ATOM      3  S   UNL     1       4.448   3.138  19.404  0.00  0.00    +0.000 S 
ATOM      4  C   UNL     1       3.675   2.386  17.982  0.00  0.00    +0.000 C 
ATOM      5  O   UNL     1       4.826   2.093  20.328  0.00  0.00    +0.000 OA
ATOM      6  O   UNL     1       3.604   4.243  19.806  0.00  0.00    +0.000 OA
ENDBRANCH   1   3
BRANCH   1   7
ATOM      7  C   UNL     1       5.771   4.615  17.551  0.00  0.00    +0.000 C 
BRANCH   7   8
ATOM      8  C   UNL     1       7.078   4.725  16.805  0.00  0.00    +0.000 C 
ATOM      9  O   UNL     1       8.122   4.206  17.186  0.00  0.00    +0.000 OA
BRANCH   8  11
ATOM     10  C   UNL     1       6.824   4.818  14.475  0.00  0.00    +0.000 C 
ATOM     11  O   UNL     1       6.951   5.521  15.712  0.00  0.00    +0.000 OA
ENDBRANCH   8  11
ENDBRANCH   7   8
ENDBRANCH   1   7
TORSDOF 4
ENDMDL
MODEL 2
REMARK VINA RESULT:      -4.6      2.014      4.443
REMARK  Name = 
REMARK  6 active torsions:
REMARK  status: ('A' for Active; 'I' for Inactive)
REMARK    1  A    between atoms: C_1  and  O_2
REMARK    2  A    between atoms: O_2  and  C_3
REMARK    3  A    between atoms: C_3  and  C_5
REMARK    4  A    between atoms: C_5  and  N_6
REMARK    5  A    between atoms: N_6  and  S_7
REMARK    6  A    between atoms: S_7  and  C_8
REMARK                            x       y       z     vdW  Elec       q    Type
REMARK                         _______ _______ _______ _____ _____    ______ ____
ROOT
ATOM      1  N   UNL     1       6.101   3.914  18.606  0.00  0.00    +0.000 NA
ATOM      2  H   UNL     1       6.761   3.234  18.981  0.00  0.00    +0.000 HD
ENDROOT
BRANCH   1   3
ATOM      3  S   UNL     1       6.516   4.537  17.110  0.00  0.00    +0.000 S 
ATOM      4  C   UNL     1       6.077   6.263  17.223  0.00  0.00    +0.000 C 
ATOM      5  O   UNL     1       7.950   4.435  16.962  0.00  0.00    +0.000 OA
ATOM      6  O   UNL     1       5.607   3.933  16.159  0.00  0.00    +0.000 OA
ENDBRANCH   1   3
BRANCH   1   7
ATOM      7  C   UNL     1       4.677   3.706  18.925  0.00  0.00    +0.000 C 
BRANCH   7   8
ATOM      8  C   UNL     1       4.370   2.365  19.546  0.00  0.00    +0.000 C 
ATOM      9  O   UNL     1       4.933   1.936  20.547  0.00  0.00    +0.000 OA
BRANCH   8  11
ATOM     10  C   UNL     1       2.794   2.468  17.811  0.00  0.00    +0.000 C 
ATOM     11  O   UNL     1       3.449   1.687  18.812  0.00  0.00    +0.000 OA
ENDBRANCH   8  11
ENDBRANCH   7   8
ENDBRANCH   1   7
TORSDOF 4
ENDMDL
MODEL 3
REMARK VINA RESULT:      -4.6      1.396      1.656
REMARK  Name = 
REMARK  6 active torsions:
REMARK  status: ('A' for Active; 'I' for Inactive)
REMARK    1  A    between atoms: C_1  and  O_2
REMARK    2  A    between atoms: O_2  and  C_3
REMARK    3  A    between atoms: C_3  and  C_5
REMARK    4  A    between atoms: C_5  and  N_6
REMARK    5  A    between atoms: N_6  and  S_7
REMARK    6  A    between atoms: S_7  and  C_8
REMARK                            x       y       z     vdW  Elec       q    Type
REMARK                         _______ _______ _______ _____ _____    ______ ____
ROOT
ATOM      1  N   UNL     1       6.520   4.077  18.135  0.00  0.00    +0.000 NA
ATOM      2  H   UNL     1       7.057   3.242  18.369  0.00  0.00    +0.000 HD
ENDROOT
BRANCH   1   3
ATOM      3  S   UNL     1       5.029   4.180  18.886  0.00  0.00    +0.000 S 
ATOM      4  C   UNL     1       3.859   4.066  17.542  0.00  0.00    +0.000 C 
ATOM      5  O   UNL     1       4.870   3.020  19.733  0.00  0.00    +0.000 OA
ATOM      6  O   UNL     1       4.937   5.525  19.410  0.00  0.00    +0.000 OA
ENDBRANCH   1   3
BRANCH   1   7
ATOM      7  C   UNL     1       7.286   5.312  17.889  0.00  0.00    +0.000 C 
BRANCH   7   8
ATOM      8  C   UNL     1       6.934   6.013  16.600  0.00  0.00    +0.000 C 
ATOM      9  O   UNL     1       6.110   6.917  16.522  0.00  0.00    +0.000 OA
BRANCH   8  11
ATOM     10  C   UNL     1       6.776   4.722  14.648  0.00  0.00    +0.000 C 
ATOM     11  O   UNL     1       7.598   5.463  15.550  0.00  0.00    +0.000 OA
ENDBRANCH   8  11
ENDBRANCH   7   8
ENDBRANCH   1   7
TORSDOF 4
ENDMDL
MODEL 4
REMARK VINA RESULT:      -4.6      2.422      3.524
REMARK  Name = 
REMARK  6 active torsions:
REMARK  status: ('A' for Active; 'I' for Inactive)
REMARK    1  A    between atoms: C_1  and  O_2
REMARK    2  A    between atoms: O_2  and  C_3
REMARK    3  A    between atoms: C_3  and  C_5
REMARK    4  A    between atoms: C_5  and  N_6
REMARK    5  A    between atoms: N_6  and  S_7
REMARK    6  A    between atoms: S_7  and  C_8
REMARK                            x       y       z     vdW  Elec       q    Type
REMARK                         _______ _______ _______ _____ _____    ______ ____
ROOT
ATOM      1  N   UNL     1       5.966   4.964  16.792  0.00  0.00    +0.000 NA
ATOM      2  H   UNL     1       5.038   5.268  17.084  0.00  0.00    +0.000 HD
ENDROOT
BRANCH   1   3
ATOM      3  S   UNL     1       7.114   4.961  18.008  0.00  0.00    +0.000 S 
ATOM      4  C   UNL     1       7.637   6.665  18.114  0.00  0.00    +0.000 C 
ATOM      5  O   UNL     1       6.458   4.604  19.245  0.00  0.00    +0.000 OA
ATOM      6  O   UNL     1       8.238   4.207  17.496  0.00  0.00    +0.000 OA
ENDBRANCH   1   3
BRANCH   1   7
ATOM      7  C   UNL     1       6.028   3.928  15.745  0.00  0.00    +0.000 C 
BRANCH   7   8
ATOM      8  C   UNL     1       6.555   4.418  14.419  0.00  0.00    +0.000 C 
ATOM      9  O   UNL     1       7.465   5.231  14.308  0.00  0.00    +0.000 OA
BRANCH   8  11
ATOM     10  C   UNL     1       6.618   3.577  12.229  0.00  0.00    +0.000 C 
ATOM     11  O   UNL     1       5.844   3.891  13.387  0.00  0.00    +0.000 OA
ENDBRANCH   8  11
ENDBRANCH   7   8
ENDBRANCH   1   7
TORSDOF 4
ENDMDL
MODEL 5
REMARK VINA RESULT:      -4.5      1.423      1.429
REMARK  Name = 
REMARK  6 active torsions:
REMARK  status: ('A' for Active; 'I' for Inactive)
REMARK    1  A    between atoms: C_1  and  O_2
REMARK    2  A    between atoms: O_2  and  C_3
REMARK    3  A    between atoms: C_3  and  C_5
REMARK    4  A    between atoms: C_5  and  N_6
REMARK    5  A    between atoms: N_6  and  S_7
REMARK    6  A    between atoms: S_7  and  C_8
REMARK                            x       y       z     vdW  Elec       q    Type
REMARK                         _______ _______ _______ _____ _____    ______ ____
ROOT
ATOM      1  N   UNL     1       5.221   3.605  17.310  0.00  0.00    +0.000 NA
ATOM      2  H   UNL     1       5.607   2.685  17.102  0.00  0.00    +0.000 HD
ENDROOT
BRANCH   1   3
ATOM      3  S   UNL     1       4.820   3.847  18.916  0.00  0.00    +0.000 S 
ATOM      4  C   UNL     1       3.429   4.964  18.852  0.00  0.00    +0.000 C 
ATOM      5  O   UNL     1       4.372   2.586  19.463  0.00  0.00    +0.000 OA
ATOM      6  O   UNL     1       5.923   4.581  19.498  0.00  0.00    +0.000 OA
ENDBRANCH   1   3
BRANCH   1   7
ATOM      7  C   UNL     1       5.741   4.738  16.523  0.00  0.00    +0.000 C 
BRANCH   7   8
ATOM      8  C   UNL     1       7.220   4.668  16.237  0.00  0.00    +0.000 C 
ATOM      9  O   UNL     1       8.046   4.238  17.034  0.00  0.00    +0.000 OA
BRANCH   8  11
ATOM     10  C   UNL     1       6.747   4.663  13.939  0.00  0.00    +0.000 C 
ATOM     11  O   UNL     1       7.507   5.202  15.021  0.00  0.00    +0.000 OA
ENDBRANCH   8  11
ENDBRANCH   7   8
ENDBRANCH   1   7
TORSDOF 4
ENDMDL
MODEL 6
REMARK VINA RESULT:      -4.5      1.991      4.477
REMARK  Name = 
REMARK  6 active torsions:
REMARK  status: ('A' for Active; 'I' for Inactive)
REMARK    1  A    between atoms: C_1  and  O_2
REMARK    2  A    between atoms: O_2  and  C_3
REMARK    3  A    between atoms: C_3  and  C_5
REMARK    4  A    between atoms: C_5  and  N_6
REMARK    5  A    between atoms: N_6  and  S_7
REMARK    6  A    between atoms: S_7  and  C_8
REMARK                            x       y       z     vdW  Elec       q    Type
REMARK                         _______ _______ _______ _____ _____    ______ ____
ROOT
ATOM      1  N   UNL     1       5.773   3.851  17.577  0.00  0.00    +0.000 NA
ATOM      2  H   UNL     1       5.502   3.511  16.654  0.00  0.00    +0.000 HD
ENDROOT
BRANCH   1   3
ATOM      3  S   UNL     1       7.136   4.821  17.590  0.00  0.00    +0.000 S 
ATOM      4  C   UNL     1       6.497   6.468  17.331  0.00  0.00    +0.000 C 
ATOM      5  O   UNL     1       7.721   4.757  18.910  0.00  0.00    +0.000 OA
ATOM      6  O   UNL     1       7.888   4.471  16.405  0.00  0.00    +0.000 OA
ENDBRANCH   1   3
BRANCH   1   7
ATOM      7  C   UNL     1       4.684   4.131  18.529  0.00  0.00    +0.000 C 
BRANCH   7   8
ATOM      8  C   UNL     1       4.294   2.955  19.390  0.00  0.00    +0.000 C 
ATOM      9  O   UNL     1       5.083   2.346  20.104  0.00  0.00    +0.000 OA
BRANCH   8  11
ATOM     10  C   UNL     1       2.645   2.249  17.878  0.00  0.00    +0.000 C 
ATOM     11  O   UNL     1       2.987   2.632  19.210  0.00  0.00    +0.000 OA
ENDBRANCH   8  11
ENDBRANCH   7   8
ENDBRANCH   1   7
TORSDOF 4
ENDMDL
MODEL 7
REMARK VINA RESULT:      -4.5      2.264      4.535
REMARK  Name = 
REMARK  6 active torsions:
REMARK  status: ('A' for Active; 'I' for Inactive)
REMARK    1  A    between atoms: C_1  and  O_2
REMARK    2  A    between atoms: O_2  and  C_3
REMARK    3  A    between atoms: C_3  and  C_5
REMARK    4  A    between atoms: C_5  and  N_6
REMARK    5  A    between atoms: N_6  and  S_7
REMARK    6  A    between atoms: S_7  and  C_8
REMARK                            x       y       z     vdW  Elec       q    Type
REMARK                         _______ _______ _______ _____ _____    ______ ____
ROOT
ATOM      1  N   UNL     1       6.199   4.037  18.801  0.00  0.00    +0.000 NA
ATOM      2  H   UNL     1       6.769   3.311  19.234  0.00  0.00    +0.000 HD
ENDROOT
BRANCH   1   3
ATOM      3  S   UNL     1       7.006   4.982  17.681  0.00  0.00    +0.000 S 
ATOM      4  C   UNL     1       7.721   6.294  18.658  0.00  0.00    +0.000 C 
ATOM      5  O   UNL     1       8.077   4.193  17.116  0.00  0.00    +0.000 OA
ATOM      6  O   UNL     1       5.983   5.583  16.853  0.00  0.00    +0.000 OA
ENDBRANCH   1   3
BRANCH   1   7
ATOM      7  C   UNL     1       4.776   3.724  18.581  0.00  0.00    +0.000 C 
BRANCH   7   8
ATOM      8  C   UNL     1       4.241   2.618  19.457  0.00  0.00    +0.000 C 
ATOM      9  O   UNL     1       4.906   2.054  20.319  0.00  0.00    +0.000 OA
BRANCH   8  11
ATOM     10  C   UNL     1       2.514   2.879  17.891  0.00  0.00    +0.000 C 
ATOM     11  O   UNL     1       2.966   2.298  19.115  0.00  0.00    +0.000 OA
ENDBRANCH   8  11
ENDBRANCH   7   8
ENDBRANCH   1   7
TORSDOF 4
ENDMDL
MODEL 8
REMARK VINA RESULT:      -4.4      3.122      4.768
REMARK  Name = 
REMARK  6 active torsions:
REMARK  status: ('A' for Active; 'I' for Inactive)
REMARK    1  A    between atoms: C_1  and  O_2
REMARK    2  A    between atoms: O_2  and  C_3
REMARK    3  A    between atoms: C_3  and  C_5
REMARK    4  A    between atoms: C_5  and  N_6
REMARK    5  A    between atoms: N_6  and  S_7
REMARK    6  A    between atoms: S_7  and  C_8
REMARK                            x       y       z     vdW  Elec       q    Type
REMARK                         _______ _______ _______ _____ _____    ______ ____
ROOT
ATOM      1  N   UNL     1       5.173   3.076  19.494  0.00  0.00    +0.000 NA
ATOM      2  H   UNL     1       5.716   2.374  18.992  0.00  0.00    +0.000 HD
ENDROOT
BRANCH   1   3
ATOM      3  S   UNL     1       5.423   4.649  18.984  0.00  0.00    +0.000 S 
ATOM      4  C   UNL     1       3.948   5.512  19.499  0.00  0.00    +0.000 C 
ATOM      5  O   UNL     1       6.549   5.185  19.714  0.00  0.00    +0.000 OA
ATOM      6  O   UNL     1       5.403   4.608  17.537  0.00  0.00    +0.000 OA
ENDBRANCH   1   3
BRANCH   1   7
ATOM      7  C   UNL     1       3.829   2.677  19.951  0.00  0.00    +0.000 C 
BRANCH   7   8
ATOM      8  C   UNL     1       2.985   2.013  18.892  0.00  0.00    +0.000 C 
ATOM      9  O   UNL     1       3.391   1.755  17.764  0.00  0.00    +0.000 OA
BRANCH   8  11
ATOM     10  C   UNL     1       1.000   3.001  19.659  0.00  0.00    +0.000 C 
ATOM     11  O   UNL     1       1.717   1.809  19.335  0.00  0.00    +0.000 OA
ENDBRANCH   8  11
ENDBRANCH   7   8
ENDBRANCH   1   7
TORSDOF 4
ENDMDL
MODEL 9
REMARK VINA RESULT:      -4.4      2.777      4.650
REMARK  Name = 
REMARK  6 active torsions:
REMARK  status: ('A' for Active; 'I' for Inactive)
REMARK    1  A    between atoms: C_1  and  O_2
REMARK    2  A    between atoms: O_2  and  C_3
REMARK    3  A    between atoms: C_3  and  C_5
REMARK    4  A    between atoms: C_5  and  N_6
REMARK    5  A    between atoms: N_6  and  S_7
REMARK    6  A    between atoms: S_7  and  C_8
REMARK                            x       y       z     vdW  Elec       q    Type
REMARK                         _______ _______ _______ _____ _____    ______ ____
ROOT
ATOM      1  N   UNL     1       6.810   4.025  16.204  0.00  0.00    +0.000 NA
ATOM      2  H   UNL     1       6.166   3.237  16.269  0.00  0.00    +0.000 HD
ENDROOT
BRANCH   1   3
ATOM      3  S   UNL     1       6.611   4.979  14.845  0.00  0.00    +0.000 S 
ATOM      4  C   UNL     1       6.046   3.838  13.594  0.00  0.00    +0.000 C 
ATOM      5  O   UNL     1       5.555   5.929  15.112  0.00  0.00    +0.000 OA
ATOM      6  O   UNL     1       7.939   5.405  14.457  0.00  0.00    +0.000 OA
ENDBRANCH   1   3
BRANCH   1   7
ATOM      7  C   UNL     1       7.216   4.659  17.472  0.00  0.00    +0.000 C 
BRANCH   7   8
ATOM      8  C   UNL     1       6.126   4.718  18.513  0.00  0.00    +0.000 C 
ATOM      9  O   UNL     1       4.963   4.397  18.296  0.00  0.00    +0.000 OA
BRANCH   8  11
ATOM     10  C   UNL     1       7.918   5.763  19.609  0.00  0.00    +0.000 C 
ATOM     11  O   UNL     1       6.594   5.232  19.680  0.00  0.00    +0.000 OA
ENDBRANCH   8  11
ENDBRANCH   7   8
ENDBRANCH   1   7
TORSDOF 4
ENDMDL
