MODEL 1
REMARK VINA RESULT:      -7.2      0.000      0.000
REMARK  Name = 
REMARK  1 active torsions:
REMARK  status: ('A' for Active; 'I' for Inactive)
REMARK    1  A    between atoms: C_1  and  C_2
REMARK                            x       y       z     vdW  Elec       q    Type
REMARK                         _______ _______ _______ _____ _____    ______ ____
ROOT
ATOM      1  C   UNL     1      -0.360   9.338  22.267  0.00  0.00    +0.000 C 
ATOM      2  C   UNL     1      -0.181   9.516  20.791  0.00  0.00    +0.000 A 
ATOM      3  N   UNL     1      -1.161  10.225  20.188  0.00  0.00    +0.000 NA
ATOM      4  C   UNL     1      -1.120  10.393  18.862  0.00  0.00    +0.000 A 
ATOM      5  N   UNL     1      -2.216  10.952  18.253  0.00  0.00    +0.000 N 
ATOM      6  C   UNL     1      -3.021  11.923  18.989  0.00  0.00    +0.000 C 
ATOM      7  C   UNL     1      -4.472  11.833  18.490  0.00  0.00    +0.000 C 
ATOM      8  O   UNL     1      -4.555  12.001  17.062  0.00  0.00    +0.000 OA
ATOM      9  C   UNL     1      -3.768  10.998  16.392  0.00  0.00    +0.000 C 
ATOM     10  C   UNL     1      -2.284  11.072  16.803  0.00  0.00    +0.000 C 
ATOM     11  N   UNL     1      -0.106   9.945  18.119  0.00  0.00    +0.000 NA
ATOM     12  C   UNL     1       0.897   9.272  18.729  0.00  0.00    +0.000 A 
ATOM     13  C   UNL     1       0.889   8.982  20.089  0.00  0.00    +0.000 A 
ATOM     14  C   UNL     1       1.966   8.152  20.743  0.00  0.00    +0.000 C 
ATOM     15  C   UNL     1       2.111   6.737  20.148  0.00  0.00    +0.000 C 
ATOM     16  N   UNL     1       2.851   6.804  18.888  0.00  0.00    +0.000 N 
ATOM     17  C   UNL     1       3.896   5.953  18.692  0.00  0.00    +0.000 A 
ATOM     18  N   UNL     1       4.037   4.789  19.289  0.00  0.00    +0.000 NA
ATOM     19  C   UNL     1       5.215   4.183  18.898  0.00  0.00    +0.000 A 
ATOM     20  C   UNL     1       6.008   4.915  18.047  0.00  0.00    +0.000 A 
ATOM     21  S   UNL     1       5.236   6.392  17.676  0.00  0.00    +0.000 S 
ATOM     22  C   UNL     1       2.123   7.324  17.727  0.00  0.00    +0.000 C 
ATOM     23  C   UNL     1       2.016   8.841  17.818  0.00  0.00    +0.000 C 
ENDROOT
TORSDOF 0
ENDMDL
MODEL 2
REMARK VINA RESULT:      -7.1      4.174      7.936
REMARK  Name = 
REMARK  1 active torsions:
REMARK  status: ('A' for Active; 'I' for Inactive)
REMARK    1  A    between atoms: C_1  and  C_2
REMARK                            x       y       z     vdW  Elec       q    Type
REMARK                         _______ _______ _______ _____ _____    ______ ____
ROOT
ATOM      1  C   UNL     1       2.269   4.574  21.212  0.00  0.00    +0.000 C 
ATOM      2  C   UNL     1       2.564   5.600  20.162  0.00  0.00    +0.000 A 
ATOM      3  N   UNL     1       3.577   5.276  19.329  0.00  0.00    +0.000 NA
ATOM      4  C   UNL     1       3.952   6.153  18.390  0.00  0.00    +0.000 A 
ATOM      5  N   UNL     1       5.097   5.883  17.683  0.00  0.00    +0.000 N 
ATOM      6  C   UNL     1       5.469   4.493  17.435  0.00  0.00    +0.000 C 
ATOM      7  C   UNL     1       7.000   4.406  17.340  0.00  0.00    +0.000 C 
ATOM      8  O   UNL     1       7.525   5.313  16.353  0.00  0.00    +0.000 OA
ATOM      9  C   UNL     1       7.153   6.669  16.667  0.00  0.00    +0.000 C 
ATOM     10  C   UNL     1       5.622   6.840  16.718  0.00  0.00    +0.000 C 
ATOM     11  N   UNL     1       3.313   7.310  18.201  0.00  0.00    +0.000 NA
ATOM     12  C   UNL     1       2.271   7.614  19.008  0.00  0.00    +0.000 A 
ATOM     13  C   UNL     1       1.871   6.798  20.060  0.00  0.00    +0.000 A 
ATOM     14  C   UNL     1       0.767   7.190  21.011  0.00  0.00    +0.000 C 
ATOM     15  C   UNL     1       1.028   8.513  21.757  0.00  0.00    +0.000 C 
ATOM     16  N   UNL     1       0.743   9.643  20.874  0.00  0.00    +0.000 N 
ATOM     17  C   UNL     1      -0.048  10.654  21.330  0.00  0.00    +0.000 A 
ATOM     18  N   UNL     1      -0.212  10.962  22.599  0.00  0.00    +0.000 NA
ATOM     19  C   UNL     1      -1.097  12.014  22.732  0.00  0.00    +0.000 A 
ATOM     20  C   UNL     1      -1.661  12.470  21.564  0.00  0.00    +0.000 A 
ATOM     21  S   UNL     1      -1.027  11.593  20.244  0.00  0.00    +0.000 S 
ATOM     22  C   UNL     1       1.731   9.925  19.829  0.00  0.00    +0.000 C 
ATOM     23  C   UNL     1       1.587   8.919  18.693  0.00  0.00    +0.000 C 
ENDROOT
TORSDOF 0
ENDMDL
MODEL 3
REMARK VINA RESULT:      -6.7      3.941      8.079
REMARK  Name = 
REMARK  1 active torsions:
REMARK  status: ('A' for Active; 'I' for Inactive)
REMARK    1  A    between atoms: C_1  and  C_2
REMARK                            x       y       z     vdW  Elec       q    Type
REMARK                         _______ _______ _______ _____ _____    ______ ____
ROOT
ATOM      1  C   UNL     1       2.770   8.321  17.185  0.00  0.00    +0.000 C 
ATOM      2  C   UNL     1       2.369   7.853  18.550  0.00  0.00    +0.000 A 
ATOM      3  N   UNL     1       2.685   6.567  18.818  0.00  0.00    +0.000 NA
ATOM      4  C   UNL     1       2.321   6.039  19.992  0.00  0.00    +0.000 A 
ATOM      5  N   UNL     1       2.486   4.688  20.166  0.00  0.00    +0.000 N 
ATOM      6  C   UNL     1       3.585   4.012  19.483  0.00  0.00    +0.000 C 
ATOM      7  C   UNL     1       3.167   2.560  19.201  0.00  0.00    +0.000 C 
ATOM      8  O   UNL     1       2.750   1.884  20.401  0.00  0.00    +0.000 OA
ATOM      9  C   UNL     1       1.645   2.578  21.012  0.00  0.00    +0.000 C 
ATOM     10  C   UNL     1       2.018   4.028  21.377  0.00  0.00    +0.000 C 
ATOM     11  N   UNL     1       1.716   6.760  20.939  0.00  0.00    +0.000 NA
ATOM     12  C   UNL     1       1.438   8.059  20.686  0.00  0.00    +0.000 A 
ATOM     13  C   UNL     1       1.707   8.662  19.462  0.00  0.00    +0.000 A 
ATOM     14  C   UNL     1       1.310  10.085  19.158  0.00  0.00    +0.000 C 
ATOM     15  C   UNL     1      -0.203  10.350  19.282  0.00  0.00    +0.000 C 
ATOM     16  N   UNL     1      -0.567  10.491  20.691  0.00  0.00    +0.000 N 
ATOM     17  C   UNL     1      -1.321  11.559  21.073  0.00  0.00    +0.000 A 
ATOM     18  N   UNL     1      -2.137  12.222  20.282  0.00  0.00    +0.000 NA
ATOM     19  C   UNL     1      -2.732  13.267  20.963  0.00  0.00    +0.000 A 
ATOM     20  C   UNL     1      -2.321  13.441  22.263  0.00  0.00    +0.000 A 
ATOM     21  S   UNL     1      -1.191  12.228  22.672  0.00  0.00    +0.000 S 
ATOM     22  C   UNL     1      -0.620   9.259  21.482  0.00  0.00    +0.000 C 
ATOM     23  C   UNL     1       0.793   8.803  21.827  0.00  0.00    +0.000 C 
ENDROOT
TORSDOF 0
ENDMDL
MODEL 4
REMARK VINA RESULT:      -6.1      2.859      4.203
REMARK  Name = 
REMARK  1 active torsions:
REMARK  status: ('A' for Active; 'I' for Inactive)
REMARK    1  A    between atoms: C_1  and  C_2
REMARK                            x       y       z     vdW  Elec       q    Type
REMARK                         _______ _______ _______ _____ _____    ______ ____
ROOT
ATOM      1  C   UNL     1      -1.922  11.890  17.335  0.00  0.00    +0.000 C 
ATOM      2  C   UNL     1      -1.525  11.510  18.728  0.00  0.00    +0.000 A 
ATOM      3  N   UNL     1      -1.959  12.358  19.686  0.00  0.00    +0.000 NA
ATOM      4  C   UNL     1      -1.611  12.135  20.959  0.00  0.00    +0.000 A 
ATOM      5  N   UNL     1      -1.906  13.105  21.883  0.00  0.00    +0.000 N 
ATOM      6  C   UNL     1      -3.090  13.937  21.688  0.00  0.00    +0.000 C 
ATOM      7  C   UNL     1      -2.831  15.313  22.320  0.00  0.00    +0.000 C 
ATOM      8  O   UNL     1      -2.444  15.200  23.702  0.00  0.00    +0.000 OA
ATOM      9  C   UNL     1      -1.255  14.397  23.828  0.00  0.00    +0.000 C 
ATOM     10  C   UNL     1      -1.467  12.977  23.266  0.00  0.00    +0.000 C 
ATOM     11  N   UNL     1      -0.905  11.062  21.325  0.00  0.00    +0.000 NA
ATOM     12  C   UNL     1      -0.507  10.192  20.370  0.00  0.00    +0.000 A 
ATOM     13  C   UNL     1      -0.754  10.393  19.017  0.00  0.00    +0.000 A 
ATOM     14  C   UNL     1      -0.226   9.464  17.952  0.00  0.00    +0.000 C 
ATOM     15  C   UNL     1       1.310   9.332  17.946  0.00  0.00    +0.000 C 
ATOM     16  N   UNL     1       1.733   8.433  19.019  0.00  0.00    +0.000 N 
ATOM     17  C   UNL     1       2.604   7.426  18.730  0.00  0.00    +0.000 A 
ATOM     18  N   UNL     1       3.455   7.436  17.727  0.00  0.00    +0.000 NA
ATOM     19  C   UNL     1       4.175   6.258  17.689  0.00  0.00    +0.000 A 
ATOM     20  C   UNL     1       3.827   5.317  18.628  0.00  0.00    +0.000 A 
ATOM     21  S   UNL     1       2.595   5.940  19.632  0.00  0.00    +0.000 S 
ATOM     22  C   UNL     1       1.687   8.969  20.382  0.00  0.00    +0.000 C 
ATOM     23  C   UNL     1       0.248   8.992  20.883  0.00  0.00    +0.000 C 
ENDROOT
TORSDOF 0
ENDMDL
MODEL 5
REMARK VINA RESULT:      -6.1      4.159      7.865
REMARK  Name = 
REMARK  1 active torsions:
REMARK  status: ('A' for Active; 'I' for Inactive)
REMARK    1  A    between atoms: C_1  and  C_2
REMARK                            x       y       z     vdW  Elec       q    Type
REMARK                         _______ _______ _______ _____ _____    ______ ____
ROOT
ATOM      1  C   UNL     1       1.519   6.148  21.127  0.00  0.00    +0.000 C 
ATOM      2  C   UNL     1       2.037   6.851  19.910  0.00  0.00    +0.000 A 
ATOM      3  N   UNL     1       2.988   6.172  19.231  0.00  0.00    +0.000 NA
ATOM      4  C   UNL     1       3.553   6.740  18.159  0.00  0.00    +0.000 A 
ATOM      5  N   UNL     1       4.639   6.115  17.601  0.00  0.00    +0.000 N 
ATOM      6  C   UNL     1       4.736   4.659  17.670  0.00  0.00    +0.000 C 
ATOM      7  C   UNL     1       6.222   4.268  17.698  0.00  0.00    +0.000 C 
ATOM      8  O   UNL     1       6.940   4.827  16.583  0.00  0.00    +0.000 OA
ATOM      9  C   UNL     1       6.835   6.264  16.586  0.00  0.00    +0.000 C 
ATOM     10  C   UNL     1       5.367   6.726  16.497  0.00  0.00    +0.000 C 
ATOM     11  N   UNL     1       3.160   7.928  17.694  0.00  0.00    +0.000 NA
ATOM     12  C   UNL     1       2.178   8.588  18.349  0.00  0.00    +0.000 A 
ATOM     13  C   UNL     1       1.598   8.107  19.518  0.00  0.00    +0.000 A 
ATOM     14  C   UNL     1       0.569   8.894  20.292  0.00  0.00    +0.000 C 
ATOM     15  C   UNL     1       1.066  10.274  20.765  0.00  0.00    +0.000 C 
ATOM     16  N   UNL     1       1.033  11.220  19.651  0.00  0.00    +0.000 N 
ATOM     17  C   UNL     1       0.446  12.435  19.836  0.00  0.00    +0.000 A 
ATOM     18  N   UNL     1       0.314  13.034  21.000  0.00  0.00    +0.000 NA
ATOM     19  C   UNL     1      -0.349  14.237  20.855  0.00  0.00    +0.000 A 
ATOM     20  C   UNL     1      -0.782  14.530  19.583  0.00  0.00    +0.000 A 
ATOM     21  S   UNL     1      -0.300  13.286  18.516  0.00  0.00    +0.000 S 
ATOM     22  C   UNL     1       2.084  11.081  18.639  0.00  0.00    +0.000 C 
ATOM     23  C   UNL     1       1.773   9.899  17.728  0.00  0.00    +0.000 C 
ENDROOT
TORSDOF 0
ENDMDL
MODEL 6
REMARK VINA RESULT:      -6.1      4.508      7.777
REMARK  Name = 
REMARK  1 active torsions:
REMARK  status: ('A' for Active; 'I' for Inactive)
REMARK    1  A    between atoms: C_1  and  C_2
REMARK                            x       y       z     vdW  Elec       q    Type
REMARK                         _______ _______ _______ _____ _____    ______ ____
ROOT
ATOM      1  C   UNL     1       0.150   9.418  23.083  0.00  0.00    +0.000 C 
ATOM      2  C   UNL     1       0.552   9.582  21.651  0.00  0.00    +0.000 A 
ATOM      3  N   UNL     1       1.104   8.482  21.093  0.00  0.00    +0.000 NA
ATOM      4  C   UNL     1       1.546   8.544  19.831  0.00  0.00    +0.000 A 
ATOM      5  N   UNL     1       2.267   7.480  19.351  0.00  0.00    +0.000 N 
ATOM      6  C   UNL     1       1.976   6.140  19.854  0.00  0.00    +0.000 C 
ATOM      7  C   UNL     1       3.266   5.307  19.799  0.00  0.00    +0.000 C 
ATOM      8  O   UNL     1       3.840   5.300  18.479  0.00  0.00    +0.000 OA
ATOM      9  C   UNL     1       4.133   6.644  18.051  0.00  0.00    +0.000 C 
ATOM     10  C   UNL     1       2.866   7.521  18.024  0.00  0.00    +0.000 C 
ATOM     11  N   UNL     1       1.397   9.638  19.079  0.00  0.00    +0.000 NA
ATOM     12  C   UNL     1       0.806  10.725  19.625  0.00  0.00    +0.000 A 
ATOM     13  C   UNL     1       0.395  10.770  20.952  0.00  0.00    +0.000 A 
ATOM     14  C   UNL     1      -0.179  12.018  21.577  0.00  0.00    +0.000 C 
ATOM     15  C   UNL     1       0.768  13.233  21.528  0.00  0.00    +0.000 C 
ATOM     16  N   UNL     1       0.745  13.825  20.191  0.00  0.00    +0.000 N 
ATOM     17  C   UNL     1       0.568  15.169  20.068  0.00  0.00    +0.000 A 
ATOM     18  N   UNL     1       0.869  16.052  20.996  0.00  0.00    +0.000 NA
ATOM     19  C   UNL     1       0.543  17.328  20.577  0.00  0.00    +0.000 A 
ATOM     20  C   UNL     1      -0.068  17.413  19.348  0.00  0.00    +0.000 A 
ATOM     21  S   UNL     1      -0.195  15.854  18.664  0.00  0.00    +0.000 S 
ATOM     22  C   UNL     1       1.462  13.099  19.139  0.00  0.00    +0.000 C 
ATOM     23  C   UNL     1       0.645  11.894  18.689  0.00  0.00    +0.000 C 
ENDROOT
TORSDOF 0
ENDMDL
MODEL 7
REMARK VINA RESULT:      -6.0      9.315     11.257
REMARK  Name = 
REMARK  1 active torsions:
REMARK  status: ('A' for Active; 'I' for Inactive)
REMARK    1  A    between atoms: C_1  and  C_2
REMARK                            x       y       z     vdW  Elec       q    Type
REMARK                         _______ _______ _______ _____ _____    ______ ____
ROOT
ATOM      1  C   UNL     1       6.146  15.298  20.420  0.00  0.00    +0.000 C 
ATOM      2  C   UNL     1       7.335  14.543  20.927  0.00  0.00    +0.000 A 
ATOM      3  N   UNL     1       8.381  14.502  20.072  0.00  0.00    +0.000 NA
ATOM      4  C   UNL     1       9.472  13.805  20.411  0.00  0.00    +0.000 A 
ATOM      5  N   UNL     1      10.439  13.624  19.456  0.00  0.00    +0.000 N 
ATOM      6  C   UNL     1      10.638  14.655  18.441  0.00  0.00    +0.000 C 
ATOM      7  C   UNL     1      11.148  13.984  17.155  0.00  0.00    +0.000 C 
ATOM      8  O   UNL     1      12.330  13.198  17.398  0.00  0.00    +0.000 OA
ATOM      9  C   UNL     1      12.064  12.180  18.382  0.00  0.00    +0.000 C 
ATOM     10  C   UNL     1      11.605  12.791  19.720  0.00  0.00    +0.000 C 
ATOM     11  N   UNL     1       9.591  13.204  21.598  0.00  0.00    +0.000 NA
ATOM     12  C   UNL     1       8.561  13.282  22.470  0.00  0.00    +0.000 A 
ATOM     13  C   UNL     1       7.361  13.915  22.164  0.00  0.00    +0.000 A 
ATOM     14  C   UNL     1       6.184  13.916  23.108  0.00  0.00    +0.000 C 
ATOM     15  C   UNL     1       5.680  12.508  23.477  0.00  0.00    +0.000 C 
ATOM     16  N   UNL     1       6.559  11.916  24.485  0.00  0.00    +0.000 N 
ATOM     17  C   UNL     1       6.005  11.361  25.599  0.00  0.00    +0.000 A 
ATOM     18  N   UNL     1       4.779  10.888  25.670  0.00  0.00    +0.000 NA
ATOM     19  C   UNL     1       4.512  10.422  26.943  0.00  0.00    +0.000 A 
ATOM     20  C   UNL     1       5.515  10.598  27.865  0.00  0.00    +0.000 A 
ATOM     21  S   UNL     1       6.864  11.323  27.109  0.00  0.00    +0.000 S 
ATOM     22  C   UNL     1       7.861  11.433  24.018  0.00  0.00    +0.000 C 
ATOM     23  C   UNL     1       8.803  12.611  23.797  0.00  0.00    +0.000 C 
ENDROOT
TORSDOF 0
ENDMDL
MODEL 8
REMARK VINA RESULT:      -5.7      3.880      7.904
REMARK  Name = 
REMARK  1 active torsions:
REMARK  status: ('A' for Active; 'I' for Inactive)
REMARK    1  A    between atoms: C_1  and  C_2
REMARK                            x       y       z     vdW  Elec       q    Type
REMARK                         _______ _______ _______ _____ _____    ______ ____
ROOT
ATOM      1  C   UNL     1       3.598   7.796  16.743  0.00  0.00    +0.000 C 
ATOM      2  C   UNL     1       2.948   7.363  18.021  0.00  0.00    +0.000 A 
ATOM      3  N   UNL     1       3.024   6.037  18.269  0.00  0.00    +0.000 NA
ATOM      4  C   UNL     1       2.427   5.543  19.360  0.00  0.00    +0.000 A 
ATOM      5  N   UNL     1       2.358   4.180  19.491  0.00  0.00    +0.000 N 
ATOM      6  C   UNL     1       3.424   3.356  18.926  0.00  0.00    +0.000 C 
ATOM      7  C   UNL     1       2.831   1.996  18.526  0.00  0.00    +0.000 C 
ATOM      8  O   UNL     1       2.155   1.364  19.629  0.00  0.00    +0.000 OA
ATOM      9  C   UNL     1       1.097   2.208  20.122  0.00  0.00    +0.000 C 
ATOM     10  C   UNL     1       1.635   3.571  20.599  0.00  0.00    +0.000 C 
ATOM     11  N   UNL     1       1.817   6.327  20.252  0.00  0.00    +0.000 NA
ATOM     12  C   UNL     1       1.778   7.660  20.025  0.00  0.00    +0.000 A 
ATOM     13  C   UNL     1       2.300   8.243  18.876  0.00  0.00    +0.000 A 
ATOM     14  C   UNL     1       2.171   9.719  18.589  0.00  0.00    +0.000 C 
ATOM     15  C   UNL     1       0.714  10.216  18.526  0.00  0.00    +0.000 C 
ATOM     16  N   UNL     1       0.188  10.377  19.882  0.00  0.00    +0.000 N 
ATOM     17  C   UNL     1      -0.439  11.540  20.211  0.00  0.00    +0.000 A 
ATOM     18  N   UNL     1      -1.028  12.344  19.352  0.00  0.00    +0.000 NA
ATOM     19  C   UNL     1      -1.543  13.452  19.997  0.00  0.00    +0.000 A 
ATOM     20  C   UNL     1      -1.291  13.527  21.346  0.00  0.00    +0.000 A 
ATOM     21  S   UNL     1      -0.426  12.140  21.842  0.00  0.00    +0.000 S 
ATOM     22  C   UNL     1      -0.160   9.149  20.601  0.00  0.00    +0.000 C 
ATOM     23  C   UNL     1       1.106   8.467  21.106  0.00  0.00    +0.000 C 
ENDROOT
TORSDOF 0
ENDMDL
MODEL 9
REMARK VINA RESULT:      -5.6      9.813     11.668
REMARK  Name = 
REMARK  1 active torsions:
REMARK  status: ('A' for Active; 'I' for Inactive)
REMARK    1  A    between atoms: C_1  and  C_2
REMARK                            x       y       z     vdW  Elec       q    Type
REMARK                         _______ _______ _______ _____ _____    ______ ____
ROOT
ATOM      1  C   UNL     1      10.018  16.398  23.324  0.00  0.00    +0.000 C 
ATOM      2  C   UNL     1       9.666  15.026  22.837  0.00  0.00    +0.000 A 
ATOM      3  N   UNL     1      10.095  14.747  21.587  0.00  0.00    +0.000 NA
ATOM      4  C   UNL     1       9.784  13.565  21.041  0.00  0.00    +0.000 A 
ATOM      5  N   UNL     1      10.069  13.379  19.712  0.00  0.00    +0.000 N 
ATOM      6  C   UNL     1      11.222  14.060  19.130  0.00  0.00    +0.000 C 
ATOM      7  C   UNL     1      10.934  14.326  17.644  0.00  0.00    +0.000 C 
ATOM      8  O   UNL     1      10.583  13.117  16.945  0.00  0.00    +0.000 OA
ATOM      9  C   UNL     1       9.423  12.508  17.544  0.00  0.00    +0.000 C 
ATOM     10  C   UNL     1       9.667  12.159  19.025  0.00  0.00    +0.000 C 
ATOM     11  N   UNL     1       9.121  12.623  21.716  0.00  0.00    +0.000 NA
ATOM     12  C   UNL     1       8.728  12.888  22.982  0.00  0.00    +0.000 A 
ATOM     13  C   UNL     1       8.938  14.119  23.593  0.00  0.00    +0.000 A 
ATOM     14  C   UNL     1       8.414  14.435  24.973  0.00  0.00    +0.000 C 
ATOM     15  C   UNL     1       6.884  14.308  25.103  0.00  0.00    +0.000 C 
ATOM     16  N   UNL     1       6.514  12.898  25.226  0.00  0.00    +0.000 N 
ATOM     17  C   UNL     1       5.669  12.523  26.226  0.00  0.00    +0.000 A 
ATOM     18  N   UNL     1       4.795  13.317  26.806  0.00  0.00    +0.000 NA
ATOM     19  C   UNL     1       4.112  12.644  27.800  0.00  0.00    +0.000 A 
ATOM     20  C   UNL     1       4.510  11.348  28.024  0.00  0.00    +0.000 A 
ATOM     21  S   UNL     1       5.746  10.931  26.921  0.00  0.00    +0.000 S 
ATOM     22  C   UNL     1       6.575  12.094  24.002  0.00  0.00    +0.000 C 
ATOM     23  C   UNL     1       8.024  11.752  23.677  0.00  0.00    +0.000 C 
ENDROOT
TORSDOF 0
ENDMDL
