MODEL 1
REMARK VINA RESULT:      -6.7      0.000      0.000
REMARK  Name = 
REMARK  3 active torsions:
REMARK  status: ('A' for Active; 'I' for Inactive)
REMARK    1  A    between atoms: C_1  and  C_2
REMARK    2  A    between atoms: C_8  and  C_9
REMARK    3  A    between atoms: C_9  and  C_10
REMARK                            x       y       z     vdW  Elec       q    Type
REMARK                         _______ _______ _______ _____ _____    ______ ____
ROOT
ATOM      1  C   UNL     1       2.226   6.134  17.944  0.00  0.00    +0.000 C 
ATOM      2  C   UNL     1       1.860   4.672  17.976  0.00  0.00    +0.000 C 
ATOM      3  O   UNL     1       0.981   4.244  17.226  0.00  0.00    +0.000 OA
ATOM      4  N   UNL     1       2.563   3.858  18.843  0.00  0.00    +0.000 N 
ATOM      5  C   UNL     1       2.293   2.423  18.879  0.00  0.00    +0.000 C 
ATOM      6  C   UNL     1       3.580   1.598  18.672  0.00  0.00    +0.000 C 
ATOM      7  N   UNL     1       4.759   2.049  19.437  0.00  0.00    +0.000 NA
ATOM      8  C   UNL     1       4.971   3.517  19.379  0.00  0.00    +0.000 C 
ATOM      9  C   UNL     1       3.656   4.269  19.729  0.00  0.00    +0.000 C 
ATOM     10  H   UNL     1       5.580   1.568  19.071  0.00  0.00    +0.000 HD
ENDROOT
BRANCH   8  11
ATOM     11  C   UNL     1       5.519   4.056  18.028  0.00  0.00    +0.000 C 
BRANCH  11  12
ATOM     12  C   UNL     1       6.282   5.361  17.959  0.00  0.00    +0.000 A 
ATOM     13  C   UNL     1       5.974   6.424  17.105  0.00  0.00    +0.000 A 
ATOM     14  C   UNL     1       6.746   7.596  17.122  0.00  0.00    +0.000 A 
ATOM     15  C   UNL     1       7.844   7.711  17.978  0.00  0.00    +0.000 A 
ATOM     16  C   UNL     1       8.174   6.654  18.819  0.00  0.00    +0.000 A 
ATOM     17  C   UNL     1       7.398   5.494  18.810  0.00  0.00    +0.000 A 
ENDBRANCH  11  12
ENDBRANCH   8  11
TORSDOF 2
ENDMDL
MODEL 2
REMARK VINA RESULT:      -6.7      2.963      5.040
REMARK  Name = 
REMARK  3 active torsions:
REMARK  status: ('A' for Active; 'I' for Inactive)
REMARK    1  A    between atoms: C_1  and  C_2
REMARK    2  A    between atoms: C_8  and  C_9
REMARK    3  A    between atoms: C_9  and  C_10
REMARK                            x       y       z     vdW  Elec       q    Type
REMARK                         _______ _______ _______ _____ _____    ______ ____
ROOT
ATOM      1  C   UNL     1       5.628   4.353  14.351  0.00  0.00    +0.000 C 
ATOM      2  C   UNL     1       6.727   4.730  15.312  0.00  0.00    +0.000 C 
ATOM      3  O   UNL     1       7.737   5.298  14.894  0.00  0.00    +0.000 OA
ATOM      4  N   UNL     1       6.532   4.438  16.648  0.00  0.00    +0.000 N 
ATOM      5  C   UNL     1       7.536   4.831  17.635  0.00  0.00    +0.000 C 
ATOM      6  C   UNL     1       6.917   5.668  18.772  0.00  0.00    +0.000 C 
ATOM      7  N   UNL     1       5.642   5.162  19.318  0.00  0.00    +0.000 NA
ATOM      8  C   UNL     1       4.671   4.763  18.270  0.00  0.00    +0.000 C 
ATOM      9  C   UNL     1       5.345   3.815  17.239  0.00  0.00    +0.000 C 
ATOM     10  H   UNL     1       5.236   5.891  19.905  0.00  0.00    +0.000 HD
ENDROOT
BRANCH   8  11
ATOM     11  C   UNL     1       3.993   5.937  17.510  0.00  0.00    +0.000 C 
BRANCH  11  12
ATOM     12  C   UNL     1       3.098   6.922  18.231  0.00  0.00    +0.000 A 
ATOM     13  C   UNL     1       2.569   6.734  19.511  0.00  0.00    +0.000 A 
ATOM     14  C   UNL     1       1.749   7.714  20.092  0.00  0.00    +0.000 A 
ATOM     15  C   UNL     1       1.434   8.881  19.395  0.00  0.00    +0.000 A 
ATOM     16  C   UNL     1       1.937   9.073  18.112  0.00  0.00    +0.000 A 
ATOM     17  C   UNL     1       2.762   8.104  17.540  0.00  0.00    +0.000 A 
ENDBRANCH  11  12
ENDBRANCH   8  11
TORSDOF 2
ENDMDL
MODEL 3
REMARK VINA RESULT:      -6.6      2.690      5.513
REMARK  Name = 
REMARK  3 active torsions:
REMARK  status: ('A' for Active; 'I' for Inactive)
REMARK    1  A    between atoms: C_1  and  C_2
REMARK    2  A    between atoms: C_8  and  C_9
REMARK    3  A    between atoms: C_9  and  C_10
REMARK                            x       y       z     vdW  Elec       q    Type
REMARK                         _______ _______ _______ _____ _____    ______ ____
ROOT
ATOM      1  C   UNL     1       7.908   6.357  18.737  0.00  0.00    +0.000 C 
ATOM      2  C   UNL     1       7.590   5.168  17.868  0.00  0.00    +0.000 C 
ATOM      3  O   UNL     1       8.358   4.205  17.842  0.00  0.00    +0.000 OA
ATOM      4  N   UNL     1       6.411   5.202  17.148  0.00  0.00    +0.000 N 
ATOM      5  C   UNL     1       6.019   4.055  16.332  0.00  0.00    +0.000 C 
ATOM      6  C   UNL     1       4.602   3.563  16.689  0.00  0.00    +0.000 C 
ATOM      7  N   UNL     1       3.580   4.615  16.850  0.00  0.00    +0.000 NA
ATOM      8  C   UNL     1       4.042   5.761  17.672  0.00  0.00    +0.000 C 
ATOM      9  C   UNL     1       5.415   6.277  17.159  0.00  0.00    +0.000 C 
ATOM     10  H   UNL     1       2.755   4.195  17.277  0.00  0.00    +0.000 HD
ENDROOT
BRANCH   8  11
ATOM     11  C   UNL     1       4.141   5.487  19.199  0.00  0.00    +0.000 C 
BRANCH  11  12
ATOM     12  C   UNL     1       3.186   4.535  19.886  0.00  0.00    +0.000 A 
ATOM     13  C   UNL     1       3.544   3.299  20.433  0.00  0.00    +0.000 A 
ATOM     14  C   UNL     1       2.579   2.491  21.054  0.00  0.00    +0.000 A 
ATOM     15  C   UNL     1       1.245   2.899  21.117  0.00  0.00    +0.000 A 
ATOM     16  C   UNL     1       0.871   4.117  20.559  0.00  0.00    +0.000 A 
ATOM     17  C   UNL     1       1.834   4.926  19.954  0.00  0.00    +0.000 A 
ENDBRANCH  11  12
ENDBRANCH   8  11
TORSDOF 2
ENDMDL
MODEL 4
REMARK VINA RESULT:      -6.6      2.712      5.430
REMARK  Name = 
REMARK  3 active torsions:
REMARK  status: ('A' for Active; 'I' for Inactive)
REMARK    1  A    between atoms: C_1  and  C_2
REMARK    2  A    between atoms: C_8  and  C_9
REMARK    3  A    between atoms: C_9  and  C_10
REMARK                            x       y       z     vdW  Elec       q    Type
REMARK                         _______ _______ _______ _____ _____    ______ ____
ROOT
ATOM      1  C   UNL     1       8.006   6.226  18.884  0.00  0.00    +0.000 C 
ATOM      2  C   UNL     1       7.641   5.117  17.931  0.00  0.00    +0.000 C 
ATOM      3  O   UNL     1       8.371   4.128  17.833  0.00  0.00    +0.000 OA
ATOM      4  N   UNL     1       6.465   5.251  17.217  0.00  0.00    +0.000 N 
ATOM      5  C   UNL     1       6.030   4.183  16.320  0.00  0.00    +0.000 C 
ATOM      6  C   UNL     1       4.593   3.723  16.642  0.00  0.00    +0.000 C 
ATOM      7  N   UNL     1       3.614   4.802  16.881  0.00  0.00    +0.000 NA
ATOM      8  C   UNL     1       4.120   5.865  17.784  0.00  0.00    +0.000 C 
ATOM      9  C   UNL     1       5.514   6.362  17.308  0.00  0.00    +0.000 C 
ATOM     10  H   UNL     1       2.772   4.385  17.277  0.00  0.00    +0.000 HD
ENDROOT
BRANCH   8  11
ATOM     11  C   UNL     1       4.206   5.476  19.286  0.00  0.00    +0.000 C 
BRANCH  11  12
ATOM     12  C   UNL     1       3.141   4.618  19.934  0.00  0.00    +0.000 A 
ATOM     13  C   UNL     1       1.783   4.943  20.000  0.00  0.00    +0.000 A 
ATOM     14  C   UNL     1       0.874   4.073  20.623  0.00  0.00    +0.000 A 
ATOM     15  C   UNL     1       1.314   2.881  21.201  0.00  0.00    +0.000 A 
ATOM     16  C   UNL     1       2.665   2.554  21.159  0.00  0.00    +0.000 A 
ATOM     17  C   UNL     1       3.566   3.413  20.529  0.00  0.00    +0.000 A 
ENDBRANCH  11  12
ENDBRANCH   8  11
TORSDOF 2
ENDMDL
MODEL 5
REMARK VINA RESULT:      -6.6      3.528      4.539
REMARK  Name = 
REMARK  3 active torsions:
REMARK  status: ('A' for Active; 'I' for Inactive)
REMARK    1  A    between atoms: C_1  and  C_2
REMARK    2  A    between atoms: C_8  and  C_9
REMARK    3  A    between atoms: C_9  and  C_10
REMARK                            x       y       z     vdW  Elec       q    Type
REMARK                         _______ _______ _______ _____ _____    ______ ____
ROOT
ATOM      1  C   UNL     1       3.451   1.808  18.242  0.00  0.00    +0.000 C 
ATOM      2  C   UNL     1       4.280   2.754  19.072  0.00  0.00    +0.000 C 
ATOM      3  O   UNL     1       4.876   2.336  20.066  0.00  0.00    +0.000 OA
ATOM      4  N   UNL     1       4.356   4.069  18.653  0.00  0.00    +0.000 N 
ATOM      5  C   UNL     1       5.190   5.021  19.383  0.00  0.00    +0.000 C 
ATOM      6  C   UNL     1       6.194   5.728  18.450  0.00  0.00    +0.000 C 
ATOM      7  N   UNL     1       5.647   6.206  17.166  0.00  0.00    +0.000 NA
ATOM      8  C   UNL     1       4.795   5.203  16.480  0.00  0.00    +0.000 C 
ATOM      9  C   UNL     1       3.727   4.640  17.459  0.00  0.00    +0.000 C 
ATOM     10  H   UNL     1       6.429   6.464  16.563  0.00  0.00    +0.000 HD
ENDROOT
BRANCH   8  11
ATOM     11  C   UNL     1       5.559   4.018  15.826  0.00  0.00    +0.000 C 
BRANCH  11  12
ATOM     12  C   UNL     1       6.121   4.128  14.426  0.00  0.00    +0.000 A 
ATOM     13  C   UNL     1       5.640   3.431  13.313  0.00  0.00    +0.000 A 
ATOM     14  C   UNL     1       6.234   3.608  12.053  0.00  0.00    +0.000 A 
ATOM     15  C   UNL     1       7.323   4.467  11.895  0.00  0.00    +0.000 A 
ATOM     16  C   UNL     1       7.824   5.152  12.997  0.00  0.00    +0.000 A 
ATOM     17  C   UNL     1       7.226   4.985  14.247  0.00  0.00    +0.000 A 
ENDBRANCH  11  12
ENDBRANCH   8  11
TORSDOF 2
ENDMDL
MODEL 6
REMARK VINA RESULT:      -6.5      2.974      4.955
REMARK  Name = 
REMARK  3 active torsions:
REMARK  status: ('A' for Active; 'I' for Inactive)
REMARK    1  A    between atoms: C_1  and  C_2
REMARK    2  A    between atoms: C_8  and  C_9
REMARK    3  A    between atoms: C_9  and  C_10
REMARK                            x       y       z     vdW  Elec       q    Type
REMARK                         _______ _______ _______ _____ _____    ______ ____
ROOT
ATOM      1  C   UNL     1       5.681   4.252  14.334  0.00  0.00    +0.000 C 
ATOM      2  C   UNL     1       6.781   4.694  15.264  0.00  0.00    +0.000 C 
ATOM      3  O   UNL     1       7.770   5.275  14.812  0.00  0.00    +0.000 OA
ATOM      4  N   UNL     1       6.613   4.446  16.613  0.00  0.00    +0.000 N 
ATOM      5  C   UNL     1       7.618   4.901  17.570  0.00  0.00    +0.000 C 
ATOM      6  C   UNL     1       6.991   5.762  18.686  0.00  0.00    +0.000 C 
ATOM      7  N   UNL     1       5.738   5.241  19.268  0.00  0.00    +0.000 NA
ATOM      8  C   UNL     1       4.765   4.778  18.248  0.00  0.00    +0.000 C 
ATOM      9  C   UNL     1       5.452   3.811  17.243  0.00  0.00    +0.000 C 
ATOM     10  H   UNL     1       5.320   5.979  19.834  0.00  0.00    +0.000 HD
ENDROOT
BRANCH   8  11
ATOM     11  C   UNL     1       4.044   5.904  17.457  0.00  0.00    +0.000 C 
BRANCH  11  12
ATOM     12  C   UNL     1       3.138   6.894  18.156  0.00  0.00    +0.000 A 
ATOM     13  C   UNL     1       2.726   8.118  17.621  0.00  0.00    +0.000 A 
ATOM     14  C   UNL     1       1.879   8.965  18.354  0.00  0.00    +0.000 A 
ATOM     15  C   UNL     1       1.450   8.606  19.633  0.00  0.00    +0.000 A 
ATOM     16  C   UNL     1       1.867   7.400  20.185  0.00  0.00    +0.000 A 
ATOM     17  C   UNL     1       2.699   6.553  19.451  0.00  0.00    +0.000 A 
ENDBRANCH  11  12
ENDBRANCH   8  11
TORSDOF 2
ENDMDL
MODEL 7
REMARK VINA RESULT:      -6.5      3.512      4.517
REMARK  Name = 
REMARK  3 active torsions:
REMARK  status: ('A' for Active; 'I' for Inactive)
REMARK    1  A    between atoms: C_1  and  C_2
REMARK    2  A    between atoms: C_8  and  C_9
REMARK    3  A    between atoms: C_9  and  C_10
REMARK                            x       y       z     vdW  Elec       q    Type
REMARK                         _______ _______ _______ _____ _____    ______ ____
ROOT
ATOM      1  C   UNL     1       2.789   2.300  17.891  0.00  0.00    +0.000 C 
ATOM      2  C   UNL     1       3.793   2.932  18.821  0.00  0.00    +0.000 C 
ATOM      3  O   UNL     1       4.237   2.287  19.773  0.00  0.00    +0.000 OA
ATOM      4  N   UNL     1       4.197   4.223  18.540  0.00  0.00    +0.000 N 
ATOM      5  C   UNL     1       5.210   4.868  19.372  0.00  0.00    +0.000 C 
ATOM      6  C   UNL     1       6.385   5.398  18.526  0.00  0.00    +0.000 C 
ATOM      7  N   UNL     1       6.013   6.118  17.293  0.00  0.00    +0.000 NA
ATOM      8  C   UNL     1       4.968   5.423  16.500  0.00  0.00    +0.000 C 
ATOM      9  C   UNL     1       3.764   5.043  17.406  0.00  0.00    +0.000 C 
ATOM     10  H   UNL     1       6.853   6.236  16.727  0.00  0.00    +0.000 HD
ENDROOT
BRANCH   8  11
ATOM     11  C   UNL     1       5.446   4.158  15.734  0.00  0.00    +0.000 C 
BRANCH  11  12
ATOM     12  C   UNL     1       6.147   4.271  14.398  0.00  0.00    +0.000 A 
ATOM     13  C   UNL     1       7.237   5.105  14.134  0.00  0.00    +0.000 A 
ATOM     14  C   UNL     1       7.818   5.132  12.857  0.00  0.00    +0.000 A 
ATOM     15  C   UNL     1       7.306   4.343  11.826  0.00  0.00    +0.000 A 
ATOM     16  C   UNL     1       6.209   3.522  12.069  0.00  0.00    +0.000 A 
ATOM     17  C   UNL     1       5.640   3.486  13.342  0.00  0.00    +0.000 A 
ENDBRANCH  11  12
ENDBRANCH   8  11
TORSDOF 2
ENDMDL
MODEL 8
REMARK VINA RESULT:      -6.4      2.086      3.246
REMARK  Name = 
REMARK  3 active torsions:
REMARK  status: ('A' for Active; 'I' for Inactive)
REMARK    1  A    between atoms: C_1  and  C_2
REMARK    2  A    between atoms: C_8  and  C_9
REMARK    3  A    between atoms: C_9  and  C_10
REMARK                            x       y       z     vdW  Elec       q    Type
REMARK                         _______ _______ _______ _____ _____    ______ ____
ROOT
ATOM      1  C   UNL     1       2.788   2.406  17.329  0.00  0.00    +0.000 C 
ATOM      2  C   UNL     1       2.053   2.646  18.622  0.00  0.00    +0.000 C 
ATOM      3  O   UNL     1       1.788   1.696  19.361  0.00  0.00    +0.000 OA
ATOM      4  N   UNL     1       1.729   3.951  18.939  0.00  0.00    +0.000 N 
ATOM      5  C   UNL     1       1.067   4.253  20.206  0.00  0.00    +0.000 C 
ATOM      6  C   UNL     1       1.839   5.320  21.009  0.00  0.00    +0.000 C 
ATOM      7  N   UNL     1       2.310   6.486  20.237  0.00  0.00    +0.000 NA
ATOM      8  C   UNL     1       2.956   6.117  18.953  0.00  0.00    +0.000 C 
ATOM      9  C   UNL     1       2.050   5.143  18.150  0.00  0.00    +0.000 C 
ATOM     10  H   UNL     1       2.967   7.007  20.817  0.00  0.00    +0.000 HD
ENDROOT
BRANCH   8  11
ATOM     11  C   UNL     1       4.378   5.501  19.077  0.00  0.00    +0.000 C 
BRANCH  11  12
ATOM     12  C   UNL     1       5.252   5.301  17.858  0.00  0.00    +0.000 A 
ATOM     13  C   UNL     1       6.475   4.624  17.853  0.00  0.00    +0.000 A 
ATOM     14  C   UNL     1       7.208   4.491  16.663  0.00  0.00    +0.000 A 
ATOM     15  C   UNL     1       6.739   5.049  15.473  0.00  0.00    +0.000 A 
ATOM     16  C   UNL     1       5.533   5.742  15.467  0.00  0.00    +0.000 A 
ATOM     17  C   UNL     1       4.798   5.863  16.647  0.00  0.00    +0.000 A 
ENDBRANCH  11  12
ENDBRANCH   8  11
TORSDOF 2
ENDMDL
MODEL 9
REMARK VINA RESULT:      -6.4      2.043      2.961
REMARK  Name = 
REMARK  3 active torsions:
REMARK  status: ('A' for Active; 'I' for Inactive)
REMARK    1  A    between atoms: C_1  and  C_2
REMARK    2  A    between atoms: C_8  and  C_9
REMARK    3  A    between atoms: C_9  and  C_10
REMARK                            x       y       z     vdW  Elec       q    Type
REMARK                         _______ _______ _______ _____ _____    ______ ____
ROOT
ATOM      1  C   UNL     1       3.076   2.667  17.153  0.00  0.00    +0.000 C 
ATOM      2  C   UNL     1       2.319   2.733  18.454  0.00  0.00    +0.000 C 
ATOM      3  O   UNL     1       2.141   1.707  19.112  0.00  0.00    +0.000 OA
ATOM      4  N   UNL     1       1.875   3.974  18.871  0.00  0.00    +0.000 N 
ATOM      5  C   UNL     1       1.185   4.110  20.151  0.00  0.00    +0.000 C 
ATOM      6  C   UNL     1       1.853   5.175  21.045  0.00  0.00    +0.000 C 
ATOM      7  N   UNL     1       2.216   6.438  20.373  0.00  0.00    +0.000 NA
ATOM      8  C   UNL     1       2.897   6.236  19.070  0.00  0.00    +0.000 C 
ATOM      9  C   UNL     1       2.087   5.250  18.183  0.00  0.00    +0.000 C 
ATOM     10  H   UNL     1       2.821   6.969  20.999  0.00  0.00    +0.000 HD
ENDROOT
BRANCH   8  11
ATOM     11  C   UNL     1       4.369   5.745  19.158  0.00  0.00    +0.000 C 
BRANCH  11  12
ATOM     12  C   UNL     1       5.199   5.534  17.911  0.00  0.00    +0.000 A 
ATOM     13  C   UNL     1       4.876   6.025  16.642  0.00  0.00    +0.000 A 
ATOM     14  C   UNL     1       5.719   5.775  15.548  0.00  0.00    +0.000 A 
ATOM     15  C   UNL     1       6.881   5.018  15.705  0.00  0.00    +0.000 A 
ATOM     16  C   UNL     1       7.205   4.506  16.957  0.00  0.00    +0.000 A 
ATOM     17  C   UNL     1       6.373   4.766  18.047  0.00  0.00    +0.000 A 
ENDBRANCH  11  12
ENDBRANCH   8  11
TORSDOF 2
ENDMDL
