MODEL 1
REMARK VINA RESULT:      -9.0      0.000      0.000
REMARK  Name = 
REMARK  4 active torsions:
REMARK  status: ('A' for Active; 'I' for Inactive)
REMARK    1  A    between atoms: C_2  and  C_11
REMARK    2  A    between atoms: N_3  and  C_4
REMARK    3  A    between atoms: C_15  and  C_17
REMARK    4  A    between atoms: C_21  and  O_22
REMARK                            x       y       z     vdW  Elec       q    Type
REMARK                         _______ _______ _______ _____ _____    ______ ____
ROOT
ATOM      1  C   UNL     1       7.744   5.852  18.277  0.00  0.00    +0.000 C 
ATOM      2  C   UNL     1       7.354   4.991  17.069  0.00  0.00    +0.000 C 
ATOM      3  C   UNL     1       5.879   5.158  16.692  0.00  0.00    +0.000 C 
ATOM      4  N   UNL     1       5.019   4.893  17.844  0.00  0.00    +0.000 N 
ATOM      5  C   UNL     1       4.006   3.929  17.742  0.00  0.00    +0.000 C 
ATOM      6  O   UNL     1       3.880   3.202  16.746  0.00  0.00    +0.000 OA
ATOM      7  C   UNL     1       5.321   5.705  19.024  0.00  0.00    +0.000 C 
ATOM      8  C   UNL     1       6.780   5.615  19.435  0.00  0.00    +0.000 C 
ENDROOT
BRANCH   5   9
ATOM      9  C   UNL     1       3.059   3.709  18.880  0.00  0.00    +0.000 A 
ATOM     10  C   UNL     1       1.767   4.259  18.897  0.00  0.00    +0.000 A 
ATOM     11  C   UNL     1       0.972   4.193  20.039  0.00  0.00    +0.000 A 
ATOM     12  C   UNL     1       1.400   3.455  21.134  0.00  0.00    +0.000 A 
ATOM     13  C   UNL     1       2.629   2.805  21.080  0.00  0.00    +0.000 A 
ATOM     14  C   UNL     1       3.471   2.931  19.975  0.00  0.00    +0.000 A 
BRANCH  13  15
ATOM     15  O   UNL     1       3.053   2.039  22.123  0.00  0.00    +0.000 OA
ATOM     16  H   UNL     1       3.773   1.466  21.814  0.00  0.00    +0.000 HD
ENDBRANCH  13  15
ENDBRANCH   5   9
BRANCH   1  18
ATOM     17  O   UNL     1       7.218   7.792  16.967  0.00  0.00    +0.000 OA
ATOM     18  C   UNL     1       7.822   7.337  17.935  0.00  0.00    +0.000 C 
ATOM     19  N   UNL     1       8.569   8.077  18.837  0.00  0.00    +0.000 N 
ATOM     20  H   UNL     1       8.866   7.617  19.690  0.00  0.00    +0.000 HD
BRANCH  19  21
ATOM     21  C   UNL     1       8.786   9.471  18.759  0.00  0.00    +0.000 A 
ATOM     22  C   UNL     1       9.656  10.144  19.625  0.00  0.00    +0.000 A 
ATOM     23  C   UNL     1       9.847  11.522  19.527  0.00  0.00    +0.000 A 
ATOM     24  C   UNL     1       9.164  12.245  18.558  0.00  0.00    +0.000 A 
ATOM     25  C   UNL     1       8.297  11.581  17.699  0.00  0.00    +0.000 A 
ATOM     26  F   UNL     1       7.650  12.278  16.756  0.00  0.00    +0.000 F 
ATOM     27  C   UNL     1       8.094  10.205  17.792  0.00  0.00    +0.000 A 
ENDBRANCH  19  21
ENDBRANCH   1  18
TORSDOF 4
ENDMDL
MODEL 2
REMARK VINA RESULT:      -8.9      1.059      1.402
REMARK  Name = 
REMARK  4 active torsions:
REMARK  status: ('A' for Active; 'I' for Inactive)
REMARK    1  A    between atoms: C_2  and  C_11
REMARK    2  A    between atoms: N_3  and  C_4
REMARK    3  A    between atoms: C_15  and  C_17
REMARK    4  A    between atoms: C_21  and  O_22
REMARK                            x       y       z     vdW  Elec       q    Type
REMARK                         _______ _______ _______ _____ _____    ______ ____
ROOT
ATOM      1  C   UNL     1       7.677   5.955  18.154  0.00  0.00    +0.000 C 
ATOM      2  C   UNL     1       7.203   5.213  16.899  0.00  0.00    +0.000 C 
ATOM      3  C   UNL     1       5.711   5.428  16.630  0.00  0.00    +0.000 C 
ATOM      4  N   UNL     1       4.916   5.067  17.802  0.00  0.00    +0.000 N 
ATOM      5  C   UNL     1       3.885   4.127  17.676  0.00  0.00    +0.000 C 
ATOM      6  O   UNL     1       3.688   3.495  16.627  0.00  0.00    +0.000 OA
ATOM      7  C   UNL     1       5.301   5.766  19.031  0.00  0.00    +0.000 C 
ATOM      8  C   UNL     1       6.780   5.623  19.342  0.00  0.00    +0.000 C 
ENDROOT
BRANCH   5   9
ATOM      9  C   UNL     1       3.003   3.814  18.844  0.00  0.00    +0.000 A 
ATOM     10  C   UNL     1       1.685   4.289  18.938  0.00  0.00    +0.000 A 
ATOM     11  C   UNL     1       0.948   4.137  20.109  0.00  0.00    +0.000 A 
ATOM     12  C   UNL     1       1.465   3.386  21.156  0.00  0.00    +0.000 A 
ATOM     13  C   UNL     1       2.724   2.809  21.025  0.00  0.00    +0.000 A 
ATOM     14  C   UNL     1       3.507   3.022  19.890  0.00  0.00    +0.000 A 
BRANCH  13  15
ATOM     15  O   UNL     1       3.237   2.033  22.019  0.00  0.00    +0.000 OA
ATOM     16  H   UNL     1       3.852   1.393  21.626  0.00  0.00    +0.000 HD
ENDBRANCH  13  15
ENDBRANCH   5   9
BRANCH   1  18
ATOM     17  O   UNL     1       7.076   8.017  17.085  0.00  0.00    +0.000 OA
ATOM     18  C   UNL     1       7.758   7.465  17.945  0.00  0.00    +0.000 C 
ATOM     19  N   UNL     1       8.603   8.106  18.835  0.00  0.00    +0.000 N 
ATOM     20  H   UNL     1       8.969   7.564  19.610  0.00  0.00    +0.000 HD
BRANCH  19  21
ATOM     21  C   UNL     1       8.845   9.497  18.865  0.00  0.00    +0.000 A 
ATOM     22  C   UNL     1       8.630  10.320  17.753  0.00  0.00    +0.000 A 
ATOM     23  C   UNL     1       8.881  11.691  17.812  0.00  0.00    +0.000 A 
ATOM     24  C   UNL     1       9.357  12.255  18.989  0.00  0.00    +0.000 A 
ATOM     25  C   UNL     1       9.575  11.441  20.093  0.00  0.00    +0.000 A 
ATOM     26  F   UNL     1      10.020  11.989  21.231  0.00  0.00    +0.000 F 
ATOM     27  C   UNL     1       9.333  10.068  20.043  0.00  0.00    +0.000 A 
ENDBRANCH  19  21
ENDBRANCH   1  18
TORSDOF 4
ENDMDL
MODEL 3
REMARK VINA RESULT:      -8.6      1.715      1.986
REMARK  Name = 
REMARK  4 active torsions:
REMARK  status: ('A' for Active; 'I' for Inactive)
REMARK    1  A    between atoms: C_2  and  C_11
REMARK    2  A    between atoms: N_3  and  C_4
REMARK    3  A    between atoms: C_15  and  C_17
REMARK    4  A    between atoms: C_21  and  O_22
REMARK                            x       y       z     vdW  Elec       q    Type
REMARK                         _______ _______ _______ _____ _____    ______ ____
ROOT
ATOM      1  C   UNL     1       6.631   6.238  17.088  0.00  0.00    +0.000 C 
ATOM      2  C   UNL     1       5.433   6.981  16.484  0.00  0.00    +0.000 C 
ATOM      3  C   UNL     1       4.401   7.373  17.545  0.00  0.00    +0.000 C 
ATOM      4  N   UNL     1       3.978   6.202  18.311  0.00  0.00    +0.000 N 
ATOM      5  C   UNL     1       2.616   5.885  18.394  0.00  0.00    +0.000 C 
ATOM      6  O   UNL     1       1.752   6.494  17.744  0.00  0.00    +0.000 OA
ATOM      7  C   UNL     1       5.075   5.464  18.940  0.00  0.00    +0.000 C 
ATOM      8  C   UNL     1       6.157   5.072  17.949  0.00  0.00    +0.000 C 
ENDROOT
BRANCH   5   9
ATOM      9  C   UNL     1       2.157   4.745  19.248  0.00  0.00    +0.000 A 
ATOM     10  C   UNL     1       2.129   4.822  20.650  0.00  0.00    +0.000 A 
ATOM     11  C   UNL     1       1.872   3.695  21.427  0.00  0.00    +0.000 A 
ATOM     12  C   UNL     1       1.504   2.505  20.815  0.00  0.00    +0.000 A 
ATOM     13  C   UNL     1       1.414   2.452  19.427  0.00  0.00    +0.000 A 
ATOM     14  C   UNL     1       1.747   3.550  18.634  0.00  0.00    +0.000 A 
BRANCH  13  15
ATOM     15  O   UNL     1       1.013   1.310  18.803  0.00  0.00    +0.000 OA
ATOM     16  H   UNL     1       1.206   0.556  19.384  0.00  0.00    +0.000 HD
ENDBRANCH  13  15
ENDBRANCH   5   9
BRANCH   1  18
ATOM     17  O   UNL     1       8.279   6.711  18.766  0.00  0.00    +0.000 OA
ATOM     18  C   UNL     1       7.548   7.160  17.887  0.00  0.00    +0.000 C 
ATOM     19  N   UNL     1       7.501   8.482  17.479  0.00  0.00    +0.000 N 
ATOM     20  H   UNL     1       6.994   8.693  16.626  0.00  0.00    +0.000 HD
BRANCH  19  21
ATOM     21  C   UNL     1       8.260   9.533  18.041  0.00  0.00    +0.000 A 
ATOM     22  C   UNL     1       9.036   9.363  19.194  0.00  0.00    +0.000 A 
ATOM     23  C   UNL     1       9.773  10.420  19.729  0.00  0.00    +0.000 A 
ATOM     24  C   UNL     1       9.738  11.665  19.114  0.00  0.00    +0.000 A 
ATOM     25  C   UNL     1       8.966  11.838  17.972  0.00  0.00    +0.000 A 
ATOM     26  F   UNL     1       8.945  13.035  17.373  0.00  0.00    +0.000 F 
ATOM     27  C   UNL     1       8.221  10.790  17.433  0.00  0.00    +0.000 A 
ENDBRANCH  19  21
ENDBRANCH   1  18
TORSDOF 4
ENDMDL
MODEL 4
REMARK VINA RESULT:      -8.5      1.528      1.701
REMARK  Name = 
REMARK  4 active torsions:
REMARK  status: ('A' for Active; 'I' for Inactive)
REMARK    1  A    between atoms: C_2  and  C_11
REMARK    2  A    between atoms: N_3  and  C_4
REMARK    3  A    between atoms: C_15  and  C_17
REMARK    4  A    between atoms: C_21  and  O_22
REMARK                            x       y       z     vdW  Elec       q    Type
REMARK                         _______ _______ _______ _____ _____    ______ ____
ROOT
ATOM      1  C   UNL     1       6.763   6.228  17.012  0.00  0.00    +0.000 C 
ATOM      2  C   UNL     1       5.540   6.929  16.407  0.00  0.00    +0.000 C 
ATOM      3  C   UNL     1       4.462   7.219  17.455  0.00  0.00    +0.000 C 
ATOM      4  N   UNL     1       4.088   5.996  18.164  0.00  0.00    +0.000 N 
ATOM      5  C   UNL     1       2.744   5.601  18.199  0.00  0.00    +0.000 C 
ATOM      6  O   UNL     1       1.863   6.187  17.551  0.00  0.00    +0.000 OA
ATOM      7  C   UNL     1       5.210   5.294  18.791  0.00  0.00    +0.000 C 
ATOM      8  C   UNL     1       6.335   5.003  17.813  0.00  0.00    +0.000 C 
ENDROOT
BRANCH   5   9
ATOM      9  C   UNL     1       2.331   4.403  18.995  0.00  0.00    +0.000 A 
ATOM     10  C   UNL     1       1.724   3.283  18.403  0.00  0.00    +0.000 A 
ATOM     11  C   UNL     1       1.187   2.261  19.182  0.00  0.00    +0.000 A 
ATOM     12  C   UNL     1       1.370   2.275  20.558  0.00  0.00    +0.000 A 
ATOM     13  C   UNL     1       2.075   3.323  21.142  0.00  0.00    +0.000 A 
ATOM     14  C   UNL     1       2.548   4.393  20.383  0.00  0.00    +0.000 A 
BRANCH  13  15
ATOM     15  O   UNL     1       2.306   3.339  22.484  0.00  0.00    +0.000 OA
ATOM     16  H   UNL     1       2.501   2.433  22.775  0.00  0.00    +0.000 HD
ENDBRANCH  13  15
ENDBRANCH   5   9
BRANCH   1  18
ATOM     17  O   UNL     1       8.256   6.734  18.819  0.00  0.00    +0.000 OA
ATOM     18  C   UNL     1       7.608   7.166  17.869  0.00  0.00    +0.000 C 
ATOM     19  N   UNL     1       7.601   8.479  17.432  0.00  0.00    +0.000 N 
ATOM     20  H   UNL     1       7.172   8.673  16.534  0.00  0.00    +0.000 HD
BRANCH  19  21
ATOM     21  C   UNL     1       8.310   9.540  18.038  0.00  0.00    +0.000 A 
ATOM     22  C   UNL     1       9.010   9.384  19.240  0.00  0.00    +0.000 A 
ATOM     23  C   UNL     1       9.699  10.451  19.817  0.00  0.00    +0.000 A 
ATOM     24  C   UNL     1       9.690  11.694  19.195  0.00  0.00    +0.000 A 
ATOM     25  C   UNL     1       8.993  11.854  18.004  0.00  0.00    +0.000 A 
ATOM     26  F   UNL     1       8.997  13.048  17.399  0.00  0.00    +0.000 F 
ATOM     27  C   UNL     1       8.296  10.794  17.422  0.00  0.00    +0.000 A 
ENDBRANCH  19  21
ENDBRANCH   1  18
TORSDOF 4
ENDMDL
MODEL 5
REMARK VINA RESULT:      -8.5      4.267      6.118
REMARK  Name = 
REMARK  4 active torsions:
REMARK  status: ('A' for Active; 'I' for Inactive)
REMARK    1  A    between atoms: C_2  and  C_11
REMARK    2  A    between atoms: N_3  and  C_4
REMARK    3  A    between atoms: C_15  and  C_17
REMARK    4  A    between atoms: C_21  and  O_22
REMARK                            x       y       z     vdW  Elec       q    Type
REMARK                         _______ _______ _______ _____ _____    ______ ____
ROOT
ATOM      1  C   UNL     1       7.144   5.834  18.132  0.00  0.00    +0.000 C 
ATOM      2  C   UNL     1       6.488   4.968  19.214  0.00  0.00    +0.000 C 
ATOM      3  C   UNL     1       5.020   4.664  18.900  0.00  0.00    +0.000 C 
ATOM      4  N   UNL     1       4.274   5.901  18.672  0.00  0.00    +0.000 N 
ATOM      5  C   UNL     1       3.124   6.163  19.428  0.00  0.00    +0.000 C 
ATOM      6  O   UNL     1       2.771   5.441  20.372  0.00  0.00    +0.000 OA
ATOM      7  C   UNL     1       4.835   6.761  17.628  0.00  0.00    +0.000 C 
ATOM      8  C   UNL     1       6.302   7.075  17.858  0.00  0.00    +0.000 C 
ENDROOT
BRANCH   5   9
ATOM      9  C   UNL     1       2.298   7.379  19.147  0.00  0.00    +0.000 A 
ATOM     10  C   UNL     1       2.107   7.870  17.845  0.00  0.00    +0.000 A 
ATOM     11  C   UNL     1       1.488   9.099  17.623  0.00  0.00    +0.000 A 
ATOM     12  C   UNL     1       0.927   9.789  18.689  0.00  0.00    +0.000 A 
ATOM     13  C   UNL     1       1.008   9.251  19.969  0.00  0.00    +0.000 A 
ATOM     14  C   UNL     1       1.696   8.063  20.216  0.00  0.00    +0.000 A 
BRANCH  13  15
ATOM     15  O   UNL     1       0.429   9.887  21.025  0.00  0.00    +0.000 OA
ATOM     16  H   UNL     1       1.051  10.550  21.365  0.00  0.00    +0.000 HD
ENDBRANCH  13  15
ENDBRANCH   5   9
BRANCH   1  18
ATOM     17  O   UNL     1       8.100   4.049  16.845  0.00  0.00    +0.000 OA
ATOM     18  C   UNL     1       7.403   5.061  16.842  0.00  0.00    +0.000 C 
ATOM     19  N   UNL     1       6.742   5.578  15.741  0.00  0.00    +0.000 N 
ATOM     20  H   UNL     1       6.057   6.307  15.904  0.00  0.00    +0.000 HD
BRANCH  19  21
ATOM     21  C   UNL     1       6.801   5.043  14.435  0.00  0.00    +0.000 A 
ATOM     22  C   UNL     1       7.772   5.437  13.506  0.00  0.00    +0.000 A 
ATOM     23  C   UNL     1       7.802   4.894  12.222  0.00  0.00    +0.000 A 
ATOM     24  C   UNL     1       6.854   3.949  11.850  0.00  0.00    +0.000 A 
ATOM     25  C   UNL     1       5.887   3.559  12.767  0.00  0.00    +0.000 A 
ATOM     26  F   UNL     1       4.983   2.637  12.412  0.00  0.00    +0.000 F 
ATOM     27  C   UNL     1       5.844   4.100  14.052  0.00  0.00    +0.000 A 
ENDBRANCH  19  21
ENDBRANCH   1  18
TORSDOF 4
ENDMDL
MODEL 6
REMARK VINA RESULT:      -8.3      4.488      7.125
REMARK  Name = 
REMARK  4 active torsions:
REMARK  status: ('A' for Active; 'I' for Inactive)
REMARK    1  A    between atoms: C_2  and  C_11
REMARK    2  A    between atoms: N_3  and  C_4
REMARK    3  A    between atoms: C_15  and  C_17
REMARK    4  A    between atoms: C_21  and  O_22
REMARK                            x       y       z     vdW  Elec       q    Type
REMARK                         _______ _______ _______ _____ _____    ______ ____
ROOT
ATOM      1  C   UNL     1       3.292   3.452  18.614  0.00  0.00    +0.000 C 
ATOM      2  C   UNL     1       4.714   3.495  19.186  0.00  0.00    +0.000 C 
ATOM      3  C   UNL     1       5.549   4.623  18.574  0.00  0.00    +0.000 C 
ATOM      4  N   UNL     1       5.557   4.529  17.116  0.00  0.00    +0.000 N 
ATOM      5  C   UNL     1       6.779   4.469  16.434  0.00  0.00    +0.000 C 
ATOM      6  O   UNL     1       7.865   4.376  17.025  0.00  0.00    +0.000 OA
ATOM      7  C   UNL     1       4.226   4.514  16.504  0.00  0.00    +0.000 C 
ATOM      8  C   UNL     1       3.329   3.437  17.089  0.00  0.00    +0.000 C 
ENDROOT
BRANCH   5   9
ATOM      9  C   UNL     1       6.808   4.464  14.937  0.00  0.00    +0.000 A 
ATOM     10  C   UNL     1       6.060   3.551  14.176  0.00  0.00    +0.000 A 
ATOM     11  C   UNL     1       6.239   3.446  12.799  0.00  0.00    +0.000 A 
ATOM     12  C   UNL     1       7.066   4.346  12.141  0.00  0.00    +0.000 A 
ATOM     13  C   UNL     1       7.720   5.332  12.874  0.00  0.00    +0.000 A 
ATOM     14  C   UNL     1       7.613   5.397  14.263  0.00  0.00    +0.000 A 
BRANCH  13  15
ATOM     15  O   UNL     1       8.503   6.254  12.248  0.00  0.00    +0.000 OA
ATOM     16  H   UNL     1       9.057   5.798  11.595  0.00  0.00    +0.000 HD
ENDBRANCH  13  15
ENDBRANCH   5   9
BRANCH   1  18
ATOM     17  O   UNL     1       1.439   4.380  19.823  0.00  0.00    +0.000 OA
ATOM     18  C   UNL     1       2.423   4.600  19.121  0.00  0.00    +0.000 C 
ATOM     19  N   UNL     1       2.891   5.853  18.762  0.00  0.00    +0.000 N 
ATOM     20  H   UNL     1       3.809   5.908  18.336  0.00  0.00    +0.000 HD
BRANCH  19  21
ATOM     21  C   UNL     1       2.282   7.078  19.115  0.00  0.00    +0.000 A 
ATOM     22  C   UNL     1       2.064   8.102  18.186  0.00  0.00    +0.000 A 
ATOM     23  C   UNL     1       1.463   9.303  18.564  0.00  0.00    +0.000 A 
ATOM     24  C   UNL     1       1.076   9.494  19.885  0.00  0.00    +0.000 A 
ATOM     25  C   UNL     1       1.294   8.481  20.810  0.00  0.00    +0.000 A 
ATOM     26  F   UNL     1       0.907   8.661  22.080  0.00  0.00    +0.000 F 
ATOM     27  C   UNL     1       1.899   7.279  20.443  0.00  0.00    +0.000 A 
ENDBRANCH  19  21
ENDBRANCH   1  18
TORSDOF 4
ENDMDL
MODEL 7
REMARK VINA RESULT:      -8.3      4.284      6.958
REMARK  Name = 
REMARK  4 active torsions:
REMARK  status: ('A' for Active; 'I' for Inactive)
REMARK    1  A    between atoms: C_2  and  C_11
REMARK    2  A    between atoms: N_3  and  C_4
REMARK    3  A    between atoms: C_15  and  C_17
REMARK    4  A    between atoms: C_21  and  O_22
REMARK                            x       y       z     vdW  Elec       q    Type
REMARK                         _______ _______ _______ _____ _____    ______ ____
ROOT
ATOM      1  C   UNL     1       3.243   3.424  18.696  0.00  0.00    +0.000 C 
ATOM      2  C   UNL     1       4.661   3.504  19.273  0.00  0.00    +0.000 C 
ATOM      3  C   UNL     1       5.475   4.642  18.650  0.00  0.00    +0.000 C 
ATOM      4  N   UNL     1       5.491   4.529  17.193  0.00  0.00    +0.000 N 
ATOM      5  C   UNL     1       6.717   4.486  16.516  0.00  0.00    +0.000 C 
ATOM      6  O   UNL     1       7.802   4.424  17.113  0.00  0.00    +0.000 OA
ATOM      7  C   UNL     1       4.163   4.477  16.577  0.00  0.00    +0.000 C 
ATOM      8  C   UNL     1       3.287   3.390  17.172  0.00  0.00    +0.000 C 
ENDROOT
BRANCH   5   9
ATOM      9  C   UNL     1       6.752   4.462  15.020  0.00  0.00    +0.000 A 
ATOM     10  C   UNL     1       5.997   3.549  14.267  0.00  0.00    +0.000 A 
ATOM     11  C   UNL     1       6.181   3.425  12.892  0.00  0.00    +0.000 A 
ATOM     12  C   UNL     1       7.021   4.307  12.227  0.00  0.00    +0.000 A 
ATOM     13  C   UNL     1       7.683   5.295  12.950  0.00  0.00    +0.000 A 
ATOM     14  C   UNL     1       7.571   5.378  14.338  0.00  0.00    +0.000 A 
BRANCH  13  15
ATOM     15  O   UNL     1       8.479   6.200  12.317  0.00  0.00    +0.000 OA
ATOM     16  H   UNL     1       9.278   6.336  12.851  0.00  0.00    +0.000 HD
ENDBRANCH  13  15
ENDBRANCH   5   9
BRANCH   1  18
ATOM     17  O   UNL     1       1.290   4.321  19.761  0.00  0.00    +0.000 OA
ATOM     18  C   UNL     1       2.348   4.559  19.185  0.00  0.00    +0.000 C 
ATOM     19  N   UNL     1       2.877   5.820  18.964  0.00  0.00    +0.000 N 
ATOM     20  H   UNL     1       3.837   5.877  18.643  0.00  0.00    +0.000 HD
BRANCH  19  21
ATOM     21  C   UNL     1       2.258   7.035  19.332  0.00  0.00    +0.000 A 
ATOM     22  C   UNL     1       1.767   7.265  20.622  0.00  0.00    +0.000 A 
ATOM     23  C   UNL     1       1.157   8.474  20.956  0.00  0.00    +0.000 A 
ATOM     24  C   UNL     1       1.029   9.470  19.996  0.00  0.00    +0.000 A 
ATOM     25  C   UNL     1       1.513   9.244  18.713  0.00  0.00    +0.000 A 
ATOM     26  F   UNL     1       1.402  10.210  17.793  0.00  0.00    +0.000 F 
ATOM     27  C   UNL     1       2.119   8.036  18.368  0.00  0.00    +0.000 A 
ENDBRANCH  19  21
ENDBRANCH   1  18
TORSDOF 4
ENDMDL
MODEL 8
REMARK VINA RESULT:      -8.3      1.415      1.935
REMARK  Name = 
REMARK  4 active torsions:
REMARK  status: ('A' for Active; 'I' for Inactive)
REMARK    1  A    between atoms: C_2  and  C_11
REMARK    2  A    between atoms: N_3  and  C_4
REMARK    3  A    between atoms: C_15  and  C_17
REMARK    4  A    between atoms: C_21  and  O_22
REMARK                            x       y       z     vdW  Elec       q    Type
REMARK                         _______ _______ _______ _____ _____    ______ ____
ROOT
ATOM      1  C   UNL     1       7.914   6.213  18.043  0.00  0.00    +0.000 C 
ATOM      2  C   UNL     1       7.369   5.533  16.781  0.00  0.00    +0.000 C 
ATOM      3  C   UNL     1       5.848   5.662  16.666  0.00  0.00    +0.000 C 
ATOM      4  N   UNL     1       5.193   5.162  17.873  0.00  0.00    +0.000 N 
ATOM      5  C   UNL     1       4.215   4.164  17.766  0.00  0.00    +0.000 C 
ATOM      6  O   UNL     1       3.959   3.598  16.693  0.00  0.00    +0.000 OA
ATOM      7  C   UNL     1       5.649   5.794  19.113  0.00  0.00    +0.000 C 
ATOM      8  C   UNL     1       7.157   5.733  19.277  0.00  0.00    +0.000 C 
ENDROOT
BRANCH   5   9
ATOM      9  C   UNL     1       3.471   3.705  18.981  0.00  0.00    +0.000 A 
ATOM     10  C   UNL     1       4.037   2.828  19.920  0.00  0.00    +0.000 A 
ATOM     11  C   UNL     1       3.269   2.274  20.941  0.00  0.00    +0.000 A 
ATOM     12  C   UNL     1       1.959   2.696  21.124  0.00  0.00    +0.000 A 
ATOM     13  C   UNL     1       1.426   3.656  20.269  0.00  0.00    +0.000 A 
ATOM     14  C   UNL     1       2.158   4.158  19.193  0.00  0.00    +0.000 A 
BRANCH  13  15
ATOM     15  O   UNL     1       0.159   4.119  20.453  0.00  0.00    +0.000 OA
ATOM     16  H   UNL     1       0.047   4.353  21.388  0.00  0.00    +0.000 HD
ENDBRANCH  13  15
ENDBRANCH   5   9
BRANCH   1  18
ATOM     17  O   UNL     1       7.075   8.300  17.211  0.00  0.00    +0.000 OA
ATOM     18  C   UNL     1       7.880   7.735  17.948  0.00  0.00    +0.000 C 
ATOM     19  N   UNL     1       8.777   8.367  18.792  0.00  0.00    +0.000 N 
ATOM     20  H   UNL     1       9.257   7.796  19.479  0.00  0.00    +0.000 HD
BRANCH  19  21
ATOM     21  C   UNL     1       8.936   9.766  18.908  0.00  0.00    +0.000 A 
ATOM     22  C   UNL     1       8.775  10.631  17.819  0.00  0.00    +0.000 A 
ATOM     23  C   UNL     1       8.942  12.008  17.963  0.00  0.00    +0.000 A 
ATOM     24  C   UNL     1       9.277  12.537  19.204  0.00  0.00    +0.000 A 
ATOM     25  C   UNL     1       9.441  11.680  20.285  0.00  0.00    +0.000 A 
ATOM     26  F   UNL     1       9.749  12.192  21.483  0.00  0.00    +0.000 F 
ATOM     27  C   UNL     1       9.282  10.301  20.151  0.00  0.00    +0.000 A 
ENDBRANCH  19  21
ENDBRANCH   1  18
TORSDOF 4
ENDMDL
MODEL 9
REMARK VINA RESULT:      -8.2      4.466      7.082
REMARK  Name = 
REMARK  4 active torsions:
REMARK  status: ('A' for Active; 'I' for Inactive)
REMARK    1  A    between atoms: C_2  and  C_11
REMARK    2  A    between atoms: N_3  and  C_4
REMARK    3  A    between atoms: C_15  and  C_17
REMARK    4  A    between atoms: C_21  and  O_22
REMARK                            x       y       z     vdW  Elec       q    Type
REMARK                         _______ _______ _______ _____ _____    ______ ____
ROOT
ATOM      1  C   UNL     1       3.455   3.577  18.319  0.00  0.00    +0.000 C 
ATOM      2  C   UNL     1       4.844   3.817  18.924  0.00  0.00    +0.000 C 
ATOM      3  C   UNL     1       5.597   4.946  18.213  0.00  0.00    +0.000 C 
ATOM      4  N   UNL     1       5.671   4.691  16.775  0.00  0.00    +0.000 N 
ATOM      5  C   UNL     1       6.920   4.673  16.141  0.00  0.00    +0.000 C 
ATOM      6  O   UNL     1       7.986   4.749  16.771  0.00  0.00    +0.000 OA
ATOM      7  C   UNL     1       4.373   4.482  16.131  0.00  0.00    +0.000 C 
ATOM      8  C   UNL     1       3.555   3.396  16.808  0.00  0.00    +0.000 C 
ENDROOT
BRANCH   5   9
ATOM      9  C   UNL     1       7.009   4.504  14.656  0.00  0.00    +0.000 A 
ATOM     10  C   UNL     1       7.792   5.347  13.852  0.00  0.00    +0.000 A 
ATOM     11  C   UNL     1       7.720   5.287  12.462  0.00  0.00    +0.000 A 
ATOM     12  C   UNL     1       6.968   4.290  11.855  0.00  0.00    +0.000 A 
ATOM     13  C   UNL     1       6.283   3.374  12.646  0.00  0.00    +0.000 A 
ATOM     14  C   UNL     1       6.282   3.473  14.038  0.00  0.00    +0.000 A 
BRANCH  13  15
ATOM     15  O   UNL     1       5.574   2.360  12.077  0.00  0.00    +0.000 OA
ATOM     16  H   UNL     1       5.488   1.641  12.723  0.00  0.00    +0.000 HD
ENDBRANCH  13  15
ENDBRANCH   5   9
BRANCH   1  18
ATOM     17  O   UNL     1       1.269   4.443  18.788  0.00  0.00    +0.000 OA
ATOM     18  C   UNL     1       2.467   4.686  18.666  0.00  0.00    +0.000 C 
ATOM     19  N   UNL     1       3.062   5.919  18.873  0.00  0.00    +0.000 N 
ATOM     20  H   UNL     1       4.074   5.949  18.919  0.00  0.00    +0.000 HD
BRANCH  19  21
ATOM     21  C   UNL     1       2.375   7.104  19.219  0.00  0.00    +0.000 A 
ATOM     22  C   UNL     1       2.142   8.131  18.297  0.00  0.00    +0.000 A 
ATOM     23  C   UNL     1       1.464   9.292  18.669  0.00  0.00    +0.000 A 
ATOM     24  C   UNL     1       1.013   9.439  19.975  0.00  0.00    +0.000 A 
ATOM     25  C   UNL     1       1.246   8.423  20.893  0.00  0.00    +0.000 A 
ATOM     26  F   UNL     1       0.797   8.560  22.147  0.00  0.00    +0.000 F 
ATOM     27  C   UNL     1       1.928   7.261  20.533  0.00  0.00    +0.000 A 
ENDBRANCH  19  21
ENDBRANCH   1  18
TORSDOF 4
ENDMDL
