MODEL 1
REMARK VINA RESULT:      -7.0      0.000      0.000
REMARK  Name = 
REMARK  1 active torsions:
REMARK  status: ('A' for Active; 'I' for Inactive)
REMARK    1  A    between atoms: N_7  and  C_8
REMARK                            x       y       z     vdW  Elec       q    Type
REMARK                         _______ _______ _______ _____ _____    ______ ____
ROOT
ATOM      1  O   UNL     1       7.715   6.701  16.589  0.00  0.00    +0.000 OA
ATOM      2  C   UNL     1       6.760   6.003  16.311  0.00  0.00    +0.000 C 
ATOM      3  N   UNL     1       6.400   5.605  15.027  0.00  0.00    +0.000 N 
ATOM      4  C   UNL     1       5.458   4.506  15.099  0.00  0.00    +0.000 C 
ATOM      5  C   UNL     1       4.822   4.719  16.467  0.00  0.00    +0.000 C 
ATOM      6  C   UNL     1       4.348   3.468  17.213  0.00  0.00    +0.000 C 
ATOM      7  N   UNL     1       3.894   3.772  18.605  0.00  0.00    +0.000 NA
ATOM      8  C   UNL     1       5.063   4.334  19.335  0.00  0.00    +0.000 C 
ATOM      9  C   UNL     1       5.985   5.364  18.629  0.00  0.00    +0.000 C 
ATOM     10  N   UNL     1       5.877   5.392  17.187  0.00  0.00    +0.000 N 
ATOM     11  H   UNL     1       7.045   5.787  14.271  0.00  0.00    +0.000 HD
ENDROOT
BRANCH   7  12
ATOM     12  C   UNL     1       2.655   4.596  18.646  0.00  0.00    +0.000 C 
ATOM     13  C   UNL     1       1.431   3.787  18.141  0.00  0.00    +0.000 C 
ATOM     14  C   UNL     1       0.949   2.767  19.171  0.00  0.00    +0.000 C 
ATOM     15  O   UNL     1       0.634   3.402  20.409  0.00  0.00    +0.000 OA
ATOM     16  C   UNL     1       1.769   4.061  20.969  0.00  0.00    +0.000 C 
ATOM     17  C   UNL     1       2.252   5.156  20.029  0.00  0.00    +0.000 C 
ENDBRANCH   7  12
TORSDOF 1
ENDMDL
MODEL 2
REMARK VINA RESULT:      -7.0      1.480      5.829
REMARK  Name = 
REMARK  1 active torsions:
REMARK  status: ('A' for Active; 'I' for Inactive)
REMARK    1  A    between atoms: N_7  and  C_8
REMARK                            x       y       z     vdW  Elec       q    Type
REMARK                         _______ _______ _______ _____ _____    ______ ____
ROOT
ATOM      1  O   UNL     1       0.174   2.139  18.914  0.00  0.00    +0.000 OA
ATOM      2  C   UNL     1       0.933   3.042  19.209  0.00  0.00    +0.000 C 
ATOM      3  N   UNL     1       0.717   3.979  20.215  0.00  0.00    +0.000 N 
ATOM      4  C   UNL     1       1.959   4.656  20.529  0.00  0.00    +0.000 C 
ATOM      5  C   UNL     1       2.741   4.511  19.230  0.00  0.00    +0.000 C 
ATOM      6  C   UNL     1       4.267   4.430  19.344  0.00  0.00    +0.000 C 
ATOM      7  N   UNL     1       4.920   4.124  18.034  0.00  0.00    +0.000 NA
ATOM      8  C   UNL     1       4.416   2.796  17.591  0.00  0.00    +0.000 C 
ATOM      9  C   UNL     1       2.910   2.456  17.749  0.00  0.00    +0.000 C 
ATOM     10  N   UNL     1       2.189   3.294  18.682  0.00  0.00    +0.000 N 
ATOM     11  H   UNL     1      -0.057   3.833  20.847  0.00  0.00    +0.000 HD
ENDROOT
BRANCH   7  12
ATOM     12  C   UNL     1       4.783   5.227  17.043  0.00  0.00    +0.000 C 
ATOM     13  C   UNL     1       5.561   6.488  17.501  0.00  0.00    +0.000 C 
ATOM     14  C   UNL     1       7.070   6.332  17.321  0.00  0.00    +0.000 C 
ATOM     15  O   UNL     1       7.392   6.028  15.963  0.00  0.00    +0.000 OA
ATOM     16  C   UNL     1       6.789   4.807  15.538  0.00  0.00    +0.000 C 
ATOM     17  C   UNL     1       5.273   4.922  15.610  0.00  0.00    +0.000 C 
ENDBRANCH   7  12
TORSDOF 1
ENDMDL
MODEL 3
REMARK VINA RESULT:      -6.8      1.400      2.206
REMARK  Name = 
REMARK  1 active torsions:
REMARK  status: ('A' for Active; 'I' for Inactive)
REMARK    1  A    between atoms: N_7  and  C_8
REMARK                            x       y       z     vdW  Elec       q    Type
REMARK                         _______ _______ _______ _____ _____    ______ ____
ROOT
ATOM      1  O   UNL     1       7.756   4.610  15.560  0.00  0.00    +0.000 OA
ATOM      2  C   UNL     1       7.077   5.260  16.331  0.00  0.00    +0.000 C 
ATOM      3  N   UNL     1       7.361   6.552  16.761  0.00  0.00    +0.000 N 
ATOM      4  C   UNL     1       6.181   7.141  17.362  0.00  0.00    +0.000 C 
ATOM      5  C   UNL     1       5.408   5.910  17.821  0.00  0.00    +0.000 C 
ATOM      6  C   UNL     1       3.879   6.017  17.835  0.00  0.00    +0.000 C 
ATOM      7  N   UNL     1       3.220   4.710  18.139  0.00  0.00    +0.000 NA
ATOM      8  C   UNL     1       3.609   3.760  17.062  0.00  0.00    +0.000 C 
ATOM      9  C   UNL     1       5.077   3.733  16.558  0.00  0.00    +0.000 C 
ATOM     10  N   UNL     1       5.856   4.908  16.883  0.00  0.00    +0.000 N 
ATOM     11  H   UNL     1       8.110   7.055  16.306  0.00  0.00    +0.000 HD
ENDROOT
BRANCH   7  12
ATOM     12  C   UNL     1       3.470   4.243  19.531  0.00  0.00    +0.000 C 
ATOM     13  C   UNL     1       2.515   4.942  20.534  0.00  0.00    +0.000 C 
ATOM     14  C   UNL     1       1.094   4.388  20.459  0.00  0.00    +0.000 C 
ATOM     15  O   UNL     1       1.084   2.978  20.680  0.00  0.00    +0.000 OA
ATOM     16  C   UNL     1       1.858   2.284  19.704  0.00  0.00    +0.000 C 
ATOM     17  C   UNL     1       3.312   2.726  19.780  0.00  0.00    +0.000 C 
ENDBRANCH   7  12
TORSDOF 1
ENDMDL
MODEL 4
REMARK VINA RESULT:      -6.8      1.591      5.526
REMARK  Name = 
REMARK  1 active torsions:
REMARK  status: ('A' for Active; 'I' for Inactive)
REMARK    1  A    between atoms: N_7  and  C_8
REMARK                            x       y       z     vdW  Elec       q    Type
REMARK                         _______ _______ _______ _____ _____    ______ ____
ROOT
ATOM      1  O   UNL     1       1.512   2.691  21.156  0.00  0.00    +0.000 OA
ATOM      2  C   UNL     1       2.046   2.652  20.065  0.00  0.00    +0.000 C 
ATOM      3  N   UNL     1       1.857   1.658  19.111  0.00  0.00    +0.000 N 
ATOM      4  C   UNL     1       2.344   2.112  17.824  0.00  0.00    +0.000 C 
ATOM      5  C   UNL     1       3.385   3.150  18.224  0.00  0.00    +0.000 C 
ATOM      6  C   UNL     1       3.601   4.323  17.263  0.00  0.00    +0.000 C 
ATOM      7  N   UNL     1       4.517   5.361  17.827  0.00  0.00    +0.000 NA
ATOM      8  C   UNL     1       3.878   5.886  19.065  0.00  0.00    +0.000 C 
ATOM      9  C   UNL     1       3.199   4.900  20.053  0.00  0.00    +0.000 C 
ATOM     10  N   UNL     1       2.883   3.601  19.501  0.00  0.00    +0.000 N 
ATOM     11  H   UNL     1       1.121   0.982  19.263  0.00  0.00    +0.000 HD
ENDROOT
BRANCH   7  12
ATOM     12  C   UNL     1       5.917   4.879  17.981  0.00  0.00    +0.000 C 
ATOM     13  C   UNL     1       6.443   4.263  16.659  0.00  0.00    +0.000 C 
ATOM     14  C   UNL     1       6.782   5.329  15.619  0.00  0.00    +0.000 C 
ATOM     15  O   UNL     1       7.734   6.259  16.134  0.00  0.00    +0.000 OA
ATOM     16  C   UNL     1       7.240   6.938  17.288  0.00  0.00    +0.000 C 
ATOM     17  C   UNL     1       6.962   5.939  18.401  0.00  0.00    +0.000 C 
ENDBRANCH   7  12
TORSDOF 1
ENDMDL
MODEL 5
REMARK VINA RESULT:      -6.8      1.442      2.246
REMARK  Name = 
REMARK  1 active torsions:
REMARK  status: ('A' for Active; 'I' for Inactive)
REMARK    1  A    between atoms: N_7  and  C_8
REMARK                            x       y       z     vdW  Elec       q    Type
REMARK                         _______ _______ _______ _____ _____    ______ ____
ROOT
ATOM      1  O   UNL     1       6.600   5.569  14.763  0.00  0.00    +0.000 OA
ATOM      2  C   UNL     1       6.662   5.117  15.890  0.00  0.00    +0.000 C 
ATOM      3  N   UNL     1       7.822   4.669  16.515  0.00  0.00    +0.000 N 
ATOM      4  C   UNL     1       7.596   4.551  17.942  0.00  0.00    +0.000 C 
ATOM      5  C   UNL     1       6.088   4.343  18.011  0.00  0.00    +0.000 C 
ATOM      6  C   UNL     1       5.371   4.874  19.256  0.00  0.00    +0.000 C 
ATOM      7  N   UNL     1       3.883   4.766  19.146  0.00  0.00    +0.000 NA
ATOM      8  C   UNL     1       3.468   5.594  17.982  0.00  0.00    +0.000 C 
ATOM      9  C   UNL     1       4.298   5.546  16.672  0.00  0.00    +0.000 C 
ATOM     10  N   UNL     1       5.637   5.017  16.816  0.00  0.00    +0.000 N 
ATOM     11  H   UNL     1       8.708   4.852  16.066  0.00  0.00    +0.000 HD
ENDROOT
BRANCH   7  12
ATOM     12  C   UNL     1       3.401   3.357  19.139  0.00  0.00    +0.000 C 
ATOM     13  C   UNL     1       3.505   2.725  20.552  0.00  0.00    +0.000 C 
ATOM     14  C   UNL     1       2.416   3.235  21.493  0.00  0.00    +0.000 C 
ATOM     15  O   UNL     1       1.118   2.997  20.948  0.00  0.00    +0.000 OA
ATOM     16  C   UNL     1       0.940   3.662  19.699  0.00  0.00    +0.000 C 
ATOM     17  C   UNL     1       1.942   3.138  18.681  0.00  0.00    +0.000 C 
ENDBRANCH   7  12
TORSDOF 1
ENDMDL
MODEL 6
REMARK VINA RESULT:      -6.7      1.702      5.850
REMARK  Name = 
REMARK  1 active torsions:
REMARK  status: ('A' for Active; 'I' for Inactive)
REMARK    1  A    between atoms: N_7  and  C_8
REMARK                            x       y       z     vdW  Elec       q    Type
REMARK                         _______ _______ _______ _____ _____    ______ ____
ROOT
ATOM      1  O   UNL     1      -0.076   2.497  18.884  0.00  0.00    +0.000 OA
ATOM      2  C   UNL     1       0.932   2.795  19.494  0.00  0.00    +0.000 C 
ATOM      3  N   UNL     1       1.066   2.790  20.879  0.00  0.00    +0.000 N 
ATOM      4  C   UNL     1       2.470   2.835  21.237  0.00  0.00    +0.000 C 
ATOM      5  C   UNL     1       3.090   3.501  20.015  0.00  0.00    +0.000 C 
ATOM      6  C   UNL     1       4.528   3.106  19.665  0.00  0.00    +0.000 C 
ATOM      7  N   UNL     1       4.978   3.688  18.363  0.00  0.00    +0.000 NA
ATOM      8  C   UNL     1       4.078   3.151  17.307  0.00  0.00    +0.000 C 
ATOM      9  C   UNL     1       2.552   3.061  17.574  0.00  0.00    +0.000 C 
ATOM     10  N   UNL     1       2.171   3.123  18.968  0.00  0.00    +0.000 N 
ATOM     11  H   UNL     1       0.324   2.381  21.430  0.00  0.00    +0.000 HD
ENDROOT
BRANCH   7  12
ATOM     12  C   UNL     1       5.110   5.171  18.404  0.00  0.00    +0.000 C 
ATOM     13  C   UNL     1       6.405   5.595  19.145  0.00  0.00    +0.000 C 
ATOM     14  C   UNL     1       7.655   5.373  18.296  0.00  0.00    +0.000 C 
ATOM     15  O   UNL     1       7.557   6.067  17.052  0.00  0.00    +0.000 OA
ATOM     16  C   UNL     1       6.441   5.619  16.284  0.00  0.00    +0.000 C 
ATOM     17  C   UNL     1       5.147   5.891  17.037  0.00  0.00    +0.000 C 
ENDBRANCH   7  12
TORSDOF 1
ENDMDL
MODEL 7
REMARK VINA RESULT:      -6.7      0.959      1.011
REMARK  Name = 
REMARK  1 active torsions:
REMARK  status: ('A' for Active; 'I' for Inactive)
REMARK    1  A    between atoms: N_7  and  C_8
REMARK                            x       y       z     vdW  Elec       q    Type
REMARK                         _______ _______ _______ _____ _____    ______ ____
ROOT
ATOM      1  O   UNL     1       8.131   6.934  18.436  0.00  0.00    +0.000 OA
ATOM      2  C   UNL     1       7.317   6.422  17.692  0.00  0.00    +0.000 C 
ATOM      3  N   UNL     1       7.370   6.448  16.302  0.00  0.00    +0.000 N 
ATOM      4  C   UNL     1       6.471   5.450  15.757  0.00  0.00    +0.000 C 
ATOM      5  C   UNL     1       5.447   5.298  16.875  0.00  0.00    +0.000 C 
ATOM      6  C   UNL     1       4.792   3.922  17.033  0.00  0.00    +0.000 C 
ATOM      7  N   UNL     1       3.934   3.837  18.255  0.00  0.00    +0.000 NA
ATOM      8  C   UNL     1       4.816   4.070  19.430  0.00  0.00    +0.000 C 
ATOM      9  C   UNL     1       5.889   5.190  19.373  0.00  0.00    +0.000 C 
ATOM     10  N   UNL     1       6.222   5.649  18.042  0.00  0.00    +0.000 N 
ATOM     11  H   UNL     1       8.210   6.795  15.861  0.00  0.00    +0.000 HD
ENDROOT
BRANCH   7  12
ATOM     12  C   UNL     1       2.724   4.702  18.177  0.00  0.00    +0.000 C 
ATOM     13  C   UNL     1       1.481   3.885  17.738  0.00  0.00    +0.000 C 
ATOM     14  C   UNL     1       0.944   3.003  18.864  0.00  0.00    +0.000 C 
ATOM     15  O   UNL     1       0.630   3.784  20.017  0.00  0.00    +0.000 OA
ATOM     16  C   UNL     1       1.778   4.461  20.525  0.00  0.00    +0.000 C 
ATOM     17  C   UNL     1       2.318   5.427  19.480  0.00  0.00    +0.000 C 
ENDBRANCH   7  12
TORSDOF 1
ENDMDL
MODEL 8
REMARK VINA RESULT:      -6.6      1.585      2.023
REMARK  Name = 
REMARK  1 active torsions:
REMARK  status: ('A' for Active; 'I' for Inactive)
REMARK    1  A    between atoms: N_7  and  C_8
REMARK                            x       y       z     vdW  Elec       q    Type
REMARK                         _______ _______ _______ _____ _____    ______ ____
ROOT
ATOM      1  O   UNL     1       5.121   7.133  15.000  0.00  0.00    +0.000 OA
ATOM      2  C   UNL     1       5.424   6.222  15.744  0.00  0.00    +0.000 C 
ATOM      3  N   UNL     1       6.551   5.416  15.612  0.00  0.00    +0.000 N 
ATOM      4  C   UNL     1       6.789   4.698  16.848  0.00  0.00    +0.000 C 
ATOM      5  C   UNL     1       5.396   4.650  17.464  0.00  0.00    +0.000 C 
ATOM      6  C   UNL     1       5.313   4.644  18.994  0.00  0.00    +0.000 C 
ATOM      7  N   UNL     1       3.907   4.764  19.489  0.00  0.00    +0.000 NA
ATOM      8  C   UNL     1       3.378   6.066  18.999  0.00  0.00    +0.000 C 
ATOM      9  C   UNL     1       3.677   6.516  17.544  0.00  0.00    +0.000 C 
ATOM     10  N   UNL     1       4.782   5.833  16.908  0.00  0.00    +0.000 N 
ATOM     11  H   UNL     1       7.251   5.679  14.933  0.00  0.00    +0.000 HD
ENDROOT
BRANCH   7  12
ATOM     12  C   UNL     1       3.075   3.571  19.171  0.00  0.00    +0.000 C 
ATOM     13  C   UNL     1       3.285   2.449  20.221  0.00  0.00    +0.000 C 
ATOM     14  C   UNL     1       2.580   2.756  21.541  0.00  0.00    +0.000 C 
ATOM     15  O   UNL     1       1.185   2.975  21.335  0.00  0.00    +0.000 OA
ATOM     16  C   UNL     1       0.946   4.079  20.464  0.00  0.00    +0.000 C 
ATOM     17  C   UNL     1       1.549   3.803  19.095  0.00  0.00    +0.000 C 
ENDBRANCH   7  12
TORSDOF 1
ENDMDL
MODEL 9
REMARK VINA RESULT:      -6.3      1.740      2.693
REMARK  Name = 
REMARK  1 active torsions:
REMARK  status: ('A' for Active; 'I' for Inactive)
REMARK    1  A    between atoms: N_7  and  C_8
REMARK                            x       y       z     vdW  Elec       q    Type
REMARK                         _______ _______ _______ _____ _____    ______ ____
ROOT
ATOM      1  O   UNL     1       7.683   7.606  16.748  0.00  0.00    +0.000 OA
ATOM      2  C   UNL     1       7.338   6.805  17.594  0.00  0.00    +0.000 C 
ATOM      3  N   UNL     1       8.144   6.320  18.619  0.00  0.00    +0.000 N 
ATOM      4  C   UNL     1       7.322   5.689  19.633  0.00  0.00    +0.000 C 
ATOM      5  C   UNL     1       6.088   5.281  18.837  0.00  0.00    +0.000 C 
ATOM      6  C   UNL     1       4.754   5.255  19.590  0.00  0.00    +0.000 C 
ATOM      7  N   UNL     1       3.593   5.005  18.682  0.00  0.00    +0.000 NA
ATOM      8  C   UNL     1       3.552   6.124  17.702  0.00  0.00    +0.000 C 
ATOM      9  C   UNL     1       4.873   6.636  17.068  0.00  0.00    +0.000 C 
ATOM     10  N   UNL     1       6.076   6.263  17.779  0.00  0.00    +0.000 N 
ATOM     11  H   UNL     1       9.043   6.756  18.769  0.00  0.00    +0.000 HD
ENDROOT
BRANCH   7  12
ATOM     12  C   UNL     1       3.597   3.637  18.096  0.00  0.00    +0.000 C 
ATOM     13  C   UNL     1       3.876   2.565  19.182  0.00  0.00    +0.000 C 
ATOM     14  C   UNL     1       2.663   2.324  20.079  0.00  0.00    +0.000 C 
ATOM     15  O   UNL     1       1.524   1.947  19.306  0.00  0.00    +0.000 OA
ATOM     16  C   UNL     1       1.161   2.961  18.370  0.00  0.00    +0.000 C 
ATOM     17  C   UNL     1       2.297   3.194  17.386  0.00  0.00    +0.000 C 
ENDBRANCH   7  12
TORSDOF 1
ENDMDL
