MODEL 1
REMARK VINA RESULT:      -9.1      0.000      0.000
REMARK  Name = 
REMARK  6 active torsions:
REMARK  status: ('A' for Active; 'I' for Inactive)
REMARK    1  A    between atoms: C_1  and  N_2
REMARK    2  A    between atoms: N_2  and  C_3
REMARK    3  A    between atoms: N_2  and  C_4
REMARK    4  A    between atoms: C_4  and  C_5
REMARK    5  A    between atoms: C_5  and  N_6
REMARK    6  A    between atoms: C_15  and  C_16
REMARK                            x       y       z     vdW  Elec       q    Type
REMARK                         _______ _______ _______ _____ _____    ______ ____
ROOT
ATOM      1  N   UNL     1       4.223   5.256  17.035  0.00  0.00    +0.000 N 
ATOM      2  C   UNL     1       4.019   4.002  17.611  0.00  0.00    +0.000 C 
ATOM      3  O   UNL     1       4.541   2.965  17.210  0.00  0.00    +0.000 OA
ATOM      4  C   UNL     1       3.148   3.946  18.805  0.00  0.00    +0.000 A 
ATOM      5  C   UNL     1       2.862   2.717  19.408  0.00  0.00    +0.000 A 
ATOM      6  C   UNL     1       2.069   2.683  20.550  0.00  0.00    +0.000 A 
ATOM      7  C   UNL     1       1.563   3.876  21.075  0.00  0.00    +0.000 A 
ATOM      8  C   UNL     1       1.821   5.105  20.482  0.00  0.00    +0.000 A 
ATOM      9  N   UNL     1       1.297   6.225  21.009  0.00  0.00    +0.000 NA
ATOM     10  C   UNL     1       1.537   7.422  20.416  0.00  0.00    +0.000 A 
ATOM     11  C   UNL     1       2.357   7.526  19.305  0.00  0.00    +0.000 A 
ATOM     12  C   UNL     1       2.894   6.365  18.760  0.00  0.00    +0.000 A 
ATOM     13  C   UNL     1       2.629   5.130  19.335  0.00  0.00    +0.000 A 
ATOM     14  C   UNL     1       3.747   6.455  17.560  0.00  0.00    +0.000 C 
ATOM     15  O   UNL     1       4.010   7.568  17.110  0.00  0.00    +0.000 OA
ENDROOT
BRANCH  10  16
ATOM     16  C   UNL     1       0.851   8.591  20.995  0.00  0.00    +0.000 A 
ATOM     17  C   UNL     1       0.660   8.714  22.379  0.00  0.00    +0.000 A 
ATOM     18  C   UNL     1       0.000   9.821  22.926  0.00  0.00    +0.000 A 
ATOM     19  C   UNL     1      -0.491  10.842  22.098  0.00  0.00    +0.000 A 
ATOM     20  C   UNL     1      -1.156  11.962  22.622  0.00  0.00    +0.000 A 
ATOM     21  C   UNL     1      -1.633  12.967  21.779  0.00  0.00    +0.000 A 
ATOM     22  C   UNL     1      -1.455  12.865  20.403  0.00  0.00    +0.000 A 
ATOM     23  C   UNL     1      -0.801  11.757  19.867  0.00  0.00    +0.000 A 
ATOM     24  C   UNL     1      -0.313  10.740  20.703  0.00  0.00    +0.000 A 
ATOM     25  C   UNL     1       0.347   9.620  20.176  0.00  0.00    +0.000 A 
ENDBRANCH  10  16
BRANCH   1  26
ATOM     26  C   UNL     1       5.074   5.320  15.847  0.00  0.00    +0.000 C 
BRANCH  26  27
ATOM     27  C   UNL     1       6.582   5.425  16.163  0.00  0.00    +0.000 C 
BRANCH  27  29
ATOM     28  C   UNL     1       7.817   4.857  18.184  0.00  0.00    +0.000 C 
ATOM     29  N   UNL     1       6.912   5.817  17.550  0.00  0.00    +0.000 NA
ATOM     30  C   UNL     1       7.530   7.148  17.546  0.00  0.00    +0.000 C 
ENDBRANCH  27  29
ENDBRANCH  26  27
ENDBRANCH   1  26
TORSDOF 4
ENDMDL
MODEL 2
REMARK VINA RESULT:      -8.8      1.059      1.713
REMARK  Name = 
REMARK  6 active torsions:
REMARK  status: ('A' for Active; 'I' for Inactive)
REMARK    1  A    between atoms: C_1  and  N_2
REMARK    2  A    between atoms: N_2  and  C_3
REMARK    3  A    between atoms: N_2  and  C_4
REMARK    4  A    between atoms: C_4  and  C_5
REMARK    5  A    between atoms: C_5  and  N_6
REMARK    6  A    between atoms: C_15  and  C_16
REMARK                            x       y       z     vdW  Elec       q    Type
REMARK                         _______ _______ _______ _____ _____    ______ ____
ROOT
ATOM      1  N   UNL     1       4.213   4.244  17.130  0.00  0.00    +0.000 N 
ATOM      2  C   UNL     1       3.814   3.143  17.886  0.00  0.00    +0.000 C 
ATOM      3  O   UNL     1       4.202   1.993  17.690  0.00  0.00    +0.000 OA
ATOM      4  C   UNL     1       2.896   3.402  19.017  0.00  0.00    +0.000 A 
ATOM      5  C   UNL     1       2.418   2.339  19.790  0.00  0.00    +0.000 A 
ATOM      6  C   UNL     1       1.582   2.600  20.870  0.00  0.00    +0.000 A 
ATOM      7  C   UNL     1       1.226   3.920  21.164  0.00  0.00    +0.000 A 
ATOM      8  C   UNL     1       1.677   4.987  20.399  0.00  0.00    +0.000 A 
ATOM      9  N   UNL     1       1.292   6.239  20.706  0.00  0.00    +0.000 NA
ATOM     10  C   UNL     1       1.720   7.278  19.944  0.00  0.00    +0.000 A 
ATOM     11  C   UNL     1       2.591   7.086  18.885  0.00  0.00    +0.000 A 
ATOM     12  C   UNL     1       2.983   5.791  18.567  0.00  0.00    +0.000 A 
ATOM     13  C   UNL     1       2.525   4.714  19.316  0.00  0.00    +0.000 A 
ATOM     14  C   UNL     1       3.888   5.567  17.425  0.00  0.00    +0.000 C 
ATOM     15  O   UNL     1       4.321   6.544  16.819  0.00  0.00    +0.000 OA
ENDROOT
BRANCH  10  16
ATOM     16  C   UNL     1       1.180   8.607  20.284  0.00  0.00    +0.000 A 
ATOM     17  C   UNL     1       1.410   9.721  19.464  0.00  0.00    +0.000 A 
ATOM     18  C   UNL     1       0.902  10.983  19.794  0.00  0.00    +0.000 A 
ATOM     19  C   UNL     1       0.147  11.168  20.962  0.00  0.00    +0.000 A 
ATOM     20  C   UNL     1      -0.372  12.423  21.315  0.00  0.00    +0.000 A 
ATOM     21  C   UNL     1      -1.124  12.582  22.481  0.00  0.00    +0.000 A 
ATOM     22  C   UNL     1      -1.363  11.490  23.309  0.00  0.00    +0.000 A 
ATOM     23  C   UNL     1      -0.850  10.238  22.975  0.00  0.00    +0.000 A 
ATOM     24  C   UNL     1      -0.096  10.063  21.804  0.00  0.00    +0.000 A 
ATOM     25  C   UNL     1       0.426   8.808  21.457  0.00  0.00    +0.000 A 
ENDBRANCH  10  16
BRANCH   1  26
ATOM     26  C   UNL     1       5.112   3.997  16.003  0.00  0.00    +0.000 C 
BRANCH  26  27
ATOM     27  C   UNL     1       6.606   3.957  16.392  0.00  0.00    +0.000 C 
BRANCH  27  29
ATOM     28  C   UNL     1       7.040   5.203  14.344  0.00  0.00    +0.000 C 
ATOM     29  N   UNL     1       7.460   4.965  15.727  0.00  0.00    +0.000 NA
ATOM     30  C   UNL     1       7.407   6.223  16.480  0.00  0.00    +0.000 C 
ENDBRANCH  27  29
ENDBRANCH  26  27
ENDBRANCH   1  26
TORSDOF 4
ENDMDL
MODEL 3
REMARK VINA RESULT:      -8.7      1.481      2.259
REMARK  Name = 
REMARK  6 active torsions:
REMARK  status: ('A' for Active; 'I' for Inactive)
REMARK    1  A    between atoms: C_1  and  N_2
REMARK    2  A    between atoms: N_2  and  C_3
REMARK    3  A    between atoms: N_2  and  C_4
REMARK    4  A    between atoms: C_4  and  C_5
REMARK    5  A    between atoms: C_5  and  N_6
REMARK    6  A    between atoms: C_15  and  C_16
REMARK                            x       y       z     vdW  Elec       q    Type
REMARK                         _______ _______ _______ _____ _____    ______ ____
ROOT
ATOM      1  N   UNL     1       4.696   4.232  17.239  0.00  0.00    +0.000 N 
ATOM      2  C   UNL     1       4.143   3.095  17.828  0.00  0.00    +0.000 C 
ATOM      3  O   UNL     1       4.530   1.949  17.610  0.00  0.00    +0.000 OA
ATOM      4  C   UNL     1       3.051   3.307  18.802  0.00  0.00    +0.000 A 
ATOM      5  C   UNL     1       2.419   2.210  19.396  0.00  0.00    +0.000 A 
ATOM      6  C   UNL     1       1.416   2.424  20.336  0.00  0.00    +0.000 A 
ATOM      7  C   UNL     1       1.050   3.732  20.668  0.00  0.00    +0.000 A 
ATOM      8  C   UNL     1       1.654   4.834  20.077  0.00  0.00    +0.000 A 
ATOM      9  N   UNL     1       1.255   6.074  20.411  0.00  0.00    +0.000 NA
ATOM     10  C   UNL     1       1.836   7.149  19.818  0.00  0.00    +0.000 A 
ATOM     11  C   UNL     1       2.871   7.000  18.911  0.00  0.00    +0.000 A 
ATOM     12  C   UNL     1       3.277   5.717  18.564  0.00  0.00    +0.000 A 
ATOM     13  C   UNL     1       2.669   4.608  19.136  0.00  0.00    +0.000 A 
ATOM     14  C   UNL     1       4.360   5.541  17.578  0.00  0.00    +0.000 C 
ATOM     15  O   UNL     1       4.917   6.543  17.134  0.00  0.00    +0.000 OA
ENDROOT
BRANCH  10  16
ATOM     16  C   UNL     1       1.280   8.469  20.165  0.00  0.00    +0.000 A 
ATOM     17  C   UNL     1       1.475   9.584  19.337  0.00  0.00    +0.000 A 
ATOM     18  C   UNL     1       0.953  10.839  19.673  0.00  0.00    +0.000 A 
ATOM     19  C   UNL     1       0.218  11.015  20.855  0.00  0.00    +0.000 A 
ATOM     20  C   UNL     1      -0.315  12.263  21.215  0.00  0.00    +0.000 A 
ATOM     21  C   UNL     1      -1.046  12.412  22.395  0.00  0.00    +0.000 A 
ATOM     22  C   UNL     1      -1.251  11.320  23.231  0.00  0.00    +0.000 A 
ATOM     23  C   UNL     1      -0.724  10.075  22.891  0.00  0.00    +0.000 A 
ATOM     24  C   UNL     1       0.011   9.909  21.706  0.00  0.00    +0.000 A 
ATOM     25  C   UNL     1       0.546   8.661  21.352  0.00  0.00    +0.000 A 
ENDBRANCH  10  16
BRANCH   1  26
ATOM     26  C   UNL     1       5.769   4.033  16.266  0.00  0.00    +0.000 C 
BRANCH  26  27
ATOM     27  C   UNL     1       5.334   4.252  14.800  0.00  0.00    +0.000 C 
BRANCH  27  29
ATOM     28  C   UNL     1       5.665   3.456  12.522  0.00  0.00    +0.000 C 
ATOM     29  N   UNL     1       6.317   3.829  13.779  0.00  0.00    +0.000 NA
ATOM     30  C   UNL     1       7.266   4.921  13.535  0.00  0.00    +0.000 C 
ENDBRANCH  27  29
ENDBRANCH  26  27
ENDBRANCH   1  26
TORSDOF 4
ENDMDL
MODEL 4
REMARK VINA RESULT:      -8.5      1.353      1.786
REMARK  Name = 
REMARK  6 active torsions:
REMARK  status: ('A' for Active; 'I' for Inactive)
REMARK    1  A    between atoms: C_1  and  N_2
REMARK    2  A    between atoms: N_2  and  C_3
REMARK    3  A    between atoms: N_2  and  C_4
REMARK    4  A    between atoms: C_4  and  C_5
REMARK    5  A    between atoms: C_5  and  N_6
REMARK    6  A    between atoms: C_15  and  C_16
REMARK                            x       y       z     vdW  Elec       q    Type
REMARK                         _______ _______ _______ _____ _____    ______ ____
ROOT
ATOM      1  N   UNL     1       4.704   4.578  17.329  0.00  0.00    +0.000 N 
ATOM      2  C   UNL     1       4.168   3.383  17.809  0.00  0.00    +0.000 C 
ATOM      3  O   UNL     1       4.572   2.267  17.490  0.00  0.00    +0.000 OA
ATOM      4  C   UNL     1       3.071   3.489  18.796  0.00  0.00    +0.000 A 
ATOM      5  C   UNL     1       2.455   2.333  19.286  0.00  0.00    +0.000 A 
ATOM      6  C   UNL     1       1.448   2.446  20.239  0.00  0.00    +0.000 A 
ATOM      7  C   UNL     1       1.062   3.712  20.688  0.00  0.00    +0.000 A 
ATOM      8  C   UNL     1       1.649   4.872  20.201  0.00  0.00    +0.000 A 
ATOM      9  N   UNL     1       1.231   6.071  20.646  0.00  0.00    +0.000 NA
ATOM     10  C   UNL     1       1.796   7.203  20.155  0.00  0.00    +0.000 A 
ATOM     11  C   UNL     1       2.835   7.154  19.241  0.00  0.00    +0.000 A 
ATOM     12  C   UNL     1       3.261   5.914  18.779  0.00  0.00    +0.000 A 
ATOM     13  C   UNL     1       2.670   4.748  19.247  0.00  0.00    +0.000 A 
ATOM     14  C   UNL     1       4.348   5.845  17.784  0.00  0.00    +0.000 C 
ATOM     15  O   UNL     1       4.890   6.891  17.435  0.00  0.00    +0.000 OA
ENDROOT
BRANCH  10  16
ATOM     16  C   UNL     1       1.220   8.478  20.619  0.00  0.00    +0.000 A 
ATOM     17  C   UNL     1       0.904   8.689  21.969  0.00  0.00    +0.000 A 
ATOM     18  C   UNL     1       0.350   9.898  22.405  0.00  0.00    +0.000 A 
ATOM     19  C   UNL     1       0.093  10.936  21.498  0.00  0.00    +0.000 A 
ATOM     20  C   UNL     1      -0.463  12.157  21.911  0.00  0.00    +0.000 A 
ATOM     21  C   UNL     1      -0.708  13.177  20.989  0.00  0.00    +0.000 A 
ATOM     22  C   UNL     1      -0.403  12.989  19.645  0.00  0.00    +0.000 A 
ATOM     23  C   UNL     1       0.145  11.781  19.218  0.00  0.00    +0.000 A 
ATOM     24  C   UNL     1       0.399  10.748  20.134  0.00  0.00    +0.000 A 
ATOM     25  C   UNL     1       0.950   9.527  19.717  0.00  0.00    +0.000 A 
ENDBRANCH  10  16
BRANCH   1  26
ATOM     26  C   UNL     1       5.782   4.484  16.344  0.00  0.00    +0.000 C 
BRANCH  26  27
ATOM     27  C   UNL     1       5.288   4.370  14.885  0.00  0.00    +0.000 C 
BRANCH  27  29
ATOM     28  C   UNL     1       5.671   3.504  12.641  0.00  0.00    +0.000 C 
ATOM     29  N   UNL     1       6.289   3.873  13.916  0.00  0.00    +0.000 NA
ATOM     30  C   UNL     1       7.304   4.908  13.689  0.00  0.00    +0.000 C 
ENDBRANCH  27  29
ENDBRANCH  26  27
ENDBRANCH   1  26
TORSDOF 4
ENDMDL
MODEL 5
REMARK VINA RESULT:      -8.5      1.848      2.859
REMARK  Name = 
REMARK  6 active torsions:
REMARK  status: ('A' for Active; 'I' for Inactive)
REMARK    1  A    between atoms: C_1  and  N_2
REMARK    2  A    between atoms: N_2  and  C_3
REMARK    3  A    between atoms: N_2  and  C_4
REMARK    4  A    between atoms: C_4  and  C_5
REMARK    5  A    between atoms: C_5  and  N_6
REMARK    6  A    between atoms: C_15  and  C_16
REMARK                            x       y       z     vdW  Elec       q    Type
REMARK                         _______ _______ _______ _____ _____    ______ ____
ROOT
ATOM      1  N   UNL     1       5.609   4.814  16.136  0.00  0.00    +0.000 N 
ATOM      2  C   UNL     1       5.133   3.547  16.472  0.00  0.00    +0.000 C 
ATOM      3  O   UNL     1       5.631   2.495  16.075  0.00  0.00    +0.000 OA
ATOM      4  C   UNL     1       3.981   3.486  17.397  0.00  0.00    +0.000 A 
ATOM      5  C   UNL     1       3.422   2.250  17.741  0.00  0.00    +0.000 A 
ATOM      6  C   UNL     1       2.361   2.206  18.639  0.00  0.00    +0.000 A 
ATOM      7  C   UNL     1       1.863   3.395  19.179  0.00  0.00    +0.000 A 
ATOM      8  C   UNL     1       2.393   4.633  18.837  0.00  0.00    +0.000 A 
ATOM      9  N   UNL     1       1.868   5.753  19.365  0.00  0.00    +0.000 NA
ATOM     10  C   UNL     1       2.378   6.962  19.014  0.00  0.00    +0.000 A 
ATOM     11  C   UNL     1       3.464   7.068  18.163  0.00  0.00    +0.000 A 
ATOM     12  C   UNL     1       4.000   5.908  17.615  0.00  0.00    +0.000 A 
ATOM     13  C   UNL     1       3.468   4.667  17.937  0.00  0.00    +0.000 A 
ATOM     14  C   UNL     1       5.140   6.006  16.684  0.00  0.00    +0.000 C 
ATOM     15  O   UNL     1       5.625   7.114  16.466  0.00  0.00    +0.000 OA
ENDROOT
BRANCH  10  16
ATOM     16  C   UNL     1       1.690   8.146  19.559  0.00  0.00    +0.000 A 
ATOM     17  C   UNL     1       1.542   9.318  18.802  0.00  0.00    +0.000 A 
ATOM     18  C   UNL     1       0.895  10.443  19.325  0.00  0.00    +0.000 A 
ATOM     19  C   UNL     1       0.376  10.430  20.629  0.00  0.00    +0.000 A 
ATOM     20  C   UNL     1      -0.277  11.546  21.176  0.00  0.00    +0.000 A 
ATOM     21  C   UNL     1      -0.788  11.507  22.475  0.00  0.00    +0.000 A 
ATOM     22  C   UNL     1      -0.651  10.355  23.243  0.00  0.00    +0.000 A 
ATOM     23  C   UNL     1      -0.002   9.241  22.716  0.00  0.00    +0.000 A 
ATOM     24  C   UNL     1       0.514   9.264  21.410  0.00  0.00    +0.000 A 
ATOM     25  C   UNL     1       1.170   8.148  20.868  0.00  0.00    +0.000 A 
ENDBRANCH  10  16
BRANCH   1  26
ATOM     26  C   UNL     1       6.741   4.886  15.213  0.00  0.00    +0.000 C 
BRANCH  26  27
ATOM     27  C   UNL     1       6.331   4.985  13.727  0.00  0.00    +0.000 C 
BRANCH  27  29
ATOM     28  C   UNL     1       4.971   3.396  12.480  0.00  0.00    +0.000 C 
ATOM     29  N   UNL     1       6.308   3.703  12.990  0.00  0.00    +0.000 NA
ATOM     30  C   UNL     1       7.258   3.765  11.874  0.00  0.00    +0.000 C 
ENDBRANCH  27  29
ENDBRANCH  26  27
ENDBRANCH   1  26
TORSDOF 4
ENDMDL
MODEL 6
REMARK VINA RESULT:      -8.3      3.569      8.289
REMARK  Name = 
REMARK  6 active torsions:
REMARK  status: ('A' for Active; 'I' for Inactive)
REMARK    1  A    between atoms: C_1  and  N_2
REMARK    2  A    between atoms: N_2  and  C_3
REMARK    3  A    between atoms: N_2  and  C_4
REMARK    4  A    between atoms: C_4  and  C_5
REMARK    5  A    between atoms: C_5  and  N_6
REMARK    6  A    between atoms: C_15  and  C_16
REMARK                            x       y       z     vdW  Elec       q    Type
REMARK                         _______ _______ _______ _____ _____    ______ ____
ROOT
ATOM      1  N   UNL     1       0.763  13.112  19.657  0.00  0.00    +0.000 N 
ATOM      2  C   UNL     1       0.049  12.921  20.840  0.00  0.00    +0.000 C 
ATOM      3  O   UNL     1      -0.562  13.811  21.428  0.00  0.00    +0.000 OA
ATOM      4  C   UNL     1       0.002  11.546  21.381  0.00  0.00    +0.000 A 
ATOM      5  C   UNL     1      -0.657  11.289  22.588  0.00  0.00    +0.000 A 
ATOM      6  C   UNL     1      -0.723   9.986  23.068  0.00  0.00    +0.000 A 
ATOM      7  C   UNL     1      -0.123   8.952  22.343  0.00  0.00    +0.000 A 
ATOM      8  C   UNL     1       0.550   9.188  21.152  0.00  0.00    +0.000 A 
ATOM      9  N   UNL     1       1.131   8.166  20.498  0.00  0.00    +0.000 NA
ATOM     10  C   UNL     1       1.803   8.405  19.343  0.00  0.00    +0.000 A 
ATOM     11  C   UNL     1       1.863   9.673  18.790  0.00  0.00    +0.000 A 
ATOM     12  C   UNL     1       1.266  10.728  19.471  0.00  0.00    +0.000 A 
ATOM     13  C   UNL     1       0.604  10.505  20.671  0.00  0.00    +0.000 A 
ATOM     14  C   UNL     1       1.344  12.089  18.910  0.00  0.00    +0.000 C 
ATOM     15  O   UNL     1       1.886  12.243  17.818  0.00  0.00    +0.000 OA
ENDROOT
BRANCH  10  16
ATOM     16  C   UNL     1       2.493   7.252  18.736  0.00  0.00    +0.000 A 
ATOM     17  C   UNL     1       2.242   5.941  19.166  0.00  0.00    +0.000 A 
ATOM     18  C   UNL     1       2.903   4.849  18.593  0.00  0.00    +0.000 A 
ATOM     19  C   UNL     1       3.842   5.038  17.568  0.00  0.00    +0.000 A 
ATOM     20  C   UNL     1       4.520   3.959  16.978  0.00  0.00    +0.000 A 
ATOM     21  C   UNL     1       5.448   4.173  15.957  0.00  0.00    +0.000 A 
ATOM     22  C   UNL     1       5.713   5.465  15.515  0.00  0.00    +0.000 A 
ATOM     23  C   UNL     1       5.052   6.547  16.094  0.00  0.00    +0.000 A 
ATOM     24  C   UNL     1       4.114   6.347  17.120  0.00  0.00    +0.000 A 
ATOM     25  C   UNL     1       3.443   7.428  17.711  0.00  0.00    +0.000 A 
ENDBRANCH  10  16
BRANCH   1  26
ATOM     26  C   UNL     1       0.825  14.470  19.119  0.00  0.00    +0.000 C 
BRANCH  26  27
ATOM     27  C   UNL     1       2.007  15.305  19.660  0.00  0.00    +0.000 C 
BRANCH  27  29
ATOM     28  C   UNL     1       3.349  15.778  17.683  0.00  0.00    +0.000 C 
ATOM     29  N   UNL     1       3.299  15.089  18.974  0.00  0.00    +0.000 NA
ATOM     30  C   UNL     1       4.391  15.567  19.829  0.00  0.00    +0.000 C 
ENDBRANCH  27  29
ENDBRANCH  26  27
ENDBRANCH   1  26
TORSDOF 4
ENDMDL
MODEL 7
REMARK VINA RESULT:      -8.2      3.497      8.811
REMARK  Name = 
REMARK  6 active torsions:
REMARK  status: ('A' for Active; 'I' for Inactive)
REMARK    1  A    between atoms: C_1  and  N_2
REMARK    2  A    between atoms: N_2  and  C_3
REMARK    3  A    between atoms: N_2  and  C_4
REMARK    4  A    between atoms: C_4  and  C_5
REMARK    5  A    between atoms: C_5  and  N_6
REMARK    6  A    between atoms: C_15  and  C_16
REMARK                            x       y       z     vdW  Elec       q    Type
REMARK                         _______ _______ _______ _____ _____    ______ ____
ROOT
ATOM      1  N   UNL     1       0.958  13.168  19.909  0.00  0.00    +0.000 N 
ATOM      2  C   UNL     1       0.187  12.944  21.049  0.00  0.00    +0.000 C 
ATOM      3  O   UNL     1      -0.405  13.827  21.666  0.00  0.00    +0.000 OA
ATOM      4  C   UNL     1       0.054  11.544  21.505  0.00  0.00    +0.000 A 
ATOM      5  C   UNL     1      -0.665  11.250  22.668  0.00  0.00    +0.000 A 
ATOM      6  C   UNL     1      -0.811   9.926  23.067  0.00  0.00    +0.000 A 
ATOM      7  C   UNL     1      -0.231   8.908  22.304  0.00  0.00    +0.000 A 
ATOM      8  C   UNL     1       0.501   9.180  21.156  0.00  0.00    +0.000 A 
ATOM      9  N   UNL     1       1.060   8.170  20.465  0.00  0.00    +0.000 NA
ATOM     10  C   UNL     1       1.790   8.442  19.353  0.00  0.00    +0.000 A 
ATOM     11  C   UNL     1       1.931   9.735  18.880  0.00  0.00    +0.000 A 
ATOM     12  C   UNL     1       1.357  10.777  19.600  0.00  0.00    +0.000 A 
ATOM     13  C   UNL     1       0.636  10.518  20.758  0.00  0.00    +0.000 A 
ATOM     14  C   UNL     1       1.521  12.163  19.124  0.00  0.00    +0.000 C 
ATOM     15  O   UNL     1       2.114  12.353  18.065  0.00  0.00    +0.000 OA
ENDROOT
BRANCH  10  16
ATOM     16  C   UNL     1       2.449   7.294  18.705  0.00  0.00    +0.000 A 
ATOM     17  C   UNL     1       2.138   5.974  19.064  0.00  0.00    +0.000 A 
ATOM     18  C   UNL     1       2.771   4.886  18.451  0.00  0.00    +0.000 A 
ATOM     19  C   UNL     1       3.741   5.089  17.459  0.00  0.00    +0.000 A 
ATOM     20  C   UNL     1       4.391   4.014  16.830  0.00  0.00    +0.000 A 
ATOM     21  C   UNL     1       5.351   4.241  15.842  0.00  0.00    +0.000 A 
ATOM     22  C   UNL     1       5.676   5.542  15.472  0.00  0.00    +0.000 A 
ATOM     23  C   UNL     1       5.043   6.619  16.089  0.00  0.00    +0.000 A 
ATOM     24  C   UNL     1       4.073   6.406  17.082  0.00  0.00    +0.000 A 
ATOM     25  C   UNL     1       3.430   7.483  17.711  0.00  0.00    +0.000 A 
ENDBRANCH  10  16
BRANCH   1  26
ATOM     26  C   UNL     1       1.105  14.551  19.456  0.00  0.00    +0.000 C 
BRANCH  26  27
ATOM     27  C   UNL     1      -0.158  15.125  18.778  0.00  0.00    +0.000 C 
BRANCH  27  29
ATOM     28  C   UNL     1      -0.622  17.314  17.816  0.00  0.00    +0.000 C 
ATOM     29  N   UNL     1      -0.429  16.553  19.052  0.00  0.00    +0.000 NA
ATOM     30  C   UNL     1      -1.625  16.670  19.893  0.00  0.00    +0.000 C 
ENDBRANCH  27  29
ENDBRANCH  26  27
ENDBRANCH   1  26
TORSDOF 4
ENDMDL
MODEL 8
REMARK VINA RESULT:      -8.0      3.607      9.454
REMARK  Name = 
REMARK  6 active torsions:
REMARK  status: ('A' for Active; 'I' for Inactive)
REMARK    1  A    between atoms: C_1  and  N_2
REMARK    2  A    between atoms: N_2  and  C_3
REMARK    3  A    between atoms: N_2  and  C_4
REMARK    4  A    between atoms: C_4  and  C_5
REMARK    5  A    between atoms: C_5  and  N_6
REMARK    6  A    between atoms: C_15  and  C_16
REMARK                            x       y       z     vdW  Elec       q    Type
REMARK                         _______ _______ _______ _____ _____    ______ ____
ROOT
ATOM      1  N   UNL     1      -1.568  12.024  21.674  0.00  0.00    +0.000 N 
ATOM      2  C   UNL     1      -2.383  12.335  20.586  0.00  0.00    +0.000 C 
ATOM      3  O   UNL     1      -3.275  13.180  20.612  0.00  0.00    +0.000 OA
ATOM      4  C   UNL     1      -2.114  11.620  19.319  0.00  0.00    +0.000 A 
ATOM      5  C   UNL     1      -2.922  11.848  18.200  0.00  0.00    +0.000 A 
ATOM      6  C   UNL     1      -2.637  11.194  17.007  0.00  0.00    +0.000 A 
ATOM      7  C   UNL     1      -1.553  10.313  16.943  0.00  0.00    +0.000 A 
ATOM      8  C   UNL     1      -0.749  10.061  18.047  0.00  0.00    +0.000 A 
ATOM      9  N   UNL     1       0.270   9.190  17.947  0.00  0.00    +0.000 NA
ATOM     10  C   UNL     1       1.043   8.933  19.034  0.00  0.00    +0.000 A 
ATOM     11  C   UNL     1       0.838   9.588  20.236  0.00  0.00    +0.000 A 
ATOM     12  C   UNL     1      -0.220  10.483  20.338  0.00  0.00    +0.000 A 
ATOM     13  C   UNL     1      -1.040  10.731  19.245  0.00  0.00    +0.000 A 
ATOM     14  C   UNL     1      -0.469  11.169  21.620  0.00  0.00    +0.000 C 
ATOM     15  O   UNL     1       0.310  10.972  22.550  0.00  0.00    +0.000 OA
ENDROOT
BRANCH  10  16
ATOM     16  C   UNL     1       2.079   7.897  18.871  0.00  0.00    +0.000 A 
ATOM     17  C   UNL     1       2.271   6.898  19.836  0.00  0.00    +0.000 A 
ATOM     18  C   UNL     1       3.261   5.921  19.682  0.00  0.00    +0.000 A 
ATOM     19  C   UNL     1       4.094   5.917  18.554  0.00  0.00    +0.000 A 
ATOM     20  C   UNL     1       5.094   4.947  18.377  0.00  0.00    +0.000 A 
ATOM     21  C   UNL     1       5.909   4.962  17.243  0.00  0.00    +0.000 A 
ATOM     22  C   UNL     1       5.737   5.945  16.274  0.00  0.00    +0.000 A 
ATOM     23  C   UNL     1       4.751   6.917  16.437  0.00  0.00    +0.000 A 
ATOM     24  C   UNL     1       3.922   6.913  17.570  0.00  0.00    +0.000 A 
ATOM     25  C   UNL     1       2.927   7.886  17.746  0.00  0.00    +0.000 A 
ENDBRANCH  10  16
BRANCH   1  26
ATOM     26  C   UNL     1      -1.832  12.717  22.934  0.00  0.00    +0.000 C 
BRANCH  26  27
ATOM     27  C   UNL     1      -2.967  12.085  23.770  0.00  0.00    +0.000 C 
BRANCH  27  29
ATOM     28  C   UNL     1      -3.293  14.370  24.547  0.00  0.00    +0.000 C 
ATOM     29  N   UNL     1      -3.899  13.046  24.399  0.00  0.00    +0.000 NA
ATOM     30  C   UNL     1      -5.115  13.149  23.585  0.00  0.00    +0.000 C 
ENDBRANCH  27  29
ENDBRANCH  26  27
ENDBRANCH   1  26
TORSDOF 4
ENDMDL
MODEL 9
REMARK VINA RESULT:      -8.0      3.260      8.046
REMARK  Name = 
REMARK  6 active torsions:
REMARK  status: ('A' for Active; 'I' for Inactive)
REMARK    1  A    between atoms: C_1  and  N_2
REMARK    2  A    between atoms: N_2  and  C_3
REMARK    3  A    between atoms: N_2  and  C_4
REMARK    4  A    between atoms: C_4  and  C_5
REMARK    5  A    between atoms: C_5  and  N_6
REMARK    6  A    between atoms: C_15  and  C_16
REMARK                            x       y       z     vdW  Elec       q    Type
REMARK                         _______ _______ _______ _____ _____    ______ ____
ROOT
ATOM      1  N   UNL     1       1.311  12.231  19.058  0.00  0.00    +0.000 N 
ATOM      2  C   UNL     1       0.532  12.534  20.174  0.00  0.00    +0.000 C 
ATOM      3  O   UNL     1       0.090  13.653  20.424  0.00  0.00    +0.000 OA
ATOM      4  C   UNL     1       0.196  11.415  21.081  0.00  0.00    +0.000 A 
ATOM      5  C   UNL     1      -0.542  11.654  22.245  0.00  0.00    +0.000 A 
ATOM      6  C   UNL     1      -0.880  10.588  23.071  0.00  0.00    +0.000 A 
ATOM      7  C   UNL     1      -0.472   9.294  22.731  0.00  0.00    +0.000 A 
ATOM      8  C   UNL     1       0.276   9.039  21.590  0.00  0.00    +0.000 A 
ATOM      9  N   UNL     1       0.665   7.782  21.313  0.00  0.00    +0.000 NA
ATOM     10  C   UNL     1       1.411   7.540  20.204  0.00  0.00    +0.000 A 
ATOM     11  C   UNL     1       1.739   8.552  19.319  0.00  0.00    +0.000 A 
ATOM     12  C   UNL     1       1.339   9.851  19.611  0.00  0.00    +0.000 A 
ATOM     13  C   UNL     1       0.605  10.120  20.758  0.00  0.00    +0.000 A 
ATOM     14  C   UNL     1       1.704  10.946  18.692  0.00  0.00    +0.000 C 
ATOM     15  O   UNL     1       2.303  10.666  17.656  0.00  0.00    +0.000 OA
ENDROOT
BRANCH  10  16
ATOM     16  C   UNL     1       1.879   6.154  20.019  0.00  0.00    +0.000 A 
ATOM     17  C   UNL     1       1.827   5.220  21.064  0.00  0.00    +0.000 A 
ATOM     18  C   UNL     1       2.280   3.907  20.887  0.00  0.00    +0.000 A 
ATOM     19  C   UNL     1       2.803   3.490  19.654  0.00  0.00    +0.000 A 
ATOM     20  C   UNL     1       3.264   2.179  19.452  0.00  0.00    +0.000 A 
ATOM     21  C   UNL     1       3.777   1.786  18.215  0.00  0.00    +0.000 A 
ATOM     22  C   UNL     1       3.839   2.698  17.165  0.00  0.00    +0.000 A 
ATOM     23  C   UNL     1       3.390   4.004  17.351  0.00  0.00    +0.000 A 
ATOM     24  C   UNL     1       2.868   4.412  18.589  0.00  0.00    +0.000 A 
ATOM     25  C   UNL     1       2.413   5.724  18.788  0.00  0.00    +0.000 A 
ENDBRANCH  10  16
BRANCH   1  26
ATOM     26  C   UNL     1       1.659  13.333  18.160  0.00  0.00    +0.000 C 
BRANCH  26  27
ATOM     27  C   UNL     1       3.093  13.872  18.358  0.00  0.00    +0.000 C 
BRANCH  27  29
ATOM     28  C   UNL     1       2.011  16.029  18.687  0.00  0.00    +0.000 C 
ATOM     29  N   UNL     1       3.184  15.207  18.987  0.00  0.00    +0.000 NA
ATOM     30  C   UNL     1       3.318  15.053  20.440  0.00  0.00    +0.000 C 
ENDBRANCH  27  29
ENDBRANCH  26  27
ENDBRANCH   1  26
TORSDOF 4
ENDMDL
