MODEL 1
REMARK VINA RESULT:      -7.7      0.000      0.000
REMARK  Name = 
REMARK  5 active torsions:
REMARK  status: ('A' for Active; 'I' for Inactive)
REMARK    1  A    between atoms: C_1  and  S_2
REMARK    2  A    between atoms: S_2  and  C_5
REMARK    3  A    between atoms: C_8  and  N_9
REMARK    4  A    between atoms: N_9  and  C_10
REMARK    5  A    between atoms: C_10  and  C_11
REMARK                            x       y       z     vdW  Elec       q    Type
REMARK                         _______ _______ _______ _____ _____    ______ ____
ROOT
ATOM      1  N   UNL     1       2.630   5.843  20.061  0.00  0.00    +0.000 N 
ATOM      2  C   UNL     1       1.836   6.973  20.281  0.00  0.00    +0.000 C 
ATOM      3  O   UNL     1       0.937   6.938  21.124  0.00  0.00    +0.000 OA
ATOM      4  N   UNL     1       2.103   8.053  19.477  0.00  0.00    +0.000 N 
ATOM      5  C   UNL     1       1.364   9.204  19.580  0.00  0.00    +0.000 A 
ATOM      6  N   UNL     1       0.587   9.593  20.561  0.00  0.00    +0.000 NA
ATOM      7  C   UNL     1      -0.026  10.781  20.213  0.00  0.00    +0.000 A 
ATOM      8  C   UNL     1       0.317  11.256  18.974  0.00  0.00    +0.000 A 
ATOM      9 CL   UNL     1      -0.273  12.654  18.185  0.00  0.00    +0.000 Cl
ATOM     10  S   UNL     1       1.466  10.248  18.231  0.00  0.00    +0.000 S 
ATOM     11  H   UNL     1       2.658   7.940  18.646  0.00  0.00    +0.000 HD
ENDROOT
BRANCH   1  15
ATOM     12  C   UNL     1       5.769   5.343  17.327  0.00  0.00    +0.000 A 
ATOM     13  C   UNL     1       6.049   5.421  18.694  0.00  0.00    +0.000 A 
ATOM     14  C   UNL     1       5.004   5.633  19.598  0.00  0.00    +0.000 A 
ATOM     15  C   UNL     1       3.694   5.775  19.133  0.00  0.00    +0.000 A 
ATOM     16  C   UNL     1       3.429   5.760  17.757  0.00  0.00    +0.000 A 
ATOM     17  C   UNL     1       4.472   5.555  16.848  0.00  0.00    +0.000 A 
BRANCH  12  19
ATOM     18  C   UNL     1       6.247   3.862  15.026  0.00  0.00    +0.000 C 
ATOM     19  S   UNL     1       7.069   4.931  16.183  0.00  0.00    +0.000 S 
ATOM     20  O   UNL     1       8.054   4.148  16.904  0.00  0.00    +0.000 OA
ATOM     21  O   UNL     1       7.442   6.149  15.492  0.00  0.00    +0.000 OA
ENDBRANCH  12  19
ENDBRANCH   1  15
BRANCH   1  22
ATOM     22  C   UNL     1       2.222   4.582  20.694  0.00  0.00    +0.000 C 
BRANCH  22  23
ATOM     23  C   UNL     1       2.455   3.398  19.796  0.00  0.00    +0.000 A 
ATOM     24  C   UNL     1       1.523   2.939  18.803  0.00  0.00    +0.000 A 
ATOM     25  C   UNL     1       1.962   1.817  18.134  0.00  0.00    +0.000 A 
ATOM     26  S   UNL     1       3.480   1.286  18.706  0.00  0.00    +0.000 S 
ATOM     27  C   UNL     1       3.545   2.546  19.860  0.00  0.00    +0.000 A 
ENDBRANCH  22  23
ENDBRANCH   1  22
TORSDOF 4
ENDMDL
MODEL 2
REMARK VINA RESULT:      -7.2      3.605      6.340
REMARK  Name = 
REMARK  5 active torsions:
REMARK  status: ('A' for Active; 'I' for Inactive)
REMARK    1  A    between atoms: C_1  and  S_2
REMARK    2  A    between atoms: S_2  and  C_5
REMARK    3  A    between atoms: C_8  and  N_9
REMARK    4  A    between atoms: N_9  and  C_10
REMARK    5  A    between atoms: C_10  and  C_11
REMARK                            x       y       z     vdW  Elec       q    Type
REMARK                         _______ _______ _______ _____ _____    ______ ____
ROOT
ATOM      1  N   UNL     1      -0.143  10.621  19.449  0.00  0.00    +0.000 N 
ATOM      2  C   UNL     1       0.130  11.992  19.495  0.00  0.00    +0.000 C 
ATOM      3  O   UNL     1      -0.782  12.794  19.706  0.00  0.00    +0.000 OA
ATOM      4  N   UNL     1       1.432  12.348  19.246  0.00  0.00    +0.000 N 
ATOM      5  C   UNL     1       1.807  13.667  19.230  0.00  0.00    +0.000 A 
ATOM      6  N   UNL     1       1.176  14.705  19.722  0.00  0.00    +0.000 NA
ATOM      7  C   UNL     1       1.876  15.854  19.413  0.00  0.00    +0.000 A 
ATOM      8  C   UNL     1       3.027  15.643  18.699  0.00  0.00    +0.000 A 
ATOM      9 CL   UNL     1       4.117  16.815  18.093  0.00  0.00    +0.000 Cl
ATOM     10  S   UNL     1       3.290  13.984  18.440  0.00  0.00    +0.000 S 
ATOM     11  H   UNL     1       2.066  11.689  18.829  0.00  0.00    +0.000 HD
ENDROOT
BRANCH   1  15
ATOM     12  C   UNL     1       2.505   7.449  18.736  0.00  0.00    +0.000 A 
ATOM     13  C   UNL     1       1.995   7.648  20.022  0.00  0.00    +0.000 A 
ATOM     14  C   UNL     1       1.150   8.734  20.265  0.00  0.00    +0.000 A 
ATOM     15  C   UNL     1       0.826   9.615  19.229  0.00  0.00    +0.000 A 
ATOM     16  C   UNL     1       1.390   9.445  17.958  0.00  0.00    +0.000 A 
ATOM     17  C   UNL     1       2.243   8.365  17.712  0.00  0.00    +0.000 A 
BRANCH  12  19
ATOM     18  C   UNL     1       2.221   4.804  17.933  0.00  0.00    +0.000 C 
ATOM     19  S   UNL     1       3.464   5.992  18.384  0.00  0.00    +0.000 S 
ATOM     20  O   UNL     1       4.076   5.560  19.626  0.00  0.00    +0.000 OA
ATOM     21  O   UNL     1       4.270   6.274  17.213  0.00  0.00    +0.000 OA
ENDBRANCH  12  19
ENDBRANCH   1  15
BRANCH   1  22
ATOM     22  C   UNL     1      -1.549  10.200  19.440  0.00  0.00    +0.000 C 
BRANCH  22  23
ATOM     23  C   UNL     1      -2.210  10.464  18.114  0.00  0.00    +0.000 A 
ATOM     24  C   UNL     1      -3.344  11.327  17.933  0.00  0.00    +0.000 A 
ATOM     25  C   UNL     1      -3.777  11.376  16.626  0.00  0.00    +0.000 A 
ATOM     26  S   UNL     1      -2.847  10.371  15.607  0.00  0.00    +0.000 S 
ATOM     27  C   UNL     1      -1.874   9.855  16.916  0.00  0.00    +0.000 A 
ENDBRANCH  22  23
ENDBRANCH   1  22
TORSDOF 4
ENDMDL
MODEL 3
REMARK VINA RESULT:      -7.0      3.556      6.250
REMARK  Name = 
REMARK  5 active torsions:
REMARK  status: ('A' for Active; 'I' for Inactive)
REMARK    1  A    between atoms: C_1  and  S_2
REMARK    2  A    between atoms: S_2  and  C_5
REMARK    3  A    between atoms: C_8  and  N_9
REMARK    4  A    between atoms: N_9  and  C_10
REMARK    5  A    between atoms: C_10  and  C_11
REMARK                            x       y       z     vdW  Elec       q    Type
REMARK                         _______ _______ _______ _____ _____    ______ ____
ROOT
ATOM      1  N   UNL     1       0.031  10.488  19.555  0.00  0.00    +0.000 N 
ATOM      2  C   UNL     1       0.311  11.857  19.634  0.00  0.00    +0.000 C 
ATOM      3  O   UNL     1      -0.582  12.651  19.937  0.00  0.00    +0.000 OA
ATOM      4  N   UNL     1       1.594  12.220  19.309  0.00  0.00    +0.000 N 
ATOM      5  C   UNL     1       1.973  13.538  19.318  0.00  0.00    +0.000 A 
ATOM      6  N   UNL     1       1.380  14.557  19.890  0.00  0.00    +0.000 NA
ATOM      7  C   UNL     1       2.063  15.717  19.578  0.00  0.00    +0.000 A 
ATOM      8  C   UNL     1       3.161  15.531  18.778  0.00  0.00    +0.000 A 
ATOM      9 CL   UNL     1       4.211  16.724  18.144  0.00  0.00    +0.000 Cl
ATOM     10  S   UNL     1       3.398  13.883  18.440  0.00  0.00    +0.000 S 
ATOM     11  H   UNL     1       2.195  11.576  18.825  0.00  0.00    +0.000 HD
ENDROOT
BRANCH   1  15
ATOM     12  C   UNL     1       2.611   7.351  18.517  0.00  0.00    +0.000 A 
ATOM     13  C   UNL     1       2.110   7.432  19.819  0.00  0.00    +0.000 A 
ATOM     14  C   UNL     1       1.288   8.505  20.173  0.00  0.00    +0.000 A 
ATOM     15  C   UNL     1       0.978   9.490  19.231  0.00  0.00    +0.000 A 
ATOM     16  C   UNL     1       1.533   9.436  17.946  0.00  0.00    +0.000 A 
ATOM     17  C   UNL     1       2.363   8.369  17.590  0.00  0.00    +0.000 A 
BRANCH  12  19
ATOM     18  C   UNL     1       4.333   5.420  19.527  0.00  0.00    +0.000 C 
ATOM     19  S   UNL     1       3.539   5.917  18.017  0.00  0.00    +0.000 S 
ATOM     20  O   UNL     1       4.563   6.360  17.090  0.00  0.00    +0.000 OA
ATOM     21  O   UNL     1       2.586   4.890  17.644  0.00  0.00    +0.000 OA
ENDBRANCH  12  19
ENDBRANCH   1  15
BRANCH   1  22
ATOM     22  C   UNL     1      -1.375  10.070  19.627  0.00  0.00    +0.000 C 
BRANCH  22  23
ATOM     23  C   UNL     1      -2.113  10.344  18.345  0.00  0.00    +0.000 A 
ATOM     24  C   UNL     1      -1.737   9.811  17.064  0.00  0.00    +0.000 A 
ATOM     25  C   UNL     1      -2.560  10.236  16.044  0.00  0.00    +0.000 A 
ATOM     26  S   UNL     1      -3.774  11.298  16.604  0.00  0.00    +0.000 S 
ATOM     27  C   UNL     1      -3.191  11.203  18.208  0.00  0.00    +0.000 A 
ENDBRANCH  22  23
ENDBRANCH   1  22
TORSDOF 4
ENDMDL
MODEL 4
REMARK VINA RESULT:      -7.0      1.024      1.043
REMARK  Name = 
REMARK  5 active torsions:
REMARK  status: ('A' for Active; 'I' for Inactive)
REMARK    1  A    between atoms: C_1  and  S_2
REMARK    2  A    between atoms: S_2  and  C_5
REMARK    3  A    between atoms: C_8  and  N_9
REMARK    4  A    between atoms: N_9  and  C_10
REMARK    5  A    between atoms: C_10  and  C_11
REMARK                            x       y       z     vdW  Elec       q    Type
REMARK                         _______ _______ _______ _____ _____    ______ ____
ROOT
ATOM      1  N   UNL     1       2.224   6.215  20.153  0.00  0.00    +0.000 N 
ATOM      2  C   UNL     1       1.404   7.304  20.472  0.00  0.00    +0.000 C 
ATOM      3  O   UNL     1       0.472   7.160  21.265  0.00  0.00    +0.000 OA
ATOM      4  N   UNL     1       1.689   8.475  19.815  0.00  0.00    +0.000 N 
ATOM      5  C   UNL     1       0.930   9.598  20.024  0.00  0.00    +0.000 A 
ATOM      6  N   UNL     1       0.106   9.859  21.009  0.00  0.00    +0.000 NA
ATOM      7  C   UNL     1      -0.509  11.074  20.781  0.00  0.00    +0.000 A 
ATOM      8  C   UNL     1      -0.121  11.698  19.623  0.00  0.00    +0.000 A 
ATOM      9 CL   UNL     1      -0.698  13.176  18.982  0.00  0.00    +0.000 Cl
ATOM     10  S   UNL     1       1.072  10.797  18.814  0.00  0.00    +0.000 S 
ATOM     11  H   UNL     1       2.279   8.468  19.002  0.00  0.00    +0.000 HD
ENDROOT
BRANCH   1  15
ATOM     12  C   UNL     1       5.411   6.107  17.432  0.00  0.00    +0.000 A 
ATOM     13  C   UNL     1       5.580   5.579  18.715  0.00  0.00    +0.000 A 
ATOM     14  C   UNL     1       4.529   5.659  19.634  0.00  0.00    +0.000 A 
ATOM     15  C   UNL     1       3.326   6.270  19.270  0.00  0.00    +0.000 A 
ATOM     16  C   UNL     1       3.186   6.853  18.004  0.00  0.00    +0.000 A 
ATOM     17  C   UNL     1       4.237   6.783  17.084  0.00  0.00    +0.000 A 
BRANCH  12  19
ATOM     18  C   UNL     1       7.369   4.300  16.645  0.00  0.00    +0.000 C 
ATOM     19  S   UNL     1       6.688   5.883  16.213  0.00  0.00    +0.000 S 
ATOM     20  O   UNL     1       7.702   6.893  16.450  0.00  0.00    +0.000 OA
ATOM     21  O   UNL     1       6.040   5.763  14.922  0.00  0.00    +0.000 OA
ENDBRANCH  12  19
ENDBRANCH   1  15
BRANCH   1  22
ATOM     22  C   UNL     1       1.807   4.885  20.612  0.00  0.00    +0.000 C 
BRANCH  22  23
ATOM     23  C   UNL     1       2.201   3.803  19.643  0.00  0.00    +0.000 A 
ATOM     24  C   UNL     1       1.623   3.637  18.337  0.00  0.00    +0.000 A 
ATOM     25  C   UNL     1       2.137   2.554  17.658  0.00  0.00    +0.000 A 
ATOM     26  S   UNL     1       3.294   1.709  18.585  0.00  0.00    +0.000 S 
ATOM     27  C   UNL     1       3.099   2.782  19.902  0.00  0.00    +0.000 A 
ENDBRANCH  22  23
ENDBRANCH   1  22
TORSDOF 4
ENDMDL
MODEL 5
REMARK VINA RESULT:      -7.0      0.724      1.176
REMARK  Name = 
REMARK  5 active torsions:
REMARK  status: ('A' for Active; 'I' for Inactive)
REMARK    1  A    between atoms: C_1  and  S_2
REMARK    2  A    between atoms: S_2  and  C_5
REMARK    3  A    between atoms: C_8  and  N_9
REMARK    4  A    between atoms: N_9  and  C_10
REMARK    5  A    between atoms: C_10  and  C_11
REMARK                            x       y       z     vdW  Elec       q    Type
REMARK                         _______ _______ _______ _____ _____    ______ ____
ROOT
ATOM      1  N   UNL     1       2.442   5.955  20.306  0.00  0.00    +0.000 N 
ATOM      2  C   UNL     1       1.750   7.162  20.456  0.00  0.00    +0.000 C 
ATOM      3  O   UNL     1       0.868   7.263  21.312  0.00  0.00    +0.000 OA
ATOM      4  N   UNL     1       2.090   8.157  19.573  0.00  0.00    +0.000 N 
ATOM      5  C   UNL     1       1.453   9.370  19.605  0.00  0.00    +0.000 A 
ATOM      6  N   UNL     1       0.731   9.892  20.567  0.00  0.00    +0.000 NA
ATOM      7  C   UNL     1       0.213  11.101  20.144  0.00  0.00    +0.000 A 
ATOM      8  C   UNL     1       0.570  11.457  18.869  0.00  0.00    +0.000 A 
ATOM      9 CL   UNL     1       0.083  12.842  17.991  0.00  0.00    +0.000 Cl
ATOM     10  S   UNL     1       1.614  10.305  18.183  0.00  0.00    +0.000 S 
ATOM     11  H   UNL     1       2.616   7.939  18.745  0.00  0.00    +0.000 HD
ENDROOT
BRANCH   1  15
ATOM     12  C   UNL     1       5.601   5.579  17.576  0.00  0.00    +0.000 A 
ATOM     13  C   UNL     1       4.357   6.038  17.134  0.00  0.00    +0.000 A 
ATOM     14  C   UNL     1       3.294   6.117  18.039  0.00  0.00    +0.000 A 
ATOM     15  C   UNL     1       3.477   5.733  19.370  0.00  0.00    +0.000 A 
ATOM     16  C   UNL     1       4.709   5.215  19.791  0.00  0.00    +0.000 A 
ATOM     17  C   UNL     1       5.773   5.126  18.888  0.00  0.00    +0.000 A 
BRANCH  12  19
ATOM     18  C   UNL     1       6.242   5.327  14.885  0.00  0.00    +0.000 C 
ATOM     19  S   UNL     1       6.994   5.609  16.470  0.00  0.00    +0.000 S 
ATOM     20  O   UNL     1       7.830   4.466  16.786  0.00  0.00    +0.000 OA
ATOM     21  O   UNL     1       7.533   6.955  16.485  0.00  0.00    +0.000 OA
ENDBRANCH  12  19
ENDBRANCH   1  15
BRANCH   1  22
ATOM     22  C   UNL     1       1.942   4.782  21.033  0.00  0.00    +0.000 C 
BRANCH  22  23
ATOM     23  C   UNL     1       1.769   3.590  20.131  0.00  0.00    +0.000 A 
ATOM     24  C   UNL     1       0.591   3.329  19.350  0.00  0.00    +0.000 A 
ATOM     25  C   UNL     1       0.674   2.157  18.631  0.00  0.00    +0.000 A 
ATOM     26  S   UNL     1       2.149   1.343  18.903  0.00  0.00    +0.000 S 
ATOM     27  C   UNL     1       2.673   2.549  19.996  0.00  0.00    +0.000 A 
ENDBRANCH  22  23
ENDBRANCH   1  22
TORSDOF 4
ENDMDL
MODEL 6
REMARK VINA RESULT:      -6.8      2.725      4.641
REMARK  Name = 
REMARK  5 active torsions:
REMARK  status: ('A' for Active; 'I' for Inactive)
REMARK    1  A    between atoms: C_1  and  S_2
REMARK    2  A    between atoms: S_2  and  C_5
REMARK    3  A    between atoms: C_8  and  N_9
REMARK    4  A    between atoms: N_9  and  C_10
REMARK    5  A    between atoms: C_10  and  C_11
REMARK                            x       y       z     vdW  Elec       q    Type
REMARK                         _______ _______ _______ _____ _____    ______ ____
ROOT
ATOM      1  N   UNL     1       3.047   7.479  17.614  0.00  0.00    +0.000 N 
ATOM      2  C   UNL     1       2.330   8.592  18.067  0.00  0.00    +0.000 C 
ATOM      3  O   UNL     1       2.401   9.660  17.456  0.00  0.00    +0.000 OA
ATOM      4  N   UNL     1       1.617   8.408  19.225  0.00  0.00    +0.000 N 
ATOM      5  C   UNL     1       0.904   9.440  19.781  0.00  0.00    +0.000 A 
ATOM      6  N   UNL     1       0.520  10.563  19.226  0.00  0.00    +0.000 NA
ATOM      7  C   UNL     1      -0.106  11.350  20.173  0.00  0.00    +0.000 A 
ATOM      8  C   UNL     1      -0.179  10.786  21.421  0.00  0.00    +0.000 A 
ATOM      9 CL   UNL     1      -0.826  11.474  22.847  0.00  0.00    +0.000 Cl
ATOM     10  S   UNL     1       0.490   9.224  21.425  0.00  0.00    +0.000 S 
ATOM     11  H   UNL     1       1.801   7.613  19.812  0.00  0.00    +0.000 HD
ENDROOT
BRANCH   1  15
ATOM     12  C   UNL     1       2.785   3.809  19.623  0.00  0.00    +0.000 A 
ATOM     13  C   UNL     1       3.695   4.774  20.063  0.00  0.00    +0.000 A 
ATOM     14  C   UNL     1       3.811   5.978  19.361  0.00  0.00    +0.000 A 
ATOM     15  C   UNL     1       3.028   6.206  18.227  0.00  0.00    +0.000 A 
ATOM     16  C   UNL     1       2.164   5.209  17.755  0.00  0.00    +0.000 A 
ATOM     17  C   UNL     1       2.049   4.001  18.448  0.00  0.00    +0.000 A 
BRANCH  12  19
ATOM     18  C   UNL     1       1.266   2.837  21.736  0.00  0.00    +0.000 C 
ATOM     19  S   UNL     1       2.527   2.337  20.588  0.00  0.00    +0.000 S 
ATOM     20  O   UNL     1       3.745   2.082  21.334  0.00  0.00    +0.000 OA
ATOM     21  O   UNL     1       1.966   1.331  19.706  0.00  0.00    +0.000 OA
ENDBRANCH  12  19
ENDBRANCH   1  15
BRANCH   1  22
ATOM     22  C   UNL     1       4.031   7.686  16.544  0.00  0.00    +0.000 C 
BRANCH  22  23
ATOM     23  C   UNL     1       5.198   6.743  16.660  0.00  0.00    +0.000 A 
ATOM     24  C   UNL     1       6.393   7.022  17.406  0.00  0.00    +0.000 A 
ATOM     25  C   UNL     1       7.322   6.007  17.329  0.00  0.00    +0.000 A 
ATOM     26  S   UNL     1       6.785   4.723  16.342  0.00  0.00    +0.000 S 
ATOM     27  C   UNL     1       5.316   5.529  16.003  0.00  0.00    +0.000 A 
ENDBRANCH  22  23
ENDBRANCH   1  22
TORSDOF 4
ENDMDL
MODEL 7
REMARK VINA RESULT:      -6.7      2.761      4.617
REMARK  Name = 
REMARK  5 active torsions:
REMARK  status: ('A' for Active; 'I' for Inactive)
REMARK    1  A    between atoms: C_1  and  S_2
REMARK    2  A    between atoms: S_2  and  C_5
REMARK    3  A    between atoms: C_8  and  N_9
REMARK    4  A    between atoms: N_9  and  C_10
REMARK    5  A    between atoms: C_10  and  C_11
REMARK                            x       y       z     vdW  Elec       q    Type
REMARK                         _______ _______ _______ _____ _____    ______ ____
ROOT
ATOM      1  N   UNL     1       2.771   7.616  17.678  0.00  0.00    +0.000 N 
ATOM      2  C   UNL     1       2.179   8.838  18.017  0.00  0.00    +0.000 C 
ATOM      3  O   UNL     1       2.364   9.828  17.306  0.00  0.00    +0.000 OA
ATOM      4  N   UNL     1       1.455   8.845  19.183  0.00  0.00    +0.000 N 
ATOM      5  C   UNL     1       0.860   9.996  19.631  0.00  0.00    +0.000 A 
ATOM      6  N   UNL     1       0.597  11.095  18.968  0.00  0.00    +0.000 NA
ATOM      7  C   UNL     1       0.063  12.033  19.830  0.00  0.00    +0.000 A 
ATOM      8  C   UNL     1      -0.067  11.603  21.126  0.00  0.00    +0.000 A 
ATOM      9 CL   UNL     1      -0.631  12.492  22.474  0.00  0.00    +0.000 Cl
ATOM     10  S   UNL     1       0.430   9.986  21.286  0.00  0.00    +0.000 S 
ATOM     11  H   UNL     1       1.554   8.095  19.844  0.00  0.00    +0.000 HD
ENDROOT
BRANCH   1  15
ATOM     12  C   UNL     1       2.551   3.952  19.703  0.00  0.00    +0.000 A 
ATOM     13  C   UNL     1       1.865   4.117  18.496  0.00  0.00    +0.000 A 
ATOM     14  C   UNL     1       1.904   5.355  17.848  0.00  0.00    +0.000 A 
ATOM     15  C   UNL     1       2.617   6.418  18.410  0.00  0.00    +0.000 A 
ATOM     16  C   UNL     1       3.249   6.263  19.651  0.00  0.00    +0.000 A 
ATOM     17  C   UNL     1       3.207   5.029  20.307  0.00  0.00    +0.000 A 
BRANCH  12  19
ATOM     18  C   UNL     1       4.350   1.930  20.331  0.00  0.00    +0.000 C 
ATOM     19  S   UNL     1       2.626   2.343  20.460  0.00  0.00    +0.000 S 
ATOM     20  O   UNL     1       1.876   1.428  19.621  0.00  0.00    +0.000 OA
ATOM     21  O   UNL     1       2.301   2.508  21.864  0.00  0.00    +0.000 OA
ENDBRANCH  12  19
ENDBRANCH   1  15
BRANCH   1  22
ATOM     22  C   UNL     1       3.768   7.611  16.601  0.00  0.00    +0.000 C 
BRANCH  22  23
ATOM     23  C   UNL     1       4.949   6.738  16.927  0.00  0.00    +0.000 A 
ATOM     24  C   UNL     1       6.117   7.188  17.634  0.00  0.00    +0.000 A 
ATOM     25  C   UNL     1       7.067   6.201  17.780  0.00  0.00    +0.000 A 
ATOM     26  S   UNL     1       6.584   4.736  17.052  0.00  0.00    +0.000 S 
ATOM     27  C   UNL     1       5.110   5.423  16.525  0.00  0.00    +0.000 A 
ENDBRANCH  22  23
ENDBRANCH   1  22
TORSDOF 4
ENDMDL
MODEL 8
REMARK VINA RESULT:      -6.6      2.616      4.500
REMARK  Name = 
REMARK  5 active torsions:
REMARK  status: ('A' for Active; 'I' for Inactive)
REMARK    1  A    between atoms: C_1  and  S_2
REMARK    2  A    between atoms: S_2  and  C_5
REMARK    3  A    between atoms: C_8  and  N_9
REMARK    4  A    between atoms: N_9  and  C_10
REMARK    5  A    between atoms: C_10  and  C_11
REMARK                            x       y       z     vdW  Elec       q    Type
REMARK                         _______ _______ _______ _____ _____    ______ ____
ROOT
ATOM      1  N   UNL     1       2.985   7.572  17.614  0.00  0.00    +0.000 N 
ATOM      2  C   UNL     1       2.273   8.704  18.024  0.00  0.00    +0.000 C 
ATOM      3  O   UNL     1       2.329   9.740  17.358  0.00  0.00    +0.000 OA
ATOM      4  N   UNL     1       1.584   8.578  19.205  0.00  0.00    +0.000 N 
ATOM      5  C   UNL     1       0.879   9.635  19.721  0.00  0.00    +0.000 A 
ATOM      6  N   UNL     1       0.481  10.728  19.117  0.00  0.00    +0.000 NA
ATOM      7  C   UNL     1      -0.128  11.561  20.036  0.00  0.00    +0.000 A 
ATOM      8  C   UNL     1      -0.175  11.061  21.312  0.00  0.00    +0.000 A 
ATOM      9 CL   UNL     1      -0.796  11.819  22.714  0.00  0.00    +0.000 Cl
ATOM     10  S   UNL     1       0.498   9.502  21.382  0.00  0.00    +0.000 S 
ATOM     11  H   UNL     1       1.782   7.814  19.827  0.00  0.00    +0.000 HD
ENDROOT
BRANCH   1  15
ATOM     12  C   UNL     1       3.181   3.795  19.425  0.00  0.00    +0.000 A 
ATOM     13  C   UNL     1       2.274   4.017  18.385  0.00  0.00    +0.000 A 
ATOM     14  C   UNL     1       2.180   5.290  17.815  0.00  0.00    +0.000 A 
ATOM     15  C   UNL     1       2.982   6.331  18.291  0.00  0.00    +0.000 A 
ATOM     16  C   UNL     1       3.843   6.118  19.375  0.00  0.00    +0.000 A 
ATOM     17  C   UNL     1       3.936   4.848  19.953  0.00  0.00    +0.000 A 
BRANCH  12  19
ATOM     18  C   UNL     1       2.490   2.182  21.578  0.00  0.00    +0.000 C 
ATOM     19  S   UNL     1       3.410   2.148  20.058  0.00  0.00    +0.000 S 
ATOM     20  O   UNL     1       4.816   1.995  20.381  0.00  0.00    +0.000 OA
ATOM     21  O   UNL     1       2.749   1.236  19.145  0.00  0.00    +0.000 OA
ENDBRANCH  12  19
ENDBRANCH   1  15
BRANCH   1  22
ATOM     22  C   UNL     1       3.947   7.725  16.516  0.00  0.00    +0.000 C 
BRANCH  22  23
ATOM     23  C   UNL     1       5.122   6.796  16.659  0.00  0.00    +0.000 A 
ATOM     24  C   UNL     1       6.327   7.118  17.372  0.00  0.00    +0.000 A 
ATOM     25  C   UNL     1       7.261   6.107  17.330  0.00  0.00    +0.000 A 
ATOM     26  S   UNL     1       6.717   4.772  16.416  0.00  0.00    +0.000 S 
ATOM     27  C   UNL     1       5.237   5.552  16.061  0.00  0.00    +0.000 A 
ENDBRANCH  22  23
ENDBRANCH   1  22
TORSDOF 4
ENDMDL
MODEL 9
REMARK VINA RESULT:      -6.5      7.445     10.189
REMARK  Name = 
REMARK  5 active torsions:
REMARK  status: ('A' for Active; 'I' for Inactive)
REMARK    1  A    between atoms: C_1  and  S_2
REMARK    2  A    between atoms: S_2  and  C_5
REMARK    3  A    between atoms: C_8  and  N_9
REMARK    4  A    between atoms: N_9  and  C_10
REMARK    5  A    between atoms: C_10  and  C_11
REMARK                            x       y       z     vdW  Elec       q    Type
REMARK                         _______ _______ _______ _____ _____    ______ ____
ROOT
ATOM      1  N   UNL     1      -0.614  11.536  19.754  0.00  0.00    +0.000 N 
ATOM      2  C   UNL     1       0.571  12.087  19.254  0.00  0.00    +0.000 C 
ATOM      3  O   UNL     1       1.097  11.604  18.249  0.00  0.00    +0.000 OA
ATOM      4  N   UNL     1       1.094  13.129  19.979  0.00  0.00    +0.000 N 
ATOM      5  C   UNL     1       2.270  13.723  19.601  0.00  0.00    +0.000 A 
ATOM      6  N   UNL     1       2.883  13.668  18.444  0.00  0.00    +0.000 NA
ATOM      7  C   UNL     1       4.080  14.351  18.527  0.00  0.00    +0.000 A 
ATOM      8  C   UNL     1       4.331  14.909  19.754  0.00  0.00    +0.000 A 
ATOM      9 CL   UNL     1       5.722  15.773  20.250  0.00  0.00    +0.000 Cl
ATOM     10  S   UNL     1       3.040  14.636  20.825  0.00  0.00    +0.000 S 
ATOM     11  H   UNL     1       0.773  13.305  20.914  0.00  0.00    +0.000 HD
ENDROOT
BRANCH   1  15
ATOM     12  C   UNL     1      -2.910  12.794  23.028  0.00  0.00    +0.000 A 
ATOM     13  C   UNL     1      -2.965  13.511  21.830  0.00  0.00    +0.000 A 
ATOM     14  C   UNL     1      -2.163  13.114  20.756  0.00  0.00    +0.000 A 
ATOM     15  C   UNL     1      -1.309  12.016  20.887  0.00  0.00    +0.000 A 
ATOM     16  C   UNL     1      -1.212  11.341  22.111  0.00  0.00    +0.000 A 
ATOM     17  C   UNL     1      -2.007  11.738  23.191  0.00  0.00    +0.000 A 
BRANCH  12  19
ATOM     18  C   UNL     1      -5.372  13.993  23.496  0.00  0.00    +0.000 C 
ATOM     19  S   UNL     1      -4.029  13.202  24.350  0.00  0.00    +0.000 S 
ATOM     20  O   UNL     1      -3.377  14.191  25.187  0.00  0.00    +0.000 OA
ATOM     21  O   UNL     1      -4.516  11.955  24.908  0.00  0.00    +0.000 OA
ENDBRANCH  12  19
ENDBRANCH   1  15
BRANCH   1  22
ATOM     22  C   UNL     1      -1.073  10.262  19.186  0.00  0.00    +0.000 C 
BRANCH  22  23
ATOM     23  C   UNL     1      -1.999  10.465  18.017  0.00  0.00    +0.000 A 
ATOM     24  C   UNL     1      -3.240  11.187  18.083  0.00  0.00    +0.000 A 
ATOM     25  C   UNL     1      -3.914  11.205  16.882  0.00  0.00    +0.000 A 
ATOM     26  S   UNL     1      -3.084  10.335  15.671  0.00  0.00    +0.000 S 
ATOM     27  C   UNL     1      -1.828   9.921  16.755  0.00  0.00    +0.000 A 
ENDBRANCH  22  23
ENDBRANCH   1  22
TORSDOF 4
ENDMDL
