MODEL 1
REMARK VINA RESULT:      -8.3      0.000      0.000
REMARK  Name = 
REMARK  6 active torsions:
REMARK  status: ('A' for Active; 'I' for Inactive)
REMARK    1  A    between atoms: C_2  and  O_3
REMARK    2  A    between atoms: C_2  and  C_4
REMARK    3  A    between atoms: C_4  and  C_5
REMARK    4  A    between atoms: N_7  and  C_8
REMARK    5  A    between atoms: C_8  and  S_9
REMARK    6  A    between atoms: S_9  and  C_10
REMARK                            x       y       z     vdW  Elec       q    Type
REMARK                         _______ _______ _______ _____ _____    ______ ____
ROOT
ATOM      1  C   UNL     1       3.104   6.157  19.440  0.00  0.00    +0.000 A 
ATOM      2  N   UNL     1       4.353   6.263  19.098  0.00  0.00    +0.000 NA
ATOM      3  N   UNL     1       5.174   5.149  19.156  0.00  0.00    +0.000 N 
ATOM      4  C   UNL     1       4.713   3.867  19.451  0.00  0.00    +0.000 A 
ATOM      5  O   UNL     1       5.421   2.864  19.453  0.00  0.00    +0.000 OA
ATOM      6  C   UNL     1       3.281   3.742  19.799  0.00  0.00    +0.000 A 
ATOM      7  C   UNL     1       2.743   2.492  20.136  0.00  0.00    +0.000 A 
ATOM      8  C   UNL     1       1.401   2.380  20.504  0.00  0.00    +0.000 A 
ATOM      9  C   UNL     1       0.595   3.515  20.545  0.00  0.00    +0.000 A 
ATOM     10  C   UNL     1       1.130   4.763  20.211  0.00  0.00    +0.000 A 
ATOM     11  C   UNL     1       2.476   4.877  19.828  0.00  0.00    +0.000 A 
ENDROOT
BRANCH   1  12
ATOM     12  C   UNL     1       2.300   7.439  19.461  0.00  0.00    +0.000 C 
BRANCH  12  14
ATOM     13  O   UNL     1       1.276   8.885  17.840  0.00  0.00    +0.000 OA
ATOM     14  C   UNL     1       2.209   8.156  18.146  0.00  0.00    +0.000 C 
BRANCH  14  15
ATOM     15  O   UNL     1       3.255   7.941  17.321  0.00  0.00    +0.000 OA
ATOM     16  H   UNL     1       4.100   8.312  17.647  0.00  0.00    +0.000 HD
ENDBRANCH  14  15
ENDBRANCH  12  14
ENDBRANCH   1  12
BRANCH   3  17
ATOM     17  C   UNL     1       6.621   5.384  18.974  0.00  0.00    +0.000 C 
BRANCH  17  18
ATOM     18  S   UNL     1       6.900   6.609  17.659  0.00  0.00    +0.000 S 
BRANCH  18  19
ATOM     19  C   UNL     1       6.733   5.670  16.192  0.00  0.00    +0.000 A 
ATOM     20  N   UNL     1       7.611   5.675  15.216  0.00  0.00    +0.000 NA
ATOM     21  C   UNL     1       7.115   4.941  14.139  0.00  0.00    +0.000 A 
ATOM     22  C   UNL     1       7.733   4.775  12.881  0.00  0.00    +0.000 A 
ATOM     23  C   UNL     1       7.095   4.039  11.873  0.00  0.00    +0.000 A 
ATOM     24  C   UNL     1       5.864   3.435  12.112  0.00  0.00    +0.000 A 
ATOM     25  C   UNL     1       5.238   3.564  13.354  0.00  0.00    +0.000 A 
ATOM     26  C   UNL     1       5.874   4.335  14.345  0.00  0.00    +0.000 A 
ATOM     27  S   UNL     1       5.325   4.721  15.929  0.00  0.00    +0.000 S 
ENDBRANCH  18  19
ENDBRANCH  17  18
ENDBRANCH   3  17
TORSDOF 6
ENDMDL
MODEL 2
REMARK VINA RESULT:      -7.7      4.272      7.657
REMARK  Name = 
REMARK  6 active torsions:
REMARK  status: ('A' for Active; 'I' for Inactive)
REMARK    1  A    between atoms: C_2  and  O_3
REMARK    2  A    between atoms: C_2  and  C_4
REMARK    3  A    between atoms: C_4  and  C_5
REMARK    4  A    between atoms: N_7  and  C_8
REMARK    5  A    between atoms: C_8  and  S_9
REMARK    6  A    between atoms: S_9  and  C_10
REMARK                            x       y       z     vdW  Elec       q    Type
REMARK                         _______ _______ _______ _____ _____    ______ ____
ROOT
ATOM      1  C   UNL     1       3.995   5.963  17.447  0.00  0.00    +0.000 A 
ATOM      2  N   UNL     1       3.549   7.052  17.999  0.00  0.00    +0.000 NA
ATOM      3  N   UNL     1       2.633   6.966  19.034  0.00  0.00    +0.000 N 
ATOM      4  C   UNL     1       2.237   5.761  19.614  0.00  0.00    +0.000 A 
ATOM      5  O   UNL     1       1.467   5.676  20.567  0.00  0.00    +0.000 OA
ATOM      6  C   UNL     1       2.779   4.525  19.010  0.00  0.00    +0.000 A 
ATOM      7  C   UNL     1       2.408   3.271  19.516  0.00  0.00    +0.000 A 
ATOM      8  C   UNL     1       2.888   2.104  18.920  0.00  0.00    +0.000 A 
ATOM      9  C   UNL     1       3.730   2.183  17.814  0.00  0.00    +0.000 A 
ATOM     10  C   UNL     1       4.099   3.432  17.307  0.00  0.00    +0.000 A 
ATOM     11  C   UNL     1       3.630   4.609  17.912  0.00  0.00    +0.000 A 
ENDROOT
BRANCH   1  12
ATOM     12  C   UNL     1       4.903   6.140  16.248  0.00  0.00    +0.000 C 
BRANCH  12  14
ATOM     13  O   UNL     1       7.275   5.813  16.073  0.00  0.00    +0.000 OA
ATOM     14  C   UNL     1       6.340   6.422  16.573  0.00  0.00    +0.000 C 
BRANCH  14  15
ATOM     15  O   UNL     1       6.524   7.418  17.465  0.00  0.00    +0.000 OA
ATOM     16  H   UNL     1       5.795   7.510  18.111  0.00  0.00    +0.000 HD
ENDBRANCH  14  15
ENDBRANCH  12  14
ENDBRANCH   1  12
BRANCH   3  17
ATOM     17  C   UNL     1       1.999   8.230  19.463  0.00  0.00    +0.000 C 
BRANCH  17  18
ATOM     18  S   UNL     1       1.777   9.337  18.037  0.00  0.00    +0.000 S 
BRANCH  18  19
ATOM     19  C   UNL     1       0.134   9.909  18.224  0.00  0.00    +0.000 A 
ATOM     20  N   UNL     1      -0.867   9.517  17.471  0.00  0.00    +0.000 NA
ATOM     21  C   UNL     1      -2.003  10.263  17.780  0.00  0.00    +0.000 A 
ATOM     22  C   UNL     1      -3.259  10.187  17.138  0.00  0.00    +0.000 A 
ATOM     23  C   UNL     1      -4.305  11.033  17.532  0.00  0.00    +0.000 A 
ATOM     24  C   UNL     1      -4.130  11.931  18.580  0.00  0.00    +0.000 A 
ATOM     25  C   UNL     1      -2.906  12.014  19.249  0.00  0.00    +0.000 A 
ATOM     26  C   UNL     1      -1.854  11.184  18.820  0.00  0.00    +0.000 A 
ATOM     27  S   UNL     1      -0.236  11.106  19.399  0.00  0.00    +0.000 S 
ENDBRANCH  18  19
ENDBRANCH  17  18
ENDBRANCH   3  17
TORSDOF 6
ENDMDL
MODEL 3
REMARK VINA RESULT:      -7.5      5.022      9.252
REMARK  Name = 
REMARK  6 active torsions:
REMARK  status: ('A' for Active; 'I' for Inactive)
REMARK    1  A    between atoms: C_2  and  O_3
REMARK    2  A    between atoms: C_2  and  C_4
REMARK    3  A    between atoms: C_4  and  C_5
REMARK    4  A    between atoms: N_7  and  C_8
REMARK    5  A    between atoms: C_8  and  S_9
REMARK    6  A    between atoms: S_9  and  C_10
REMARK                            x       y       z     vdW  Elec       q    Type
REMARK                         _______ _______ _______ _____ _____    ______ ____
ROOT
ATOM      1  C   UNL     1       2.721   5.500  20.085  0.00  0.00    +0.000 A 
ATOM      2  N   UNL     1       1.983   6.551  20.281  0.00  0.00    +0.000 NA
ATOM      3  N   UNL     1       2.048   7.608  19.389  0.00  0.00    +0.000 N 
ATOM      4  C   UNL     1       2.782   7.571  18.204  0.00  0.00    +0.000 A 
ATOM      5  O   UNL     1       2.805   8.481  17.380  0.00  0.00    +0.000 OA
ATOM      6  C   UNL     1       3.589   6.356  17.962  0.00  0.00    +0.000 A 
ATOM      7  C   UNL     1       4.378   6.251  16.807  0.00  0.00    +0.000 A 
ATOM      8  C   UNL     1       5.171   5.122  16.599  0.00  0.00    +0.000 A 
ATOM      9  C   UNL     1       5.187   4.099  17.544  0.00  0.00    +0.000 A 
ATOM     10  C   UNL     1       4.403   4.203  18.697  0.00  0.00    +0.000 A 
ATOM     11  C   UNL     1       3.593   5.331  18.903  0.00  0.00    +0.000 A 
ENDROOT
BRANCH   1  12
ATOM     12  C   UNL     1       2.682   4.438  21.162  0.00  0.00    +0.000 C 
BRANCH  12  14
ATOM     13  O   UNL     1       1.305   2.617  21.910  0.00  0.00    +0.000 OA
ATOM     14  C   UNL     1       1.466   3.557  21.145  0.00  0.00    +0.000 C 
BRANCH  14  15
ATOM     15  O   UNL     1       0.549   3.893  20.214  0.00  0.00    +0.000 OA
ATOM     16  H   UNL     1      -0.002   3.143  19.914  0.00  0.00    +0.000 HD
ENDBRANCH  14  15
ENDBRANCH  12  14
ENDBRANCH   1  12
BRANCH   3  17
ATOM     17  C   UNL     1       1.361   8.853  19.788  0.00  0.00    +0.000 C 
BRANCH  17  18
ATOM     18  S   UNL     1       0.948   8.805  21.559  0.00  0.00    +0.000 S 
BRANCH  18  19
ATOM     19  C   UNL     1      -0.134  10.166  21.758  0.00  0.00    +0.000 A 
ATOM     20  N   UNL     1      -0.805  10.411  22.859  0.00  0.00    +0.000 NA
ATOM     21  C   UNL     1      -1.680  11.475  22.644  0.00  0.00    +0.000 A 
ATOM     22  C   UNL     1      -2.620  11.988  23.564  0.00  0.00    +0.000 A 
ATOM     23  C   UNL     1      -3.467  13.043  23.193  0.00  0.00    +0.000 A 
ATOM     24  C   UNL     1      -3.366  13.618  21.931  0.00  0.00    +0.000 A 
ATOM     25  C   UNL     1      -2.430  13.147  21.007  0.00  0.00    +0.000 A 
ATOM     26  C   UNL     1      -1.611  12.064  21.379  0.00  0.00    +0.000 A 
ATOM     27  S   UNL     1      -0.426  11.237  20.447  0.00  0.00    +0.000 S 
ENDBRANCH  18  19
ENDBRANCH  17  18
ENDBRANCH   3  17
TORSDOF 6
ENDMDL
MODEL 4
REMARK VINA RESULT:      -7.5      4.459      8.283
REMARK  Name = 
REMARK  6 active torsions:
REMARK  status: ('A' for Active; 'I' for Inactive)
REMARK    1  A    between atoms: C_2  and  O_3
REMARK    2  A    between atoms: C_2  and  C_4
REMARK    3  A    between atoms: C_4  and  C_5
REMARK    4  A    between atoms: N_7  and  C_8
REMARK    5  A    between atoms: C_8  and  S_9
REMARK    6  A    between atoms: S_9  and  C_10
REMARK                            x       y       z     vdW  Elec       q    Type
REMARK                         _______ _______ _______ _____ _____    ______ ____
ROOT
ATOM      1  C   UNL     1       3.834   5.865  17.886  0.00  0.00    +0.000 A 
ATOM      2  N   UNL     1       3.424   6.853  18.623  0.00  0.00    +0.000 NA
ATOM      3  N   UNL     1       2.468   6.627  19.599  0.00  0.00    +0.000 N 
ATOM      4  C   UNL     1       1.989   5.360  19.929  0.00  0.00    +0.000 A 
ATOM      5  O   UNL     1       1.181   5.141  20.827  0.00  0.00    +0.000 OA
ATOM      6  C   UNL     1       2.489   4.230  19.116  0.00  0.00    +0.000 A 
ATOM      7  C   UNL     1       2.036   2.926  19.365  0.00  0.00    +0.000 A 
ATOM      8  C   UNL     1       2.477   1.866  18.572  0.00  0.00    +0.000 A 
ATOM      9  C   UNL     1       3.363   2.104  17.523  0.00  0.00    +0.000 A 
ATOM     10  C   UNL     1       3.813   3.403  17.272  0.00  0.00    +0.000 A 
ATOM     11  C   UNL     1       3.383   4.470  18.077  0.00  0.00    +0.000 A 
ENDROOT
BRANCH   1  12
ATOM     12  C   UNL     1       4.793   6.211  16.767  0.00  0.00    +0.000 C 
BRANCH  12  14
ATOM     13  O   UNL     1       7.031   7.038  16.497  0.00  0.00    +0.000 OA
ATOM     14  C   UNL     1       6.208   6.464  17.197  0.00  0.00    +0.000 C 
BRANCH  14  15
ATOM     15  O   UNL     1       6.504   6.012  18.433  0.00  0.00    +0.000 OA
ATOM     16  H   UNL     1       7.033   5.189  18.437  0.00  0.00    +0.000 HD
ENDBRANCH  14  15
ENDBRANCH  12  14
ENDBRANCH   1  12
BRANCH   3  17
ATOM     17  C   UNL     1       1.884   7.822  20.242  0.00  0.00    +0.000 C 
BRANCH  17  18
ATOM     18  S   UNL     1       1.407   9.045  18.983  0.00  0.00    +0.000 S 
BRANCH  18  19
ATOM     19  C   UNL     1       0.363  10.141  19.861  0.00  0.00    +0.000 A 
ATOM     20  N   UNL     1       0.268  10.169  21.170  0.00  0.00    +0.000 NA
ATOM     21  C   UNL     1      -0.749  11.047  21.545  0.00  0.00    +0.000 A 
ATOM     22  C   UNL     1      -1.203  11.294  22.859  0.00  0.00    +0.000 A 
ATOM     23  C   UNL     1      -2.267  12.178  23.083  0.00  0.00    +0.000 A 
ATOM     24  C   UNL     1      -2.864  12.848  22.019  0.00  0.00    +0.000 A 
ATOM     25  C   UNL     1      -2.421  12.640  20.710  0.00  0.00    +0.000 A 
ATOM     26  C   UNL     1      -1.376  11.723  20.496  0.00  0.00    +0.000 A 
ATOM     27  S   UNL     1      -0.669  11.219  19.012  0.00  0.00    +0.000 S 
ENDBRANCH  18  19
ENDBRANCH  17  18
ENDBRANCH   3  17
TORSDOF 6
ENDMDL
MODEL 5
REMARK VINA RESULT:      -7.4      2.935      6.508
REMARK  Name = 
REMARK  6 active torsions:
REMARK  status: ('A' for Active; 'I' for Inactive)
REMARK    1  A    between atoms: C_2  and  O_3
REMARK    2  A    between atoms: C_2  and  C_4
REMARK    3  A    between atoms: C_4  and  C_5
REMARK    4  A    between atoms: N_7  and  C_8
REMARK    5  A    between atoms: C_8  and  S_9
REMARK    6  A    between atoms: S_9  and  C_10
REMARK                            x       y       z     vdW  Elec       q    Type
REMARK                         _______ _______ _______ _____ _____    ______ ____
ROOT
ATOM      1  C   UNL     1       5.326   4.636  16.203  0.00  0.00    +0.000 A 
ATOM      2  N   UNL     1       4.534   3.655  16.520  0.00  0.00    +0.000 NA
ATOM      3  N   UNL     1       4.544   3.160  17.813  0.00  0.00    +0.000 N 
ATOM      4  C   UNL     1       5.280   3.732  18.851  0.00  0.00    +0.000 A 
ATOM      5  O   UNL     1       5.255   3.334  20.013  0.00  0.00    +0.000 OA
ATOM      6  C   UNL     1       6.148   4.874  18.496  0.00  0.00    +0.000 A 
ATOM      7  C   UNL     1       6.942   5.489  19.476  0.00  0.00    +0.000 A 
ATOM      8  C   UNL     1       7.792   6.541  19.133  0.00  0.00    +0.000 A 
ATOM      9  C   UNL     1       7.860   6.977  17.812  0.00  0.00    +0.000 A 
ATOM     10  C   UNL     1       7.072   6.365  16.834  0.00  0.00    +0.000 A 
ATOM     11  C   UNL     1       6.205   5.315  17.178  0.00  0.00    +0.000 A 
ENDROOT
BRANCH   1  12
ATOM     12  C   UNL     1       5.341   5.045  14.746  0.00  0.00    +0.000 C 
BRANCH  12  14
ATOM     13  O   UNL     1       7.429   5.157  13.566  0.00  0.00    +0.000 OA
ATOM     14  C   UNL     1       6.477   4.487  13.940  0.00  0.00    +0.000 C 
BRANCH  14  15
ATOM     15  O   UNL     1       6.371   3.171  13.664  0.00  0.00    +0.000 OA
ATOM     16  H   UNL     1       7.166   2.652  13.901  0.00  0.00    +0.000 HD
ENDBRANCH  14  15
ENDBRANCH  12  14
ENDBRANCH   1  12
BRANCH   3  17
ATOM     17  C   UNL     1       3.794   1.909  18.048  0.00  0.00    +0.000 C 
BRANCH  17  18
ATOM     18  S   UNL     1       2.005   2.217  17.932  0.00  0.00    +0.000 S 
BRANCH  18  19
ATOM     19  C   UNL     1       1.838   3.854  18.527  0.00  0.00    +0.000 A 
ATOM     20  N   UNL     1       1.965   4.922  17.775  0.00  0.00    +0.000 NA
ATOM     21  C   UNL     1       1.919   6.063  18.575  0.00  0.00    +0.000 A 
ATOM     22  C   UNL     1       2.092   7.397  18.145  0.00  0.00    +0.000 A 
ATOM     23  C   UNL     1       2.059   8.447  19.073  0.00  0.00    +0.000 A 
ATOM     24  C   UNL     1       1.823   8.191  20.420  0.00  0.00    +0.000 A 
ATOM     25  C   UNL     1       1.626   6.883  20.872  0.00  0.00    +0.000 A 
ATOM     26  C   UNL     1       1.696   5.836  19.935  0.00  0.00    +0.000 A 
ATOM     27  S   UNL     1       1.561   4.142  20.198  0.00  0.00    +0.000 S 
ENDBRANCH  18  19
ENDBRANCH  17  18
ENDBRANCH   3  17
TORSDOF 6
ENDMDL
MODEL 6
REMARK VINA RESULT:      -7.4      4.230      7.845
REMARK  Name = 
REMARK  6 active torsions:
REMARK  status: ('A' for Active; 'I' for Inactive)
REMARK    1  A    between atoms: C_2  and  O_3
REMARK    2  A    between atoms: C_2  and  C_4
REMARK    3  A    between atoms: C_4  and  C_5
REMARK    4  A    between atoms: N_7  and  C_8
REMARK    5  A    between atoms: C_8  and  S_9
REMARK    6  A    between atoms: S_9  and  C_10
REMARK                            x       y       z     vdW  Elec       q    Type
REMARK                         _______ _______ _______ _____ _____    ______ ____
ROOT
ATOM      1  C   UNL     1       4.004   5.621  17.598  0.00  0.00    +0.000 A 
ATOM      2  N   UNL     1       3.602   6.738  18.126  0.00  0.00    +0.000 NA
ATOM      3  N   UNL     1       2.621   6.717  19.103  0.00  0.00    +0.000 N 
ATOM      4  C   UNL     1       2.107   5.543  19.653  0.00  0.00    +0.000 A 
ATOM      5  O   UNL     1       1.275   5.512  20.557  0.00  0.00    +0.000 OA
ATOM      6  C   UNL     1       2.597   4.272  19.079  0.00  0.00    +0.000 A 
ATOM      7  C   UNL     1       2.110   3.046  19.556  0.00  0.00    +0.000 A 
ATOM      8  C   UNL     1       2.543   1.848  18.986  0.00  0.00    +0.000 A 
ATOM      9  C   UNL     1       3.455   1.869  17.933  0.00  0.00    +0.000 A 
ATOM     10  C   UNL     1       3.940   3.089  17.455  0.00  0.00    +0.000 A 
ATOM     11  C   UNL     1       3.517   4.296  18.035  0.00  0.00    +0.000 A 
ENDROOT
BRANCH   1  12
ATOM     12  C   UNL     1       4.993   5.733  16.458  0.00  0.00    +0.000 C 
BRANCH  12  14
ATOM     13  O   UNL     1       7.306   6.252  16.071  0.00  0.00    +0.000 OA
ATOM     14  C   UNL     1       6.408   6.018  16.868  0.00  0.00    +0.000 C 
BRANCH  14  15
ATOM     15  O   UNL     1       6.615   6.005  18.201  0.00  0.00    +0.000 OA
ATOM     16  H   UNL     1       7.293   6.643  18.502  0.00  0.00    +0.000 HD
ENDBRANCH  14  15
ENDBRANCH  12  14
ENDBRANCH   1  12
BRANCH   3  17
ATOM     17  C   UNL     1       2.051   8.022  19.497  0.00  0.00    +0.000 C 
BRANCH  17  18
ATOM     18  S   UNL     1       1.802   9.068  18.031  0.00  0.00    +0.000 S 
BRANCH  18  19
ATOM     19  C   UNL     1       0.778  10.357  18.624  0.00  0.00    +0.000 A 
ATOM     20  N   UNL     1       1.209  11.351  19.366  0.00  0.00    +0.000 NA
ATOM     21  C   UNL     1       0.126  12.120  19.789  0.00  0.00    +0.000 A 
ATOM     22  C   UNL     1       0.175  13.231  20.659  0.00  0.00    +0.000 A 
ATOM     23  C   UNL     1      -1.007  13.888  21.032  0.00  0.00    +0.000 A 
ATOM     24  C   UNL     1      -2.234  13.475  20.522  0.00  0.00    +0.000 A 
ATOM     25  C   UNL     1      -2.311  12.393  19.641  0.00  0.00    +0.000 A 
ATOM     26  C   UNL     1      -1.121  11.721  19.304  0.00  0.00    +0.000 A 
ATOM     27  S   UNL     1      -0.910  10.335  18.308  0.00  0.00    +0.000 S 
ENDBRANCH  18  19
ENDBRANCH  17  18
ENDBRANCH   3  17
TORSDOF 6
ENDMDL
MODEL 7
REMARK VINA RESULT:      -7.4      4.686      8.933
REMARK  Name = 
REMARK  6 active torsions:
REMARK  status: ('A' for Active; 'I' for Inactive)
REMARK    1  A    between atoms: C_2  and  O_3
REMARK    2  A    between atoms: C_2  and  C_4
REMARK    3  A    between atoms: C_4  and  C_5
REMARK    4  A    between atoms: N_7  and  C_8
REMARK    5  A    between atoms: C_8  and  S_9
REMARK    6  A    between atoms: S_9  and  C_10
REMARK                            x       y       z     vdW  Elec       q    Type
REMARK                         _______ _______ _______ _____ _____    ______ ____
ROOT
ATOM      1  C   UNL     1       2.968   5.187  19.359  0.00  0.00    +0.000 A 
ATOM      2  N   UNL     1       2.243   6.218  19.673  0.00  0.00    +0.000 NA
ATOM      3  N   UNL     1       2.375   7.392  18.951  0.00  0.00    +0.000 N 
ATOM      4  C   UNL     1       3.168   7.508  17.809  0.00  0.00    +0.000 A 
ATOM      5  O   UNL     1       3.251   8.528  17.130  0.00  0.00    +0.000 OA
ATOM      6  C   UNL     1       3.960   6.320  17.429  0.00  0.00    +0.000 A 
ATOM      7  C   UNL     1       4.805   6.362  16.310  0.00  0.00    +0.000 A 
ATOM      8  C   UNL     1       5.583   5.253  15.975  0.00  0.00    +0.000 A 
ATOM      9  C   UNL     1       5.529   4.104  16.758  0.00  0.00    +0.000 A 
ATOM     10  C   UNL     1       4.690   4.060  17.875  0.00  0.00    +0.000 A 
ATOM     11  C   UNL     1       3.895   5.168  18.208  0.00  0.00    +0.000 A 
ENDROOT
BRANCH   1  12
ATOM     12  C   UNL     1       2.852   3.980  20.265  0.00  0.00    +0.000 C 
BRANCH  12  14
ATOM     13  O   UNL     1       1.755   1.973  19.531  0.00  0.00    +0.000 OA
ATOM     14  C   UNL     1       1.666   3.098  20.002  0.00  0.00    +0.000 C 
BRANCH  14  15
ATOM     15  O   UNL     1       0.479   3.646  20.340  0.00  0.00    +0.000 OA
ATOM     16  H   UNL     1       0.553   4.544  20.722  0.00  0.00    +0.000 HD
ENDBRANCH  14  15
ENDBRANCH  12  14
ENDBRANCH   1  12
BRANCH   3  17
ATOM     17  C   UNL     1       1.696   8.585  19.496  0.00  0.00    +0.000 C 
BRANCH  17  18
ATOM     18  S   UNL     1       1.073   8.243  21.171  0.00  0.00    +0.000 S 
BRANCH  18  19
ATOM     19  C   UNL     1       0.001   9.591  21.484  0.00  0.00    +0.000 A 
ATOM     20  N   UNL     1      -0.432  10.412  20.556  0.00  0.00    +0.000 NA
ATOM     21  C   UNL     1      -1.144  11.453  21.151  0.00  0.00    +0.000 A 
ATOM     22  C   UNL     1      -1.703  12.571  20.494  0.00  0.00    +0.000 A 
ATOM     23  C   UNL     1      -2.362  13.566  21.230  0.00  0.00    +0.000 A 
ATOM     24  C   UNL     1      -2.502  13.447  22.609  0.00  0.00    +0.000 A 
ATOM     25  C   UNL     1      -1.978  12.341  23.284  0.00  0.00    +0.000 A 
ATOM     26  C   UNL     1      -1.289  11.368  22.537  0.00  0.00    +0.000 A 
ATOM     27  S   UNL     1      -0.491   9.948  23.091  0.00  0.00    +0.000 S 
ENDBRANCH  18  19
ENDBRANCH  17  18
ENDBRANCH   3  17
TORSDOF 6
ENDMDL
MODEL 8
REMARK VINA RESULT:      -7.3      4.172      7.855
REMARK  Name = 
REMARK  6 active torsions:
REMARK  status: ('A' for Active; 'I' for Inactive)
REMARK    1  A    between atoms: C_2  and  O_3
REMARK    2  A    between atoms: C_2  and  C_4
REMARK    3  A    between atoms: C_4  and  C_5
REMARK    4  A    between atoms: N_7  and  C_8
REMARK    5  A    between atoms: C_8  and  S_9
REMARK    6  A    between atoms: S_9  and  C_10
REMARK                            x       y       z     vdW  Elec       q    Type
REMARK                         _______ _______ _______ _____ _____    ______ ____
ROOT
ATOM      1  C   UNL     1       4.022   5.622  17.542  0.00  0.00    +0.000 A 
ATOM      2  N   UNL     1       3.627   6.738  18.079  0.00  0.00    +0.000 NA
ATOM      3  N   UNL     1       2.678   6.712  19.086  0.00  0.00    +0.000 N 
ATOM      4  C   UNL     1       2.191   5.537  19.656  0.00  0.00    +0.000 A 
ATOM      5  O   UNL     1       1.388   5.503  20.585  0.00  0.00    +0.000 OA
ATOM      6  C   UNL     1       2.673   4.268  19.070  0.00  0.00    +0.000 A 
ATOM      7  C   UNL     1       2.210   3.040  19.567  0.00  0.00    +0.000 A 
ATOM      8  C   UNL     1       2.635   1.843  18.988  0.00  0.00    +0.000 A 
ATOM      9  C   UNL     1       3.513   1.867  17.907  0.00  0.00    +0.000 A 
ATOM     10  C   UNL     1       3.974   3.089  17.410  0.00  0.00    +0.000 A 
ATOM     11  C   UNL     1       3.560   4.295  17.998  0.00  0.00    +0.000 A 
ENDROOT
BRANCH   1  12
ATOM     12  C   UNL     1       4.974   5.738  16.371  0.00  0.00    +0.000 C 
BRANCH  12  14
ATOM     13  O   UNL     1       7.326   5.934  15.929  0.00  0.00    +0.000 OA
ATOM     14  C   UNL     1       6.410   5.971  16.738  0.00  0.00    +0.000 C 
BRANCH  14  15
ATOM     15  O   UNL     1       6.614   6.238  18.045  0.00  0.00    +0.000 OA
ATOM     16  H   UNL     1       7.549   6.163  18.322  0.00  0.00    +0.000 HD
ENDBRANCH  14  15
ENDBRANCH  12  14
ENDBRANCH   1  12
BRANCH   3  17
ATOM     17  C   UNL     1       2.110   8.014  19.493  0.00  0.00    +0.000 C 
BRANCH  17  18
ATOM     18  S   UNL     1       1.848   9.070  18.036  0.00  0.00    +0.000 S 
BRANCH  18  19
ATOM     19  C   UNL     1       1.097  10.502  18.705  0.00  0.00    +0.000 A 
ATOM     20  N   UNL     1      -0.076  10.504  19.295  0.00  0.00    +0.000 NA
ATOM     21  C   UNL     1      -0.450  11.816  19.582  0.00  0.00    +0.000 A 
ATOM     22  C   UNL     1      -1.673  12.235  20.149  0.00  0.00    +0.000 A 
ATOM     23  C   UNL     1      -1.929  13.600  20.346  0.00  0.00    +0.000 A 
ATOM     24  C   UNL     1      -0.969  14.552  20.018  0.00  0.00    +0.000 A 
ATOM     25  C   UNL     1       0.260  14.166  19.476  0.00  0.00    +0.000 A 
ATOM     26  C   UNL     1       0.489  12.796  19.251  0.00  0.00    +0.000 A 
ATOM     27  S   UNL     1       1.860  12.032  18.548  0.00  0.00    +0.000 S 
ENDBRANCH  18  19
ENDBRANCH  17  18
ENDBRANCH   3  17
TORSDOF 6
ENDMDL
MODEL 9
REMARK VINA RESULT:      -7.3      4.377      8.101
REMARK  Name = 
REMARK  6 active torsions:
REMARK  status: ('A' for Active; 'I' for Inactive)
REMARK    1  A    between atoms: C_2  and  O_3
REMARK    2  A    between atoms: C_2  and  C_4
REMARK    3  A    between atoms: C_4  and  C_5
REMARK    4  A    between atoms: N_7  and  C_8
REMARK    5  A    between atoms: C_8  and  S_9
REMARK    6  A    between atoms: S_9  and  C_10
REMARK                            x       y       z     vdW  Elec       q    Type
REMARK                         _______ _______ _______ _____ _____    ______ ____
ROOT
ATOM      1  C   UNL     1       3.991   5.764  17.668  0.00  0.00    +0.000 A 
ATOM      2  N   UNL     1       3.604   6.813  18.330  0.00  0.00    +0.000 NA
ATOM      3  N   UNL     1       2.669   6.674  19.342  0.00  0.00    +0.000 N 
ATOM      4  C   UNL     1       2.190   5.442  19.785  0.00  0.00    +0.000 A 
ATOM      5  O   UNL     1       1.401   5.305  20.717  0.00  0.00    +0.000 OA
ATOM      6  C   UNL     1       2.664   4.246  19.057  0.00  0.00    +0.000 A 
ATOM      7  C   UNL     1       2.210   2.971  19.422  0.00  0.00    +0.000 A 
ATOM      8  C   UNL     1       2.626   1.846  18.709  0.00  0.00    +0.000 A 
ATOM      9  C   UNL     1       3.489   1.990  17.625  0.00  0.00    +0.000 A 
ATOM     10  C   UNL     1       3.941   3.261  17.258  0.00  0.00    +0.000 A 
ATOM     11  C   UNL     1       3.536   4.393  17.982  0.00  0.00    +0.000 A 
ENDROOT
BRANCH   1  12
ATOM     12  C   UNL     1       4.925   6.010  16.503  0.00  0.00    +0.000 C 
BRANCH  12  14
ATOM     13  O   UNL     1       7.279   6.082  16.032  0.00  0.00    +0.000 OA
ATOM     14  C   UNL     1       6.380   6.097  16.861  0.00  0.00    +0.000 C 
BRANCH  14  15
ATOM     15  O   UNL     1       6.622   6.203  18.184  0.00  0.00    +0.000 OA
ATOM     16  H   UNL     1       5.992   5.704  18.743  0.00  0.00    +0.000 HD
ENDBRANCH  14  15
ENDBRANCH  12  14
ENDBRANCH   1  12
BRANCH   3  17
ATOM     17  C   UNL     1       2.107   7.923  19.898  0.00  0.00    +0.000 C 
BRANCH  17  18
ATOM     18  S   UNL     1       1.491   8.987  18.558  0.00  0.00    +0.000 S 
BRANCH  18  19
ATOM     19  C   UNL     1       0.282   9.973  19.351  0.00  0.00    +0.000 A 
ATOM     20  N   UNL     1      -0.760  10.486  18.738  0.00  0.00    +0.000 NA
ATOM     21  C   UNL     1      -1.444  11.333  19.609  0.00  0.00    +0.000 A 
ATOM     22  C   UNL     1      -2.572  12.123  19.300  0.00  0.00    +0.000 A 
ATOM     23  C   UNL     1      -3.133  12.962  20.273  0.00  0.00    +0.000 A 
ATOM     24  C   UNL     1      -2.608  13.001  21.561  0.00  0.00    +0.000 A 
ATOM     25  C   UNL     1      -1.505  12.213  21.902  0.00  0.00    +0.000 A 
ATOM     26  C   UNL     1      -0.930  11.402  20.907  0.00  0.00    +0.000 A 
ATOM     27  S   UNL     1       0.453  10.385  21.009  0.00  0.00    +0.000 S 
ENDBRANCH  18  19
ENDBRANCH  17  18
ENDBRANCH   3  17
TORSDOF 6
ENDMDL
