MODEL 1
REMARK VINA RESULT:      -7.1      0.000      0.000
REMARK  Name = 
REMARK  6 active torsions:
REMARK  status: ('A' for Active; 'I' for Inactive)
REMARK    1  A    between atoms: O_1  and  C_2
REMARK    2  A    between atoms: C_2  and  C_3
REMARK    3  A    between atoms: C_3  and  C_4
REMARK    4  A    between atoms: C_4  and  O_5
REMARK    5  A    between atoms: C_8  and  C_9
REMARK    6  A    between atoms: C_10  and  C_11
REMARK                            x       y       z     vdW  Elec       q    Type
REMARK                         _______ _______ _______ _____ _____    ______ ____
ROOT
ATOM      1  C   UNL     1       6.609   5.696  16.629  0.00  0.00    +0.000 C 
ATOM      2  C   UNL     1       6.717   5.041  18.001  0.00  0.00    +0.000 C 
ATOM      3  O   UNL     1       7.224   6.071  18.843  0.00  0.00    +0.000 OA
ATOM      4  C   UNL     1       7.746   6.981  17.990  0.00  0.00    +0.000 C 
ATOM      5  N   UNL     1       7.547   6.850  16.724  0.00  0.00    +0.000 NA
ENDROOT
BRANCH   4   6
ATOM      6  C   UNL     1       8.486   8.081  18.609  0.00  0.00    +0.000 C 
ATOM      7  C   UNL     1       8.478   9.348  18.151  0.00  0.00    +0.000 C 
BRANCH   7   8
ATOM      8  C   UNL     1       9.313  10.415  18.722  0.00  0.00    +0.000 A 
ATOM      9  C   UNL     1      10.076  11.216  17.862  0.00  0.00    +0.000 A 
ATOM     10  C   UNL     1      10.915  12.214  18.371  0.00  0.00    +0.000 A 
ATOM     11  C   UNL     1      10.990  12.430  19.745  0.00  0.00    +0.000 A 
ATOM     12  C   UNL     1      10.215  11.660  20.609  0.00  0.00    +0.000 A 
ATOM     13  C   UNL     1       9.379  10.664  20.102  0.00  0.00    +0.000 A 
ENDBRANCH   7   8
ENDBRANCH   4   6
BRANCH   1  14
ATOM     14  C   UNL     1       5.176   6.207  16.357  0.00  0.00    +0.000 C 
BRANCH  14  15
ATOM     15  O   UNL     1       5.093   6.879  15.101  0.00  0.00    +0.000 OA
ATOM     16  H   UNL     1       5.144   6.205  14.401  0.00  0.00    +0.000 HD
ENDBRANCH  14  15
ENDBRANCH   1  14
BRANCH   1  17
ATOM     17  C   UNL     1       7.056   4.775  15.485  0.00  0.00    +0.000 C 
BRANCH  17  18
ATOM     18  O   UNL     1       7.724   5.518  14.467  0.00  0.00    +0.000 OA
ATOM     19  H   UNL     1       8.232   4.848  13.965  0.00  0.00    +0.000 HD
ENDBRANCH  17  18
ENDBRANCH   1  17
TORSDOF 6
ENDMDL
MODEL 2
REMARK VINA RESULT:      -6.7      1.430      2.257
REMARK  Name = 
REMARK  6 active torsions:
REMARK  status: ('A' for Active; 'I' for Inactive)
REMARK    1  A    between atoms: O_1  and  C_2
REMARK    2  A    between atoms: C_2  and  C_3
REMARK    3  A    between atoms: C_3  and  C_4
REMARK    4  A    between atoms: C_4  and  O_5
REMARK    5  A    between atoms: C_8  and  C_9
REMARK    6  A    between atoms: C_10  and  C_11
REMARK                            x       y       z     vdW  Elec       q    Type
REMARK                         _______ _______ _______ _____ _____    ______ ____
ROOT
ATOM      1  C   UNL     1       6.699   5.672  18.062  0.00  0.00    +0.000 C 
ATOM      2  C   UNL     1       5.880   6.559  17.130  0.00  0.00    +0.000 C 
ATOM      3  O   UNL     1       6.724   7.679  16.881  0.00  0.00    +0.000 OA
ATOM      4  C   UNL     1       7.643   7.640  17.872  0.00  0.00    +0.000 C 
ATOM      5  N   UNL     1       7.688   6.617  18.654  0.00  0.00    +0.000 NA
ENDROOT
BRANCH   4   6
ATOM      6  C   UNL     1       8.547   8.788  17.947  0.00  0.00    +0.000 C 
ATOM      7  C   UNL     1       8.816   9.463  19.081  0.00  0.00    +0.000 C 
BRANCH   7   8
ATOM      8  C   UNL     1       9.643  10.678  19.117  0.00  0.00    +0.000 A 
ATOM      9  C   UNL     1       9.979  11.309  17.911  0.00  0.00    +0.000 A 
ATOM     10  C   UNL     1      10.798  12.443  17.902  0.00  0.00    +0.000 A 
ATOM     11  C   UNL     1      11.282  12.966  19.099  0.00  0.00    +0.000 A 
ATOM     12  C   UNL     1      10.933  12.366  20.306  0.00  0.00    +0.000 A 
ATOM     13  C   UNL     1      10.117  11.234  20.317  0.00  0.00    +0.000 A 
ENDBRANCH   7   8
ENDBRANCH   4   6
BRANCH   1  14
ATOM     14  C   UNL     1       7.437   4.561  17.282  0.00  0.00    +0.000 C 
BRANCH  14  15
ATOM     15  O   UNL     1       6.576   3.929  16.337  0.00  0.00    +0.000 OA
ATOM     16  H   UNL     1       6.913   3.030  16.183  0.00  0.00    +0.000 HD
ENDBRANCH  14  15
ENDBRANCH   1  14
BRANCH   1  17
ATOM     17  C   UNL     1       5.862   5.048  19.187  0.00  0.00    +0.000 C 
BRANCH  17  18
ATOM     18  O   UNL     1       5.762   3.635  19.022  0.00  0.00    +0.000 OA
ATOM     19  H   UNL     1       6.668   3.303  19.185  0.00  0.00    +0.000 HD
ENDBRANCH  17  18
ENDBRANCH   1  17
TORSDOF 6
ENDMDL
MODEL 3
REMARK VINA RESULT:      -6.7      1.291      2.138
REMARK  Name = 
REMARK  6 active torsions:
REMARK  status: ('A' for Active; 'I' for Inactive)
REMARK    1  A    between atoms: O_1  and  C_2
REMARK    2  A    between atoms: C_2  and  C_3
REMARK    3  A    between atoms: C_3  and  C_4
REMARK    4  A    between atoms: C_4  and  O_5
REMARK    5  A    between atoms: C_8  and  C_9
REMARK    6  A    between atoms: C_10  and  C_11
REMARK                            x       y       z     vdW  Elec       q    Type
REMARK                         _______ _______ _______ _____ _____    ______ ____
ROOT
ATOM      1  C   UNL     1       6.516   5.410  17.210  0.00  0.00    +0.000 C 
ATOM      2  C   UNL     1       5.741   6.631  16.728  0.00  0.00    +0.000 C 
ATOM      3  O   UNL     1       6.600   7.729  17.018  0.00  0.00    +0.000 OA
ATOM      4  C   UNL     1       7.479   7.244  17.924  0.00  0.00    +0.000 C 
ATOM      5  N   UNL     1       7.487   5.982  18.186  0.00  0.00    +0.000 NA
ENDROOT
BRANCH   4   6
ATOM      6  C   UNL     1       8.386   8.225  18.520  0.00  0.00    +0.000 C 
ATOM      7  C   UNL     1       8.471   9.510  18.125  0.00  0.00    +0.000 C 
BRANCH   7   8
ATOM      8  C   UNL     1       9.464  10.453  18.663  0.00  0.00    +0.000 A 
ATOM      9  C   UNL     1       9.455  10.742  20.034  0.00  0.00    +0.000 A 
ATOM     10  C   UNL     1      10.356  11.665  20.576  0.00  0.00    +0.000 A 
ATOM     11  C   UNL     1      11.284  12.301  19.754  0.00  0.00    +0.000 A 
ATOM     12  C   UNL     1      11.322  12.002  18.394  0.00  0.00    +0.000 A 
ATOM     13  C   UNL     1      10.423  11.081  17.853  0.00  0.00    +0.000 A 
ENDBRANCH   7   8
ENDBRANCH   4   6
BRANCH   1  14
ATOM     14  C   UNL     1       7.278   4.729  16.051  0.00  0.00    +0.000 C 
BRANCH  14  15
ATOM     15  O   UNL     1       7.312   5.561  14.892  0.00  0.00    +0.000 OA
ATOM     16  H   UNL     1       7.263   4.983  14.111  0.00  0.00    +0.000 HD
ENDBRANCH  14  15
ENDBRANCH   1  14
BRANCH   1  17
ATOM     17  C   UNL     1       5.632   4.379  17.925  0.00  0.00    +0.000 C 
BRANCH  17  18
ATOM     18  O   UNL     1       5.139   3.407  17.004  0.00  0.00    +0.000 OA
ATOM     19  H   UNL     1       5.939   3.059  16.561  0.00  0.00    +0.000 HD
ENDBRANCH  17  18
ENDBRANCH   1  17
TORSDOF 6
ENDMDL
MODEL 4
REMARK VINA RESULT:      -6.6      0.656      1.340
REMARK  Name = 
REMARK  6 active torsions:
REMARK  status: ('A' for Active; 'I' for Inactive)
REMARK    1  A    between atoms: O_1  and  C_2
REMARK    2  A    between atoms: C_2  and  C_3
REMARK    3  A    between atoms: C_3  and  C_4
REMARK    4  A    between atoms: C_4  and  O_5
REMARK    5  A    between atoms: C_8  and  C_9
REMARK    6  A    between atoms: C_10  and  C_11
REMARK                            x       y       z     vdW  Elec       q    Type
REMARK                         _______ _______ _______ _____ _____    ______ ____
ROOT
ATOM      1  C   UNL     1       6.475   5.824  16.673  0.00  0.00    +0.000 C 
ATOM      2  C   UNL     1       6.713   5.125  18.008  0.00  0.00    +0.000 C 
ATOM      3  O   UNL     1       7.312   6.126  18.825  0.00  0.00    +0.000 OA
ATOM      4  C   UNL     1       7.755   7.058  17.952  0.00  0.00    +0.000 C 
ATOM      5  N   UNL     1       7.430   6.968  16.709  0.00  0.00    +0.000 NA
ENDROOT
BRANCH   4   6
ATOM      6  C   UNL     1       8.565   8.133  18.526  0.00  0.00    +0.000 C 
ATOM      7  C   UNL     1       8.425   9.434  18.209  0.00  0.00    +0.000 C 
BRANCH   7   8
ATOM      8  C   UNL     1       9.320  10.487  18.716  0.00  0.00    +0.000 A 
ATOM      9  C   UNL     1       9.428  10.679  20.100  0.00  0.00    +0.000 A 
ATOM     10  C   UNL     1      10.236  11.697  20.618  0.00  0.00    +0.000 A 
ATOM     11  C   UNL     1      10.953  12.527  19.759  0.00  0.00    +0.000 A 
ATOM     12  C   UNL     1      10.876  12.328  18.382  0.00  0.00    +0.000 A 
ATOM     13  C   UNL     1      10.070  11.313  17.864  0.00  0.00    +0.000 A 
ENDBRANCH   7   8
ENDBRANCH   4   6
BRANCH   1  14
ATOM     14  C   UNL     1       5.027   6.354  16.562  0.00  0.00    +0.000 C 
BRANCH  14  15
ATOM     15  O   UNL     1       4.083   5.383  17.009  0.00  0.00    +0.000 OA
ATOM     16  H   UNL     1       4.546   4.772  17.608  0.00  0.00    +0.000 HD
ENDBRANCH  14  15
ENDBRANCH   1  14
BRANCH   1  17
ATOM     17  C   UNL     1       6.796   4.936  15.463  0.00  0.00    +0.000 C 
BRANCH  17  18
ATOM     18  O   UNL     1       7.859   5.494  14.692  0.00  0.00    +0.000 OA
ATOM     19  H   UNL     1       8.446   5.917  15.351  0.00  0.00    +0.000 HD
ENDBRANCH  17  18
ENDBRANCH   1  17
TORSDOF 6
ENDMDL
MODEL 5
REMARK VINA RESULT:      -6.5      0.905      1.240
REMARK  Name = 
REMARK  6 active torsions:
REMARK  status: ('A' for Active; 'I' for Inactive)
REMARK    1  A    between atoms: O_1  and  C_2
REMARK    2  A    between atoms: C_2  and  C_3
REMARK    3  A    between atoms: C_3  and  C_4
REMARK    4  A    between atoms: C_4  and  O_5
REMARK    5  A    between atoms: C_8  and  C_9
REMARK    6  A    between atoms: C_10  and  C_11
REMARK                            x       y       z     vdW  Elec       q    Type
REMARK                         _______ _______ _______ _____ _____    ______ ____
ROOT
ATOM      1  C   UNL     1       5.964   5.939  16.832  0.00  0.00    +0.000 C 
ATOM      2  C   UNL     1       7.021   4.982  17.375  0.00  0.00    +0.000 C 
ATOM      3  O   UNL     1       7.811   5.790  18.243  0.00  0.00    +0.000 OA
ATOM      4  C   UNL     1       7.530   7.060  17.876  0.00  0.00    +0.000 C 
ATOM      5  N   UNL     1       6.578   7.281  17.036  0.00  0.00    +0.000 NA
ENDROOT
BRANCH   4   6
ATOM      6  C   UNL     1       8.341   8.099  18.509  0.00  0.00    +0.000 C 
ATOM      7  C   UNL     1       8.377   9.382  18.100  0.00  0.00    +0.000 C 
BRANCH   7   8
ATOM      8  C   UNL     1       9.280  10.387  18.683  0.00  0.00    +0.000 A 
ATOM      9  C   UNL     1      10.086  11.153  17.830  0.00  0.00    +0.000 A 
ATOM     10  C   UNL     1      10.988  12.089  18.349  0.00  0.00    +0.000 A 
ATOM     11  C   UNL     1      11.084  12.278  19.726  0.00  0.00    +0.000 A 
ATOM     12  C   UNL     1      10.268  11.543  20.583  0.00  0.00    +0.000 A 
ATOM     13  C   UNL     1       9.369  10.609  20.066  0.00  0.00    +0.000 A 
ENDBRANCH   7   8
ENDBRANCH   4   6
BRANCH   1  14
ATOM     14  C   UNL     1       4.645   5.838  17.632  0.00  0.00    +0.000 C 
BRANCH  14  15
ATOM     15  O   UNL     1       4.853   5.224  18.902  0.00  0.00    +0.000 OA
ATOM     16  H   UNL     1       5.809   5.074  19.006  0.00  0.00    +0.000 HD
ENDBRANCH  14  15
ENDBRANCH   1  14
BRANCH   1  17
ATOM     17  C   UNL     1       5.680   5.736  15.337  0.00  0.00    +0.000 C 
BRANCH  17  18
ATOM     18  O   UNL     1       6.859   5.320  14.648  0.00  0.00    +0.000 OA
ATOM     19  H   UNL     1       6.642   5.430  13.701  0.00  0.00    +0.000 HD
ENDBRANCH  17  18
ENDBRANCH   1  17
TORSDOF 6
ENDMDL
MODEL 6
REMARK VINA RESULT:      -6.5      1.285      1.305
REMARK  Name = 
REMARK  6 active torsions:
REMARK  status: ('A' for Active; 'I' for Inactive)
REMARK    1  A    between atoms: O_1  and  C_2
REMARK    2  A    between atoms: C_2  and  C_3
REMARK    3  A    between atoms: C_3  and  C_4
REMARK    4  A    between atoms: C_4  and  O_5
REMARK    5  A    between atoms: C_8  and  C_9
REMARK    6  A    between atoms: C_10  and  C_11
REMARK                            x       y       z     vdW  Elec       q    Type
REMARK                         _______ _______ _______ _____ _____    ______ ____
ROOT
ATOM      1  C   UNL     1       6.287   5.926  17.139  0.00  0.00    +0.000 C 
ATOM      2  C   UNL     1       7.347   5.443  18.124  0.00  0.00    +0.000 C 
ATOM      3  O   UNL     1       7.950   6.640  18.605  0.00  0.00    +0.000 OA
ATOM      4  C   UNL     1       7.608   7.582  17.698  0.00  0.00    +0.000 C 
ATOM      5  N   UNL     1       6.752   7.296  16.778  0.00  0.00    +0.000 NA
ENDROOT
BRANCH   4   6
ATOM      6  C   UNL     1       8.241   8.890  17.869  0.00  0.00    +0.000 C 
ATOM      7  C   UNL     1       8.942   9.251  18.962  0.00  0.00    +0.000 C 
BRANCH   7   8
ATOM      8  C   UNL     1       9.479  10.605  19.161  0.00  0.00    +0.000 A 
ATOM      9  C   UNL     1       9.735  11.408  18.041  0.00  0.00    +0.000 A 
ATOM     10  C   UNL     1      10.285  12.686  18.188  0.00  0.00    +0.000 A 
ATOM     11  C   UNL     1      10.576  13.180  19.458  0.00  0.00    +0.000 A 
ATOM     12  C   UNL     1      10.300  12.404  20.581  0.00  0.00    +0.000 A 
ATOM     13  C   UNL     1       9.752  11.129  20.435  0.00  0.00    +0.000 A 
ENDBRANCH   7   8
ENDBRANCH   4   6
BRANCH   1  14
ATOM     14  C   UNL     1       4.893   6.004  17.802  0.00  0.00    +0.000 C 
BRANCH  14  15
ATOM     15  O   UNL     1       3.994   5.054  17.234  0.00  0.00    +0.000 OA
ATOM     16  H   UNL     1       3.393   5.534  16.638  0.00  0.00    +0.000 HD
ENDBRANCH  14  15
ENDBRANCH   1  14
BRANCH   1  17
ATOM     17  C   UNL     1       6.210   5.069  15.869  0.00  0.00    +0.000 C 
BRANCH  17  18
ATOM     18  O   UNL     1       6.285   3.680  16.188  0.00  0.00    +0.000 OA
ATOM     19  H   UNL     1       6.542   3.248  15.348  0.00  0.00    +0.000 HD
ENDBRANCH  17  18
ENDBRANCH   1  17
TORSDOF 6
ENDMDL
MODEL 7
REMARK VINA RESULT:      -6.4      1.741      2.621
REMARK  Name = 
REMARK  6 active torsions:
REMARK  status: ('A' for Active; 'I' for Inactive)
REMARK    1  A    between atoms: O_1  and  C_2
REMARK    2  A    between atoms: C_2  and  C_3
REMARK    3  A    between atoms: C_3  and  C_4
REMARK    4  A    between atoms: C_4  and  O_5
REMARK    5  A    between atoms: C_8  and  C_9
REMARK    6  A    between atoms: C_10  and  C_11
REMARK                            x       y       z     vdW  Elec       q    Type
REMARK                         _______ _______ _______ _____ _____    ______ ____
ROOT
ATOM      1  C   UNL     1       6.625   5.700  17.873  0.00  0.00    +0.000 C 
ATOM      2  C   UNL     1       5.896   6.713  16.996  0.00  0.00    +0.000 C 
ATOM      3  O   UNL     1       6.793   7.816  16.914  0.00  0.00    +0.000 OA
ATOM      4  C   UNL     1       7.650   7.635  17.944  0.00  0.00    +0.000 C 
ATOM      5  N   UNL     1       7.613   6.535  18.614  0.00  0.00    +0.000 NA
ENDROOT
BRANCH   4   6
ATOM      6  C   UNL     1       8.590   8.729  18.189  0.00  0.00    +0.000 C 
ATOM      7  C   UNL     1       8.297  10.030  18.001  0.00  0.00    +0.000 C 
BRANCH   7   8
ATOM      8  C   UNL     1       9.288  11.107  18.150  0.00  0.00    +0.000 A 
ATOM      9  C   UNL     1       8.863  12.367  18.593  0.00  0.00    +0.000 A 
ATOM     10  C   UNL     1       9.768  13.428  18.707  0.00  0.00    +0.000 A 
ATOM     11  C   UNL     1      11.112  13.237  18.390  0.00  0.00    +0.000 A 
ATOM     12  C   UNL     1      11.553  11.983  17.975  0.00  0.00    +0.000 A 
ATOM     13  C   UNL     1      10.650  10.925  17.860  0.00  0.00    +0.000 A 
ENDBRANCH   7   8
ENDBRANCH   4   6
BRANCH   1  14
ATOM     14  C   UNL     1       7.366   4.645  17.020  0.00  0.00    +0.000 C 
BRANCH  14  15
ATOM     15  O   UNL     1       8.420   4.028  17.758  0.00  0.00    +0.000 OA
ATOM     16  H   UNL     1       9.262   4.281  17.340  0.00  0.00    +0.000 HD
ENDBRANCH  14  15
ENDBRANCH   1  14
BRANCH   1  17
ATOM     17  C   UNL     1       5.702   4.998  18.878  0.00  0.00    +0.000 C 
BRANCH  17  18
ATOM     18  O   UNL     1       5.864   3.582  18.814  0.00  0.00    +0.000 OA
ATOM     19  H   UNL     1       5.072   3.223  19.264  0.00  0.00    +0.000 HD
ENDBRANCH  17  18
ENDBRANCH   1  17
TORSDOF 6
ENDMDL
MODEL 8
REMARK VINA RESULT:      -6.3      1.301      1.334
REMARK  Name = 
REMARK  6 active torsions:
REMARK  status: ('A' for Active; 'I' for Inactive)
REMARK    1  A    between atoms: O_1  and  C_2
REMARK    2  A    between atoms: C_2  and  C_3
REMARK    3  A    between atoms: C_3  and  C_4
REMARK    4  A    between atoms: C_4  and  O_5
REMARK    5  A    between atoms: C_8  and  C_9
REMARK    6  A    between atoms: C_10  and  C_11
REMARK                            x       y       z     vdW  Elec       q    Type
REMARK                         _______ _______ _______ _____ _____    ______ ____
ROOT
ATOM      1  C   UNL     1       6.625   5.238  16.616  0.00  0.00    +0.000 C 
ATOM      2  C   UNL     1       7.655   4.903  17.690  0.00  0.00    +0.000 C 
ATOM      3  O   UNL     1       7.885   6.142  18.353  0.00  0.00    +0.000 OA
ATOM      4  C   UNL     1       7.425   7.079  17.494  0.00  0.00    +0.000 C 
ATOM      5  N   UNL     1       6.774   6.711  16.444  0.00  0.00    +0.000 NA
ENDROOT
BRANCH   4   6
ATOM      6  C   UNL     1       7.692   8.468  17.865  0.00  0.00    +0.000 C 
ATOM      7  C   UNL     1       8.836   8.890  18.436  0.00  0.00    +0.000 C 
BRANCH   7   8
ATOM      8  C   UNL     1       9.044  10.270  18.900  0.00  0.00    +0.000 A 
ATOM      9  C   UNL     1       9.000  11.315  17.967  0.00  0.00    +0.000 A 
ATOM     10  C   UNL     1       9.235  12.636  18.362  0.00  0.00    +0.000 A 
ATOM     11  C   UNL     1       9.504  12.929  19.698  0.00  0.00    +0.000 A 
ATOM     12  C   UNL     1       9.522  11.903  20.640  0.00  0.00    +0.000 A 
ATOM     13  C   UNL     1       9.289  10.585  20.246  0.00  0.00    +0.000 A 
ENDBRANCH   7   8
ENDBRANCH   4   6
BRANCH   1  14
ATOM     14  C   UNL     1       5.190   4.908  17.086  0.00  0.00    +0.000 C 
BRANCH  14  15
ATOM     15  O   UNL     1       4.987   3.500  17.188  0.00  0.00    +0.000 OA
ATOM     16  H   UNL     1       4.155   3.286  16.732  0.00  0.00    +0.000 HD
ENDBRANCH  14  15
ENDBRANCH   1  14
BRANCH   1  17
ATOM     17  C   UNL     1       6.904   4.543  15.276  0.00  0.00    +0.000 C 
BRANCH  17  18
ATOM     18  O   UNL     1       7.869   5.271  14.518  0.00  0.00    +0.000 OA
ATOM     19  H   UNL     1       8.333   5.825  15.178  0.00  0.00    +0.000 HD
ENDBRANCH  17  18
ENDBRANCH   1  17
TORSDOF 6
ENDMDL
MODEL 9
REMARK VINA RESULT:      -6.2      1.375      2.302
REMARK  Name = 
REMARK  6 active torsions:
REMARK  status: ('A' for Active; 'I' for Inactive)
REMARK    1  A    between atoms: O_1  and  C_2
REMARK    2  A    between atoms: C_2  and  C_3
REMARK    3  A    between atoms: C_3  and  C_4
REMARK    4  A    between atoms: C_4  and  O_5
REMARK    5  A    between atoms: C_8  and  C_9
REMARK    6  A    between atoms: C_10  and  C_11
REMARK                            x       y       z     vdW  Elec       q    Type
REMARK                         _______ _______ _______ _____ _____    ______ ____
ROOT
ATOM      1  C   UNL     1       5.933   5.543  17.170  0.00  0.00    +0.000 C 
ATOM      2  C   UNL     1       6.658   5.973  15.899  0.00  0.00    +0.000 C 
ATOM      3  O   UNL     1       7.738   6.775  16.365  0.00  0.00    +0.000 OA
ATOM      4  C   UNL     1       7.391   7.113  17.627  0.00  0.00    +0.000 C 
ATOM      5  N   UNL     1       6.360   6.562  18.170  0.00  0.00    +0.000 NA
ENDROOT
BRANCH   4   6
ATOM      6  C   UNL     1       8.264   8.082  18.289  0.00  0.00    +0.000 C 
ATOM      7  C   UNL     1       8.274   9.400  18.012  0.00  0.00    +0.000 C 
BRANCH   7   8
ATOM      8  C   UNL     1       9.233  10.341  18.611  0.00  0.00    +0.000 A 
ATOM      9  C   UNL     1      10.119  11.035  17.775  0.00  0.00    +0.000 A 
ATOM     10  C   UNL     1      11.073  11.907  18.311  0.00  0.00    +0.000 A 
ATOM     11  C   UNL     1      11.145  12.103  19.688  0.00  0.00    +0.000 A 
ATOM     12  C   UNL     1      10.253  11.440  20.528  0.00  0.00    +0.000 A 
ATOM     13  C   UNL     1       9.301  10.570  19.995  0.00  0.00    +0.000 A 
ENDBRANCH   7   8
ENDBRANCH   4   6
BRANCH   1  14
ATOM     14  C   UNL     1       6.381   4.137  17.630  0.00  0.00    +0.000 C 
BRANCH  14  15
ATOM     15  O   UNL     1       6.007   3.889  18.983  0.00  0.00    +0.000 OA
ATOM     16  H   UNL     1       6.036   4.738  19.459  0.00  0.00    +0.000 HD
ENDBRANCH  14  15
ENDBRANCH   1  14
BRANCH   1  17
ATOM     17  C   UNL     1       4.405   5.581  17.033  0.00  0.00    +0.000 C 
BRANCH  17  18
ATOM     18  O   UNL     1       3.781   5.641  18.315  0.00  0.00    +0.000 OA
ATOM     19  H   UNL     1       3.078   6.314  18.215  0.00  0.00    +0.000 HD
ENDBRANCH  17  18
ENDBRANCH   1  17
TORSDOF 6
ENDMDL
