MODEL 1
REMARK VINA RESULT:      -6.9      0.000      0.000
REMARK  Name = 
REMARK  7 active torsions:
REMARK  status: ('A' for Active; 'I' for Inactive)
REMARK    1  A    between atoms: C_1  and  C_2
REMARK    2  A    between atoms: C_2  and  N_3
REMARK    3  A    between atoms: C_5  and  S_6
REMARK    4  A    between atoms: S_6  and  N_9
REMARK    5  A    between atoms: N_12  and  S_13
REMARK    6  A    between atoms: S_13  and  C_16
REMARK    7  A    between atoms: C_24  and  C_25
REMARK                            x       y       z     vdW  Elec       q    Type
REMARK                         _______ _______ _______ _____ _____    ______ ____
ROOT
ATOM      1  N   UNL     1       5.524   4.031  16.969  0.00  0.00    +0.000 NA
ATOM      2  C   UNL     1       5.650   4.123  18.454  0.00  0.00    +0.000 C 
ATOM      3  C   UNL     1       5.236   5.499  18.995  0.00  0.00    +0.000 C 
ATOM      4  N   UNL     1       3.898   5.940  18.503  0.00  0.00    +0.000 NA
ATOM      5  C   UNL     1       3.654   5.710  17.050  0.00  0.00    +0.000 C 
ATOM      6  C   UNL     1       4.101   4.316  16.585  0.00  0.00    +0.000 C 
ENDROOT
BRANCH   1   7
ATOM      7  S   UNL     1       6.672   4.879  16.029  0.00  0.00    +0.000 S 
ATOM      8  O   UNL     1       7.995   4.450  16.428  0.00  0.00    +0.000 OA
ATOM      9  O   UNL     1       6.308   6.277  16.042  0.00  0.00    +0.000 OA
BRANCH   7  12
ATOM     10  N   UNL     1       6.006   3.432  12.519  0.00  0.00    +0.000 N 
ATOM     11  C   UNL     1       5.685   3.513  13.839  0.00  0.00    +0.000 A 
ATOM     12  C   UNL     1       6.568   4.420  14.384  0.00  0.00    +0.000 A 
ATOM     13  C   UNL     1       7.384   4.841  13.313  0.00  0.00    +0.000 A 
ATOM     14  C   UNL     1       8.528   5.785  13.314  0.00  0.00    +0.000 C 
ATOM     15  N   UNL     1       7.012   4.254  12.163  0.00  0.00    +0.000 NA
BRANCH  10  17
ATOM     16  C   UNL     1       3.998   3.078  11.141  0.00  0.00    +0.000 C 
ATOM     17  C   UNL     1       5.376   2.575  11.532  0.00  0.00    +0.000 C 
ENDBRANCH  10  17
ENDBRANCH   7  12
ENDBRANCH   1   7
BRANCH   4  18
ATOM     18  S   UNL     1       2.589   5.686  19.548  0.00  0.00    +0.000 S 
ATOM     19  O   UNL     1       1.554   4.960  18.848  0.00  0.00    +0.000 OA
ATOM     20  O   UNL     1       3.131   5.217  20.804  0.00  0.00    +0.000 OA
BRANCH  18  21
ATOM     21  C   UNL     1       1.888   7.281  19.912  0.00  0.00    +0.000 A 
ATOM     22  C   UNL     1       1.331   7.811  21.063  0.00  0.00    +0.000 A 
ATOM     23  C   UNL     1       0.911   9.166  20.886  0.00  0.00    +0.000 A 
ATOM     24  C   UNL     1       1.175   9.600  19.613  0.00  0.00    +0.000 A 
ATOM     25 BR   UNL     1       0.772  11.327  19.007  0.00  0.00    +0.000 Br
ATOM     26  S   UNL     1       1.907   8.426  18.637  0.00  0.00    +0.000 S 
ENDBRANCH  18  21
ENDBRANCH   4  18
TORSDOF 5
ENDMDL
MODEL 2
REMARK VINA RESULT:      -6.9      3.066      8.386
REMARK  Name = 
REMARK  7 active torsions:
REMARK  status: ('A' for Active; 'I' for Inactive)
REMARK    1  A    between atoms: C_1  and  C_2
REMARK    2  A    between atoms: C_2  and  N_3
REMARK    3  A    between atoms: C_5  and  S_6
REMARK    4  A    between atoms: S_6  and  N_9
REMARK    5  A    between atoms: N_12  and  S_13
REMARK    6  A    between atoms: S_13  and  C_16
REMARK    7  A    between atoms: C_24  and  C_25
REMARK                            x       y       z     vdW  Elec       q    Type
REMARK                         _______ _______ _______ _____ _____    ______ ____
ROOT
ATOM      1  N   UNL     1       4.499   6.290  19.314  0.00  0.00    +0.000 NA
ATOM      2  C   UNL     1       5.398   5.098  19.338  0.00  0.00    +0.000 C 
ATOM      3  C   UNL     1       5.343   4.294  18.031  0.00  0.00    +0.000 C 
ATOM      4  N   UNL     1       5.542   5.139  16.817  0.00  0.00    +0.000 NA
ATOM      5  C   UNL     1       4.796   6.431  16.820  0.00  0.00    +0.000 C 
ATOM      6  C   UNL     1       4.894   7.171  18.163  0.00  0.00    +0.000 C 
ENDROOT
BRANCH   1   7
ATOM      7  S   UNL     1       2.817   6.008  19.417  0.00  0.00    +0.000 S 
ATOM      8  O   UNL     1       2.580   5.038  20.465  0.00  0.00    +0.000 OA
ATOM      9  O   UNL     1       2.322   5.792  18.078  0.00  0.00    +0.000 OA
BRANCH   7  12
ATOM     10  N   UNL     1       0.868   8.835  21.169  0.00  0.00    +0.000 N 
ATOM     11  C   UNL     1       1.455   7.607  21.213  0.00  0.00    +0.000 A 
ATOM     12  C   UNL     1       1.999   7.409  19.962  0.00  0.00    +0.000 A 
ATOM     13  C   UNL     1       1.694   8.575  19.230  0.00  0.00    +0.000 A 
ATOM     14  C   UNL     1       1.998   8.908  17.816  0.00  0.00    +0.000 C 
ATOM     15  N   UNL     1       1.027   9.461  19.988  0.00  0.00    +0.000 NA
BRANCH  10  17
ATOM     16  C   UNL     1      -0.631  10.695  21.761  0.00  0.00    +0.000 C 
ATOM     17  C   UNL     1       0.130   9.473  22.244  0.00  0.00    +0.000 C 
ENDBRANCH  10  17
ENDBRANCH   7  12
ENDBRANCH   1   7
BRANCH   4  18
ATOM     18  S   UNL     1       7.103   5.159  16.160  0.00  0.00    +0.000 S 
ATOM     19  O   UNL     1       7.591   6.520  16.131  0.00  0.00    +0.000 OA
ATOM     20  O   UNL     1       7.848   4.097  16.799  0.00  0.00    +0.000 OA
BRANCH  18  21
ATOM     21  C   UNL     1       6.963   4.668  14.455  0.00  0.00    +0.000 A 
ATOM     22  C   UNL     1       7.711   4.980  13.333  0.00  0.00    +0.000 A 
ATOM     23  C   UNL     1       7.228   4.322  12.160  0.00  0.00    +0.000 A 
ATOM     24  C   UNL     1       6.140   3.538  12.449  0.00  0.00    +0.000 A 
ATOM     25 BR   UNL     1       5.235   2.515  11.166  0.00  0.00    +0.000 Br
ATOM     26  S   UNL     1       5.695   3.578  14.082  0.00  0.00    +0.000 S 
ENDBRANCH  18  21
ENDBRANCH   4  18
TORSDOF 5
ENDMDL
MODEL 3
REMARK VINA RESULT:      -6.6      0.842      1.008
REMARK  Name = 
REMARK  7 active torsions:
REMARK  status: ('A' for Active; 'I' for Inactive)
REMARK    1  A    between atoms: C_1  and  C_2
REMARK    2  A    between atoms: C_2  and  N_3
REMARK    3  A    between atoms: C_5  and  S_6
REMARK    4  A    between atoms: S_6  and  N_9
REMARK    5  A    between atoms: N_12  and  S_13
REMARK    6  A    between atoms: S_13  and  C_16
REMARK    7  A    between atoms: C_24  and  C_25
REMARK                            x       y       z     vdW  Elec       q    Type
REMARK                         _______ _______ _______ _____ _____    ______ ____
ROOT
ATOM      1  N   UNL     1       5.529   4.131  16.893  0.00  0.00    +0.000 NA
ATOM      2  C   UNL     1       5.622   4.230  18.380  0.00  0.00    +0.000 C 
ATOM      3  C   UNL     1       5.306   5.641  18.896  0.00  0.00    +0.000 C 
ATOM      4  N   UNL     1       4.022   6.183  18.362  0.00  0.00    +0.000 NA
ATOM      5  C   UNL     1       3.799   5.956  16.905  0.00  0.00    +0.000 C 
ATOM      6  C   UNL     1       4.144   4.524  16.467  0.00  0.00    +0.000 C 
ENDROOT
BRANCH   1   7
ATOM      7  S   UNL     1       6.766   4.872  15.977  0.00  0.00    +0.000 S 
ATOM      8  O   UNL     1       8.038   4.324  16.400  0.00  0.00    +0.000 OA
ATOM      9  O   UNL     1       6.531   6.296  15.988  0.00  0.00    +0.000 OA
BRANCH   7  12
ATOM     10  N   UNL     1       6.078   3.453  12.460  0.00  0.00    +0.000 N 
ATOM     11  C   UNL     1       5.764   3.525  13.783  0.00  0.00    +0.000 A 
ATOM     12  C   UNL     1       6.653   4.425  14.330  0.00  0.00    +0.000 A 
ATOM     13  C   UNL     1       7.464   4.853  13.257  0.00  0.00    +0.000 A 
ATOM     14  C   UNL     1       8.611   5.794  13.259  0.00  0.00    +0.000 C 
ATOM     15  N   UNL     1       7.084   4.276  12.105  0.00  0.00    +0.000 NA
BRANCH  10  17
ATOM     16  C   UNL     1       4.016   3.043  11.182  0.00  0.00    +0.000 C 
ATOM     17  C   UNL     1       5.440   2.606  11.469  0.00  0.00    +0.000 C 
ENDBRANCH  10  17
ENDBRANCH   7  12
ENDBRANCH   1   7
BRANCH   4  18
ATOM     18  S   UNL     1       2.669   6.049  19.372  0.00  0.00    +0.000 S 
ATOM     19  O   UNL     1       1.670   5.229  18.724  0.00  0.00    +0.000 OA
ATOM     20  O   UNL     1       3.157   5.746  20.700  0.00  0.00    +0.000 OA
BRANCH  18  21
ATOM     21  C   UNL     1       1.944   7.669  19.502  0.00  0.00    +0.000 A 
ATOM     22  C   UNL     1       1.773   8.688  18.581  0.00  0.00    +0.000 A 
ATOM     23  C   UNL     1       1.108   9.820  19.144  0.00  0.00    +0.000 A 
ATOM     24  C   UNL     1       0.800   9.604  20.463  0.00  0.00    +0.000 A 
ATOM     25 BR   UNL     1      -0.083  10.861  21.536  0.00  0.00    +0.000 Br
ATOM     26  S   UNL     1       1.290   8.086  21.030  0.00  0.00    +0.000 S 
ENDBRANCH  18  21
ENDBRANCH   4  18
TORSDOF 5
ENDMDL
MODEL 4
REMARK VINA RESULT:      -6.3      2.703      4.594
REMARK  Name = 
REMARK  7 active torsions:
REMARK  status: ('A' for Active; 'I' for Inactive)
REMARK    1  A    between atoms: C_1  and  C_2
REMARK    2  A    between atoms: C_2  and  N_3
REMARK    3  A    between atoms: C_5  and  S_6
REMARK    4  A    between atoms: S_6  and  N_9
REMARK    5  A    between atoms: N_12  and  S_13
REMARK    6  A    between atoms: S_13  and  C_16
REMARK    7  A    between atoms: C_24  and  C_25
REMARK                            x       y       z     vdW  Elec       q    Type
REMARK                         _______ _______ _______ _____ _____    ______ ____
ROOT
ATOM      1  N   UNL     1       5.264   5.340  16.180  0.00  0.00    +0.000 NA
ATOM      2  C   UNL     1       4.502   4.166  16.701  0.00  0.00    +0.000 C 
ATOM      3  C   UNL     1       4.477   4.117  18.235  0.00  0.00    +0.000 C 
ATOM      4  N   UNL     1       4.042   5.404  18.853  0.00  0.00    +0.000 NA
ATOM      5  C   UNL     1       4.646   6.628  18.250  0.00  0.00    +0.000 C 
ATOM      6  C   UNL     1       4.640   6.598  16.713  0.00  0.00    +0.000 C 
ENDROOT
BRANCH   1   7
ATOM      7  S   UNL     1       6.966   5.301  16.327  0.00  0.00    +0.000 S 
ATOM      8  O   UNL     1       7.542   5.572  15.027  0.00  0.00    +0.000 OA
ATOM      9  O   UNL     1       7.319   4.110  17.063  0.00  0.00    +0.000 OA
BRANCH   7  12
ATOM     10  N   UNL     1       8.182   8.557  17.994  0.00  0.00    +0.000 N 
ATOM     11  C   UNL     1       7.669   7.909  16.912  0.00  0.00    +0.000 A 
ATOM     12  C   UNL     1       7.521   6.594  17.300  0.00  0.00    +0.000 A 
ATOM     13  C   UNL     1       7.965   6.544  18.638  0.00  0.00    +0.000 A 
ATOM     14  C   UNL     1       8.066   5.382  19.555  0.00  0.00    +0.000 C 
ATOM     15  N   UNL     1       8.340   7.760  19.068  0.00  0.00    +0.000 NA
BRANCH  10  17
ATOM     16  C   UNL     1       9.323  10.284  19.325  0.00  0.00    +0.000 C 
ATOM     17  C   UNL     1       8.546   9.960  18.062  0.00  0.00    +0.000 C 
ENDBRANCH  10  17
ENDBRANCH   7  12
ENDBRANCH   1   7
BRANCH   4  18
ATOM     18  S   UNL     1       2.418   5.505  19.323  0.00  0.00    +0.000 S 
ATOM     19  O   UNL     1       1.598   4.812  18.354  0.00  0.00    +0.000 OA
ATOM     20  O   UNL     1       2.362   5.187  20.733  0.00  0.00    +0.000 OA
BRANCH  18  21
ATOM     21  C   UNL     1       1.942   7.216  19.212  0.00  0.00    +0.000 A 
ATOM     22  C   UNL     1       1.812   8.078  18.137  0.00  0.00    +0.000 A 
ATOM     23  C   UNL     1       1.376   9.378  18.536  0.00  0.00    +0.000 A 
ATOM     24  C   UNL     1       1.189   9.440  19.893  0.00  0.00    +0.000 A 
ATOM     25 BR   UNL     1       0.612  10.982  20.787  0.00  0.00    +0.000 Br
ATOM     26  S   UNL     1       1.525   7.982  20.687  0.00  0.00    +0.000 S 
ENDBRANCH  18  21
ENDBRANCH   4  18
TORSDOF 5
ENDMDL
MODEL 5
REMARK VINA RESULT:      -6.1      1.110      1.624
REMARK  Name = 
REMARK  7 active torsions:
REMARK  status: ('A' for Active; 'I' for Inactive)
REMARK    1  A    between atoms: C_1  and  C_2
REMARK    2  A    between atoms: C_2  and  N_3
REMARK    3  A    between atoms: C_5  and  S_6
REMARK    4  A    between atoms: S_6  and  N_9
REMARK    5  A    between atoms: N_12  and  S_13
REMARK    6  A    between atoms: S_13  and  C_16
REMARK    7  A    between atoms: C_24  and  C_25
REMARK                            x       y       z     vdW  Elec       q    Type
REMARK                         _______ _______ _______ _____ _____    ______ ____
ROOT
ATOM      1  N   UNL     1       5.298   5.948  16.381  0.00  0.00    +0.000 NA
ATOM      2  C   UNL     1       4.047   5.150  16.217  0.00  0.00    +0.000 C 
ATOM      3  C   UNL     1       3.930   4.021  17.252  0.00  0.00    +0.000 C 
ATOM      4  N   UNL     1       4.132   4.493  18.654  0.00  0.00    +0.000 NA
ATOM      5  C   UNL     1       5.272   5.436  18.843  0.00  0.00    +0.000 C 
ATOM      6  C   UNL     1       5.323   6.530  17.765  0.00  0.00    +0.000 C 
ENDROOT
BRANCH   1   7
ATOM      7  S   UNL     1       6.768   5.210  15.919  0.00  0.00    +0.000 S 
ATOM      8  O   UNL     1       6.956   4.023  16.727  0.00  0.00    +0.000 OA
ATOM      9  O   UNL     1       7.780   6.238  15.863  0.00  0.00    +0.000 OA
BRANCH   7  12
ATOM     10  N   UNL     1       6.104   3.470  12.545  0.00  0.00    +0.000 N 
ATOM     11  C   UNL     1       5.773   3.674  13.849  0.00  0.00    +0.000 A 
ATOM     12  C   UNL     1       6.670   4.608  14.321  0.00  0.00    +0.000 A 
ATOM     13  C   UNL     1       7.503   4.917  13.225  0.00  0.00    +0.000 A 
ATOM     14  C   UNL     1       8.667   5.834  13.155  0.00  0.00    +0.000 C 
ATOM     15  N   UNL     1       7.129   4.238  12.128  0.00  0.00    +0.000 NA
BRANCH  10  17
ATOM     16  C   UNL     1       4.117   3.051  11.155  0.00  0.00    +0.000 C 
ATOM     17  C   UNL     1       5.465   2.541  11.631  0.00  0.00    +0.000 C 
ENDBRANCH  10  17
ENDBRANCH   7  12
ENDBRANCH   1   7
BRANCH   4  18
ATOM     18  S   UNL     1       2.731   4.794  19.557  0.00  0.00    +0.000 S 
ATOM     19  O   UNL     1       1.636   4.024  19.011  0.00  0.00    +0.000 OA
ATOM     20  O   UNL     1       3.098   4.710  20.954  0.00  0.00    +0.000 OA
BRANCH  18  21
ATOM     21  C   UNL     1       2.290   6.498  19.295  0.00  0.00    +0.000 A 
ATOM     22  C   UNL     1       2.321   7.304  18.170  0.00  0.00    +0.000 A 
ATOM     23  C   UNL     1       1.845   8.624  18.437  0.00  0.00    +0.000 A 
ATOM     24  C   UNL     1       1.470   8.756  19.750  0.00  0.00    +0.000 A 
ATOM     25 BR   UNL     1       0.787  10.343  20.475  0.00  0.00    +0.000 Br
ATOM     26  S   UNL     1       1.678   7.340  20.655  0.00  0.00    +0.000 S 
ENDBRANCH  18  21
ENDBRANCH   4  18
TORSDOF 5
ENDMDL
MODEL 6
REMARK VINA RESULT:      -6.1      2.779      3.771
REMARK  Name = 
REMARK  7 active torsions:
REMARK  status: ('A' for Active; 'I' for Inactive)
REMARK    1  A    between atoms: C_1  and  C_2
REMARK    2  A    between atoms: C_2  and  N_3
REMARK    3  A    between atoms: C_5  and  S_6
REMARK    4  A    between atoms: S_6  and  N_9
REMARK    5  A    between atoms: N_12  and  S_13
REMARK    6  A    between atoms: S_13  and  C_16
REMARK    7  A    between atoms: C_24  and  C_25
REMARK                            x       y       z     vdW  Elec       q    Type
REMARK                         _______ _______ _______ _____ _____    ______ ____
ROOT
ATOM      1  N   UNL     1       4.292   6.048  18.736  0.00  0.00    +0.000 NA
ATOM      2  C   UNL     1       4.460   7.311  17.959  0.00  0.00    +0.000 C 
ATOM      3  C   UNL     1       3.167   7.740  17.249  0.00  0.00    +0.000 C 
ATOM      4  N   UNL     1       1.987   7.779  18.161  0.00  0.00    +0.000 NA
ATOM      5  C   UNL     1       1.867   6.614  19.086  0.00  0.00    +0.000 C 
ATOM      6  C   UNL     1       3.202   6.243  19.750  0.00  0.00    +0.000 C 
ENDROOT
BRANCH   1   7
ATOM      7  S   UNL     1       4.153   4.593  17.851  0.00  0.00    +0.000 S 
ATOM      8  O   UNL     1       2.893   4.611  17.138  0.00  0.00    +0.000 OA
ATOM      9  O   UNL     1       4.490   3.503  18.736  0.00  0.00    +0.000 OA
BRANCH   7  12
ATOM     10  N   UNL     1       6.320   4.269  14.679  0.00  0.00    +0.000 N 
ATOM     11  C   UNL     1       5.094   4.283  15.271  0.00  0.00    +0.000 A 
ATOM     12  C   UNL     1       5.327   4.522  16.609  0.00  0.00    +0.000 A 
ATOM     13  C   UNL     1       6.727   4.646  16.730  0.00  0.00    +0.000 A 
ATOM     14  C   UNL     1       7.552   4.874  17.942  0.00  0.00    +0.000 C 
ATOM     15  N   UNL     1       7.328   4.522  15.535  0.00  0.00    +0.000 NA
BRANCH  10  17
ATOM     16  C   UNL     1       5.383   3.456  12.554  0.00  0.00    +0.000 C 
ATOM     17  C   UNL     1       6.594   4.017  13.277  0.00  0.00    +0.000 C 
ENDBRANCH  10  17
ENDBRANCH   7  12
ENDBRANCH   1   7
BRANCH   4  18
ATOM     18  S   UNL     1       1.563   9.296  18.783  0.00  0.00    +0.000 S 
ATOM     19  O   UNL     1       1.418   9.200  20.218  0.00  0.00    +0.000 OA
ATOM     20  O   UNL     1       2.442  10.269  18.171  0.00  0.00    +0.000 OA
BRANCH  18  21
ATOM     21  C   UNL     1      -0.061   9.685  18.166  0.00  0.00    +0.000 A 
ATOM     22  C   UNL     1      -0.743   9.289  17.029  0.00  0.00    +0.000 A 
ATOM     23  C   UNL     1      -2.055   9.850  16.962  0.00  0.00    +0.000 A 
ATOM     24  C   UNL     1      -2.309  10.640  18.054  0.00  0.00    +0.000 A 
ATOM     25 BR   UNL     1      -3.929  11.541  18.323  0.00  0.00    +0.000 Br
ATOM     26  S   UNL     1      -1.015  10.719  19.144  0.00  0.00    +0.000 S 
ENDBRANCH  18  21
ENDBRANCH   4  18
TORSDOF 5
ENDMDL
MODEL 7
REMARK VINA RESULT:      -6.0      7.915     10.583
REMARK  Name = 
REMARK  7 active torsions:
REMARK  status: ('A' for Active; 'I' for Inactive)
REMARK    1  A    between atoms: C_1  and  C_2
REMARK    2  A    between atoms: C_2  and  N_3
REMARK    3  A    between atoms: C_5  and  S_6
REMARK    4  A    between atoms: S_6  and  N_9
REMARK    5  A    between atoms: N_12  and  S_13
REMARK    6  A    between atoms: S_13  and  C_16
REMARK    7  A    between atoms: C_24  and  C_25
REMARK                            x       y       z     vdW  Elec       q    Type
REMARK                         _______ _______ _______ _____ _____    ______ ____
ROOT
ATOM      1  N   UNL     1       2.204  12.854  19.859  0.00  0.00    +0.000 NA
ATOM      2  C   UNL     1       2.145  13.462  18.497  0.00  0.00    +0.000 C 
ATOM      3  C   UNL     1       1.519  14.864  18.506  0.00  0.00    +0.000 C 
ATOM      4  N   UNL     1       2.138  15.773  19.515  0.00  0.00    +0.000 NA
ATOM      5  C   UNL     1       2.380  15.158  20.853  0.00  0.00    +0.000 C 
ATOM      6  C   UNL     1       3.001  13.755  20.758  0.00  0.00    +0.000 C 
ENDROOT
BRANCH   1   7
ATOM      7  S   UNL     1       0.733  12.323  20.548  0.00  0.00    +0.000 S 
ATOM      8  O   UNL     1      -0.060  13.487  20.883  0.00  0.00    +0.000 OA
ATOM      9  O   UNL     1       1.047  11.325  21.543  0.00  0.00    +0.000 OA
BRANCH   7  12
ATOM     10  N   UNL     1      -1.880  10.825  18.142  0.00  0.00    +0.000 N 
ATOM     11  C   UNL     1      -1.532  11.760  19.069  0.00  0.00    +0.000 A 
ATOM     12  C   UNL     1      -0.217  11.497  19.389  0.00  0.00    +0.000 A 
ATOM     13  C   UNL     1       0.148  10.388  18.599  0.00  0.00    +0.000 A 
ATOM     14  C   UNL     1       1.434   9.648  18.549  0.00  0.00    +0.000 C 
ATOM     15  N   UNL     1      -0.868  10.000  17.811  0.00  0.00    +0.000 NA
BRANCH  10  17
ATOM     16  C   UNL     1      -3.092  10.000  16.166  0.00  0.00    +0.000 C 
ATOM     17  C   UNL     1      -3.184  10.670  17.525  0.00  0.00    +0.000 C 
ENDBRANCH  10  17
ENDBRANCH   7  12
ENDBRANCH   1   7
BRANCH   4  18
ATOM     18  S   UNL     1       3.317  16.844  18.942  0.00  0.00    +0.000 S 
ATOM     19  O   UNL     1       2.963  17.274  17.607  0.00  0.00    +0.000 OA
ATOM     20  O   UNL     1       3.583  17.793  20.001  0.00  0.00    +0.000 OA
BRANCH  18  21
ATOM     21  C   UNL     1       4.827  15.919  18.758  0.00  0.00    +0.000 A 
ATOM     22  C   UNL     1       5.233  14.979  17.827  0.00  0.00    +0.000 A 
ATOM     23  C   UNL     1       6.562  14.513  18.074  0.00  0.00    +0.000 A 
ATOM     24  C   UNL     1       7.101  15.127  19.175  0.00  0.00    +0.000 A 
ATOM     25 BR   UNL     1       8.831  14.779  19.807  0.00  0.00    +0.000 Br
ATOM     26  S   UNL     1       6.054  16.236  19.910  0.00  0.00    +0.000 S 
ENDBRANCH  18  21
ENDBRANCH   4  18
TORSDOF 5
ENDMDL
MODEL 8
REMARK VINA RESULT:      -5.9      5.565      8.561
REMARK  Name = 
REMARK  7 active torsions:
REMARK  status: ('A' for Active; 'I' for Inactive)
REMARK    1  A    between atoms: C_1  and  C_2
REMARK    2  A    between atoms: C_2  and  N_3
REMARK    3  A    between atoms: C_5  and  S_6
REMARK    4  A    between atoms: S_6  and  N_9
REMARK    5  A    between atoms: N_12  and  S_13
REMARK    6  A    between atoms: S_13  and  C_16
REMARK    7  A    between atoms: C_24  and  C_25
REMARK                            x       y       z     vdW  Elec       q    Type
REMARK                         _______ _______ _______ _____ _____    ______ ____
ROOT
ATOM      1  N   UNL     1       0.235  10.672  20.144  0.00  0.00    +0.000 NA
ATOM      2  C   UNL     1       1.123  11.438  21.067  0.00  0.00    +0.000 C 
ATOM      3  C   UNL     1       1.344  12.885  20.603  0.00  0.00    +0.000 C 
ATOM      4  N   UNL     1       0.070  13.603  20.304  0.00  0.00    +0.000 NA
ATOM      5  C   UNL     1      -0.930  12.814  19.527  0.00  0.00    +0.000 C 
ATOM      6  C   UNL     1      -1.088  11.377  20.048  0.00  0.00    +0.000 C 
ENDROOT
BRANCH   1   7
ATOM      7  S   UNL     1       0.881  10.215  18.629  0.00  0.00    +0.000 S 
ATOM      8  O   UNL     1       1.873  11.195  18.242  0.00  0.00    +0.000 OA
ATOM      9  O   UNL     1      -0.224   9.890  17.758  0.00  0.00    +0.000 OA
BRANCH   7  12
ATOM     10  N   UNL     1       3.031   7.030  18.324  0.00  0.00    +0.000 N 
ATOM     11  C   UNL     1       2.574   8.198  17.794  0.00  0.00    +0.000 A 
ATOM     12  C   UNL     1       1.771   8.760  18.762  0.00  0.00    +0.000 A 
ATOM     13  C   UNL     1       1.807   7.862  19.849  0.00  0.00    +0.000 A 
ATOM     14  C   UNL     1       1.104   7.931  21.154  0.00  0.00    +0.000 C 
ATOM     15  N   UNL     1       2.609   6.817  19.586  0.00  0.00    +0.000 NA
BRANCH  10  17
ATOM     16  C   UNL     1       5.138   6.709  17.096  0.00  0.00    +0.000 C 
ATOM     17  C   UNL     1       3.888   6.063  17.664  0.00  0.00    +0.000 C 
ENDBRANCH  10  17
ENDBRANCH   7  12
ENDBRANCH   1   7
BRANCH   4  18
ATOM     18  S   UNL     1      -0.533  14.610  21.525  0.00  0.00    +0.000 S 
ATOM     19  O   UNL     1       0.471  14.766  22.554  0.00  0.00    +0.000 OA
ATOM     20  O   UNL     1      -1.141  15.751  20.876  0.00  0.00    +0.000 OA
BRANCH  18  21
ATOM     21  C   UNL     1      -1.880  13.746  22.305  0.00  0.00    +0.000 A 
ATOM     22  C   UNL     1      -1.917  12.665  23.168  0.00  0.00    +0.000 A 
ATOM     23  C   UNL     1      -3.250  12.327  23.555  0.00  0.00    +0.000 A 
ATOM     24  C   UNL     1      -4.161  13.171  22.972  0.00  0.00    +0.000 A 
ATOM     25 BR   UNL     1      -6.010  13.044  23.248  0.00  0.00    +0.000 Br
ATOM     26  S   UNL     1      -3.452  14.346  21.980  0.00  0.00    +0.000 S 
ENDBRANCH  18  21
ENDBRANCH   4  18
TORSDOF 5
ENDMDL
MODEL 9
REMARK VINA RESULT:      -5.8      9.335     13.487
REMARK  Name = 
REMARK  7 active torsions:
REMARK  status: ('A' for Active; 'I' for Inactive)
REMARK    1  A    between atoms: C_1  and  C_2
REMARK    2  A    between atoms: C_2  and  N_3
REMARK    3  A    between atoms: C_5  and  S_6
REMARK    4  A    between atoms: S_6  and  N_9
REMARK    5  A    between atoms: N_12  and  S_13
REMARK    6  A    between atoms: S_13  and  C_16
REMARK    7  A    between atoms: C_24  and  C_25
REMARK                            x       y       z     vdW  Elec       q    Type
REMARK                         _______ _______ _______ _____ _____    ______ ____
ROOT
ATOM      1  N   UNL     1      -4.143  15.053  22.362  0.00  0.00    +0.000 NA
ATOM      2  C   UNL     1      -3.992  14.108  23.507  0.00  0.00    +0.000 C 
ATOM      3  C   UNL     1      -3.799  12.655  23.048  0.00  0.00    +0.000 C 
ATOM      4  N   UNL     1      -2.717  12.504  22.032  0.00  0.00    +0.000 NA
ATOM      5  C   UNL     1      -2.717  13.534  20.953  0.00  0.00    +0.000 C 
ATOM      6  C   UNL     1      -2.923  14.959  21.491  0.00  0.00    +0.000 C 
ENDROOT
BRANCH   1   7
ATOM      7  S   UNL     1      -5.612  15.006  21.491  0.00  0.00    +0.000 S 
ATOM      8  O   UNL     1      -5.319  15.211  20.089  0.00  0.00    +0.000 OA
ATOM      9  O   UNL     1      -6.562  15.846  22.182  0.00  0.00    +0.000 OA
BRANCH   7  12
ATOM     10  N   UNL     1      -6.993  11.441  21.003  0.00  0.00    +0.000 N 
ATOM     11  C   UNL     1      -6.288  12.505  20.531  0.00  0.00    +0.000 A 
ATOM     12  C   UNL     1      -6.300  13.441  21.543  0.00  0.00    +0.000 A 
ATOM     13  C   UNL     1      -7.031  12.848  22.594  0.00  0.00    +0.000 A 
ATOM     14  C   UNL     1      -7.394  13.405  23.921  0.00  0.00    +0.000 C 
ATOM     15  N   UNL     1      -7.426  11.607  22.268  0.00  0.00    +0.000 NA
BRANCH  10  17
ATOM     16  C   UNL     1      -6.847  10.293  18.832  0.00  0.00    +0.000 C 
ATOM     17  C   UNL     1      -7.287  10.216  20.282  0.00  0.00    +0.000 C 
ENDBRANCH  10  17
ENDBRANCH   7  12
ENDBRANCH   1   7
BRANCH   4  18
ATOM     18  S   UNL     1      -1.205  12.001  22.608  0.00  0.00    +0.000 S 
ATOM     19  O   UNL     1      -0.591  13.084  23.342  0.00  0.00    +0.000 OA
ATOM     20  O   UNL     1      -1.387  10.691  23.195  0.00  0.00    +0.000 OA
BRANCH  18  21
ATOM     21  C   UNL     1      -0.162  11.735  21.191  0.00  0.00    +0.000 A 
ATOM     22  C   UNL     1       0.708  12.566  20.507  0.00  0.00    +0.000 A 
ATOM     23  C   UNL     1       1.356  11.897  19.424  0.00  0.00    +0.000 A 
ATOM     24  C   UNL     1       0.952  10.589  19.341  0.00  0.00    +0.000 A 
ATOM     25 BR   UNL     1       1.590   9.392  18.048  0.00  0.00    +0.000 Br
ATOM     26  S   UNL     1      -0.179  10.156  20.525  0.00  0.00    +0.000 S 
ENDBRANCH  18  21
ENDBRANCH   4  18
TORSDOF 5
ENDMDL
