MODEL 1
REMARK VINA RESULT:      -7.4      0.000      0.000
REMARK  Name = 
REMARK  6 active torsions:
REMARK  status: ('A' for Active; 'I' for Inactive)
REMARK    1  A    between atoms: C_2  and  C_3
REMARK    2  A    between atoms: C_3  and  C_4
REMARK    3  A    between atoms: C_4  and  C_5
REMARK    4  A    between atoms: C_5  and  O_6
REMARK    5  A    between atoms: O_6  and  C_7
REMARK    6  A    between atoms: C_17  and  C_19
REMARK                            x       y       z     vdW  Elec       q    Type
REMARK                         _______ _______ _______ _____ _____    ______ ____
ROOT
ATOM      1  O   UNL     1       4.615   6.947  16.666  0.00  0.00    +0.000 OA
ATOM      2  C   UNL     1       4.172   6.574  17.752  0.00  0.00    +0.000 C 
ATOM      3  N   UNL     1       3.005   7.105  18.268  0.00  0.00    +0.000 N 
ATOM      4  C   UNL     1       2.319   6.688  19.504  0.00  0.00    +0.000 C 
ATOM      5  C   UNL     1       1.922   7.898  20.372  0.00  0.00    +0.000 C 
ATOM      6  N   UNL     1       1.265   8.938  19.571  0.00  0.00    +0.000 N 
ATOM      7  C   UNL     1       0.088   9.540  20.033  0.00  0.00    +0.000 C 
ATOM      8  O   UNL     1      -0.335   9.286  21.161  0.00  0.00    +0.000 OA
ATOM      9  C   UNL     1       2.039   9.355  18.394  0.00  0.00    +0.000 C 
ATOM     10  C   UNL     1       2.310   8.146  17.500  0.00  0.00    +0.000 C 
ENDROOT
BRANCH   7  11
ATOM     11  C   UNL     1      -0.603  10.475  19.162  0.00  0.00    +0.000 A 
ATOM     12  C   UNL     1      -1.544  10.253  18.172  0.00  0.00    +0.000 A 
ATOM     13  C   UNL     1      -1.907  11.522  17.656  0.00  0.00    +0.000 A 
ATOM     14  C   UNL     1      -1.131  12.440  18.321  0.00  0.00    +0.000 A 
ATOM     15  O   UNL     1      -0.311  11.815  19.204  0.00  0.00    +0.000 OA
ENDBRANCH   7  11
BRANCH   2  16
ATOM     16  C   UNL     1       4.902   5.535  18.588  0.00  0.00    +0.000 C 
BRANCH  16  17
ATOM     17  C   UNL     1       5.179   4.234  17.830  0.00  0.00    +0.000 C 
BRANCH  17  18
ATOM     18  C   UNL     1       3.933   3.625  17.184  0.00  0.00    +0.000 C 
BRANCH  18  19
ATOM     19  O   UNL     1       3.595   2.435  17.901  0.00  0.00    +0.000 OA
BRANCH  19  20
ATOM     20  C   UNL     1       2.892   2.621  19.060  0.00  0.00    +0.000 A 
ATOM     21  C   UNL     1       1.557   2.988  18.886  0.00  0.00    +0.000 A 
ATOM     22  C   UNL     1       0.737   3.223  19.990  0.00  0.00    +0.000 A 
ATOM     23  C   UNL     1       1.246   3.072  21.279  0.00  0.00    +0.000 A 
ATOM     24  C   UNL     1       2.568   2.674  21.460  0.00  0.00    +0.000 A 
ATOM     25  C   UNL     1       3.391   2.445  20.353  0.00  0.00    +0.000 A 
ENDBRANCH  19  20
ENDBRANCH  18  19
ENDBRANCH  17  18
ENDBRANCH  16  17
ENDBRANCH   2  16
TORSDOF 6
ENDMDL
MODEL 2
REMARK VINA RESULT:      -6.9      2.094      2.905
REMARK  Name = 
REMARK  6 active torsions:
REMARK  status: ('A' for Active; 'I' for Inactive)
REMARK    1  A    between atoms: C_2  and  C_3
REMARK    2  A    between atoms: C_3  and  C_4
REMARK    3  A    between atoms: C_4  and  C_5
REMARK    4  A    between atoms: C_5  and  O_6
REMARK    5  A    between atoms: O_6  and  C_7
REMARK    6  A    between atoms: C_17  and  C_19
REMARK                            x       y       z     vdW  Elec       q    Type
REMARK                         _______ _______ _______ _____ _____    ______ ____
ROOT
ATOM      1  O   UNL     1       2.283   6.463  20.359  0.00  0.00    +0.000 OA
ATOM      2  C   UNL     1       2.231   7.201  19.375  0.00  0.00    +0.000 C 
ATOM      3  N   UNL     1       1.686   8.468  19.460  0.00  0.00    +0.000 N 
ATOM      4  C   UNL     1       1.643   9.482  18.391  0.00  0.00    +0.000 C 
ATOM      5  C   UNL     1       0.244  10.116  18.263  0.00  0.00    +0.000 C 
ATOM      6  N   UNL     1      -0.284  10.515  19.573  0.00  0.00    +0.000 N 
ATOM      7  C   UNL     1      -0.869  11.776  19.737  0.00  0.00    +0.000 C 
ATOM      8  O   UNL     1      -1.049  12.507  18.763  0.00  0.00    +0.000 OA
ATOM      9  C   UNL     1      -0.276   9.434  20.568  0.00  0.00    +0.000 C 
ATOM     10  C   UNL     1       1.149   8.913  20.752  0.00  0.00    +0.000 C 
ENDROOT
BRANCH   7  11
ATOM     11  C   UNL     1      -1.269  12.188  21.072  0.00  0.00    +0.000 A 
ATOM     12  C   UNL     1      -0.507  12.578  22.158  0.00  0.00    +0.000 A 
ATOM     13  C   UNL     1      -1.409  12.902  23.202  0.00  0.00    +0.000 A 
ATOM     14  C   UNL     1      -2.666  12.640  22.713  0.00  0.00    +0.000 A 
ATOM     15  O   UNL     1      -2.591  12.171  21.442  0.00  0.00    +0.000 OA
ENDBRANCH   7  11
BRANCH   2  16
ATOM     16  C   UNL     1       2.734   6.741  18.016  0.00  0.00    +0.000 C 
BRANCH  16  17
ATOM     17  C   UNL     1       3.934   5.794  18.103  0.00  0.00    +0.000 C 
BRANCH  17  18
ATOM     18  C   UNL     1       3.762   4.514  17.283  0.00  0.00    +0.000 C 
BRANCH  18  19
ATOM     19  O   UNL     1       4.026   3.398  18.137  0.00  0.00    +0.000 OA
BRANCH  19  20
ATOM     20  C   UNL     1       3.131   3.207  19.155  0.00  0.00    +0.000 A 
ATOM     21  C   UNL     1       1.791   3.190  18.765  0.00  0.00    +0.000 A 
ATOM     22  C   UNL     1       0.780   3.019  19.711  0.00  0.00    +0.000 A 
ATOM     23  C   UNL     1       1.106   2.843  21.054  0.00  0.00    +0.000 A 
ATOM     24  C   UNL     1       2.443   2.825  21.446  0.00  0.00    +0.000 A 
ATOM     25  C   UNL     1       3.456   3.003  20.498  0.00  0.00    +0.000 A 
ENDBRANCH  19  20
ENDBRANCH  18  19
ENDBRANCH  17  18
ENDBRANCH  16  17
ENDBRANCH   2  16
TORSDOF 6
ENDMDL
MODEL 3
REMARK VINA RESULT:      -6.8      2.096      2.550
REMARK  Name = 
REMARK  6 active torsions:
REMARK  status: ('A' for Active; 'I' for Inactive)
REMARK    1  A    between atoms: C_2  and  C_3
REMARK    2  A    between atoms: C_3  and  C_4
REMARK    3  A    between atoms: C_4  and  C_5
REMARK    4  A    between atoms: C_5  and  O_6
REMARK    5  A    between atoms: O_6  and  C_7
REMARK    6  A    between atoms: C_17  and  C_19
REMARK                            x       y       z     vdW  Elec       q    Type
REMARK                         _______ _______ _______ _____ _____    ______ ____
ROOT
ATOM      1  O   UNL     1       2.407   8.676  17.361  0.00  0.00    +0.000 OA
ATOM      2  C   UNL     1       2.332   8.103  18.449  0.00  0.00    +0.000 C 
ATOM      3  N   UNL     1       1.502   8.573  19.448  0.00  0.00    +0.000 N 
ATOM      4  C   UNL     1       1.249   7.939  20.754  0.00  0.00    +0.000 C 
ATOM      5  C   UNL     1       1.343   8.955  21.909  0.00  0.00    +0.000 C 
ATOM      6  N   UNL     1       0.584  10.175  21.610  0.00  0.00    +0.000 N 
ATOM      7  C   UNL     1      -0.266  10.726  22.576  0.00  0.00    +0.000 C 
ATOM      8  O   UNL     1      -0.292  10.261  23.716  0.00  0.00    +0.000 OA
ATOM      9  C   UNL     1       0.938  10.793  20.325  0.00  0.00    +0.000 C 
ATOM     10  C   UNL     1       0.719   9.789  19.193  0.00  0.00    +0.000 C 
ENDROOT
BRANCH   7  11
ATOM     11  C   UNL     1      -1.095  11.861  22.208  0.00  0.00    +0.000 A 
ATOM     12  C   UNL     1      -1.223  13.108  22.794  0.00  0.00    +0.000 A 
ATOM     13  C   UNL     1      -2.150  13.839  22.011  0.00  0.00    +0.000 A 
ATOM     14  C   UNL     1      -2.575  12.983  21.025  0.00  0.00    +0.000 A 
ATOM     15  O   UNL     1      -1.975  11.772  21.159  0.00  0.00    +0.000 OA
ENDBRANCH   7  11
BRANCH   2  16
ATOM     16  C   UNL     1       3.172   6.872  18.752  0.00  0.00    +0.000 C 
BRANCH  16  17
ATOM     17  C   UNL     1       3.390   5.972  17.533  0.00  0.00    +0.000 C 
BRANCH  17  18
ATOM     18  C   UNL     1       4.357   4.815  17.794  0.00  0.00    +0.000 C 
BRANCH  18  19
ATOM     19  O   UNL     1       3.607   3.598  17.787  0.00  0.00    +0.000 OA
BRANCH  19  20
ATOM     20  C   UNL     1       2.909   3.326  18.933  0.00  0.00    +0.000 A 
ATOM     21  C   UNL     1       1.523   3.285  18.783  0.00  0.00    +0.000 A 
ATOM     22  C   UNL     1       0.698   3.034  19.880  0.00  0.00    +0.000 A 
ATOM     23  C   UNL     1       1.260   2.802  21.134  0.00  0.00    +0.000 A 
ATOM     24  C   UNL     1       2.645   2.809  21.285  0.00  0.00    +0.000 A 
ATOM     25  C   UNL     1       3.470   3.067  20.187  0.00  0.00    +0.000 A 
ENDBRANCH  19  20
ENDBRANCH  18  19
ENDBRANCH  17  18
ENDBRANCH  16  17
ENDBRANCH   2  16
TORSDOF 6
ENDMDL
MODEL 4
REMARK VINA RESULT:      -6.8      2.151      3.130
REMARK  Name = 
REMARK  6 active torsions:
REMARK  status: ('A' for Active; 'I' for Inactive)
REMARK    1  A    between atoms: C_2  and  C_3
REMARK    2  A    between atoms: C_3  and  C_4
REMARK    3  A    between atoms: C_4  and  C_5
REMARK    4  A    between atoms: C_5  and  O_6
REMARK    5  A    between atoms: O_6  and  C_7
REMARK    6  A    between atoms: C_17  and  C_19
REMARK                            x       y       z     vdW  Elec       q    Type
REMARK                         _______ _______ _______ _____ _____    ______ ____
ROOT
ATOM      1  O   UNL     1       2.329   6.788  20.370  0.00  0.00    +0.000 OA
ATOM      2  C   UNL     1       2.168   7.481  19.366  0.00  0.00    +0.000 C 
ATOM      3  N   UNL     1       1.552   8.716  19.440  0.00  0.00    +0.000 N 
ATOM      4  C   UNL     1       1.377   9.681  18.340  0.00  0.00    +0.000 C 
ATOM      5  C   UNL     1      -0.064  10.224  18.283  0.00  0.00    +0.000 C 
ATOM      6  N   UNL     1      -0.530  10.645  19.609  0.00  0.00    +0.000 N 
ATOM      7  C   UNL     1      -1.180  11.875  19.766  0.00  0.00    +0.000 C 
ATOM      8  O   UNL     1      -1.468  12.553  18.780  0.00  0.00    +0.000 OA
ATOM      9  C   UNL     1      -0.391   9.608  20.641  0.00  0.00    +0.000 C 
ATOM     10  C   UNL     1       1.073   9.181  20.749  0.00  0.00    +0.000 C 
ENDROOT
BRANCH   7  11
ATOM     11  C   UNL     1      -1.518  12.317  21.108  0.00  0.00    +0.000 A 
ATOM     12  C   UNL     1      -2.746  12.425  21.735  0.00  0.00    +0.000 A 
ATOM     13  C   UNL     1      -2.498  12.881  23.054  0.00  0.00    +0.000 A 
ATOM     14  C   UNL     1      -1.142  13.076  23.140  0.00  0.00    +0.000 A 
ATOM     15  O   UNL     1      -0.544  12.777  21.959  0.00  0.00    +0.000 OA
ENDBRANCH   7  11
BRANCH   2  16
ATOM     16  C   UNL     1       2.610   6.997  17.994  0.00  0.00    +0.000 C 
BRANCH  16  17
ATOM     17  C   UNL     1       3.927   6.217  18.022  0.00  0.00    +0.000 C 
BRANCH  17  18
ATOM     18  C   UNL     1       3.851   4.864  17.311  0.00  0.00    +0.000 C 
BRANCH  18  19
ATOM     19  O   UNL     1       4.111   3.840  18.274  0.00  0.00    +0.000 OA
BRANCH  19  20
ATOM     20  C   UNL     1       3.066   3.523  19.099  0.00  0.00    +0.000 A 
ATOM     21  C   UNL     1       3.401   3.382  20.446  0.00  0.00    +0.000 A 
ATOM     22  C   UNL     1       2.427   3.044  21.387  0.00  0.00    +0.000 A 
ATOM     23  C   UNL     1       1.104   2.865  20.985  0.00  0.00    +0.000 A 
ATOM     24  C   UNL     1       0.756   3.037  19.647  0.00  0.00    +0.000 A 
ATOM     25  C   UNL     1       1.734   3.370  18.704  0.00  0.00    +0.000 A 
ENDBRANCH  19  20
ENDBRANCH  18  19
ENDBRANCH  17  18
ENDBRANCH  16  17
ENDBRANCH   2  16
TORSDOF 6
ENDMDL
MODEL 5
REMARK VINA RESULT:      -6.8      0.527      1.087
REMARK  Name = 
REMARK  6 active torsions:
REMARK  status: ('A' for Active; 'I' for Inactive)
REMARK    1  A    between atoms: C_2  and  C_3
REMARK    2  A    between atoms: C_3  and  C_4
REMARK    3  A    between atoms: C_4  and  C_5
REMARK    4  A    between atoms: C_5  and  O_6
REMARK    5  A    between atoms: O_6  and  C_7
REMARK    6  A    between atoms: C_17  and  C_19
REMARK                            x       y       z     vdW  Elec       q    Type
REMARK                         _______ _______ _______ _____ _____    ______ ____
ROOT
ATOM      1  O   UNL     1       4.360   7.373  16.518  0.00  0.00    +0.000 OA
ATOM      2  C   UNL     1       4.000   6.907  17.599  0.00  0.00    +0.000 C 
ATOM      3  N   UNL     1       2.853   7.358  18.224  0.00  0.00    +0.000 N 
ATOM      4  C   UNL     1       2.261   6.829  19.466  0.00  0.00    +0.000 C 
ATOM      5  C   UNL     1       1.884   7.959  20.444  0.00  0.00    +0.000 C 
ATOM      6  N   UNL     1       1.144   9.029  19.764  0.00  0.00    +0.000 N 
ATOM      7  C   UNL     1      -0.018   9.553  20.342  0.00  0.00    +0.000 C 
ATOM      8  O   UNL     1      -0.359   9.205  21.473  0.00  0.00    +0.000 OA
ATOM      9  C   UNL     1       1.827   9.557  18.575  0.00  0.00    +0.000 C 
ATOM     10  C   UNL     1       2.077   8.425  17.579  0.00  0.00    +0.000 C 
ENDROOT
BRANCH   7  11
ATOM     11  C   UNL     1      -0.793  10.523  19.587  0.00  0.00    +0.000 A 
ATOM     12  C   UNL     1      -1.637  10.352  18.504  0.00  0.00    +0.000 A 
ATOM     13  C   UNL     1      -2.157  11.629  18.179  0.00  0.00    +0.000 A 
ATOM     14  C   UNL     1      -1.562  12.514  19.045  0.00  0.00    +0.000 A 
ATOM     15  O   UNL     1      -0.706  11.863  19.873  0.00  0.00    +0.000 OA
ENDBRANCH   7  11
BRANCH   2  16
ATOM     16  C   UNL     1       4.815   5.838  18.309  0.00  0.00    +0.000 C 
BRANCH  16  17
ATOM     17  C   UNL     1       5.219   4.678  17.395  0.00  0.00    +0.000 C 
BRANCH  17  18
ATOM     18  C   UNL     1       4.711   3.316  17.876  0.00  0.00    +0.000 C 
BRANCH  18  19
ATOM     19  O   UNL     1       3.288   3.297  17.737  0.00  0.00    +0.000 OA
BRANCH  19  20
ATOM     20  C   UNL     1       2.582   3.164  18.902  0.00  0.00    +0.000 A 
ATOM     21  C   UNL     1       3.352   2.871  20.027  0.00  0.00    +0.000 A 
ATOM     22  C   UNL     1       2.748   2.695  21.273  0.00  0.00    +0.000 A 
ATOM     23  C   UNL     1       1.367   2.832  21.402  0.00  0.00    +0.000 A 
ATOM     24  C   UNL     1       0.595   3.157  20.289  0.00  0.00    +0.000 A 
ATOM     25  C   UNL     1       1.201   3.327  19.040  0.00  0.00    +0.000 A 
ENDBRANCH  19  20
ENDBRANCH  18  19
ENDBRANCH  17  18
ENDBRANCH  16  17
ENDBRANCH   2  16
TORSDOF 6
ENDMDL
MODEL 6
REMARK VINA RESULT:      -6.8      2.499      4.422
REMARK  Name = 
REMARK  6 active torsions:
REMARK  status: ('A' for Active; 'I' for Inactive)
REMARK    1  A    between atoms: C_2  and  C_3
REMARK    2  A    between atoms: C_3  and  C_4
REMARK    3  A    between atoms: C_4  and  C_5
REMARK    4  A    between atoms: C_5  and  O_6
REMARK    5  A    between atoms: O_6  and  C_7
REMARK    6  A    between atoms: C_17  and  C_19
REMARK                            x       y       z     vdW  Elec       q    Type
REMARK                         _______ _______ _______ _____ _____    ______ ____
ROOT
ATOM      1  O   UNL     1       4.534   7.148  16.416  0.00  0.00    +0.000 OA
ATOM      2  C   UNL     1       4.156   6.718  17.506  0.00  0.00    +0.000 C 
ATOM      3  N   UNL     1       3.005   7.197  18.103  0.00  0.00    +0.000 N 
ATOM      4  C   UNL     1       2.393   6.711  19.352  0.00  0.00    +0.000 C 
ATOM      5  C   UNL     1       2.012   7.873  20.290  0.00  0.00    +0.000 C 
ATOM      6  N   UNL     1       1.290   8.928  19.569  0.00  0.00    +0.000 N 
ATOM      7  C   UNL     1       0.125   9.478  20.115  0.00  0.00    +0.000 C 
ATOM      8  O   UNL     1      -0.234   9.167  21.251  0.00  0.00    +0.000 OA
ATOM      9  C   UNL     1       1.993   9.414  18.373  0.00  0.00    +0.000 C 
ATOM     10  C   UNL     1       2.246   8.250  17.415  0.00  0.00    +0.000 C 
ENDROOT
BRANCH   7  11
ATOM     11  C   UNL     1      -0.633  10.431  19.321  0.00  0.00    +0.000 A 
ATOM     12  C   UNL     1      -1.512  10.228  18.272  0.00  0.00    +0.000 A 
ATOM     13  C   UNL     1      -1.990  11.503  17.881  0.00  0.00    +0.000 A 
ATOM     14  C   UNL     1      -1.337  12.414  18.675  0.00  0.00    +0.000 A 
ATOM     15  O   UNL     1      -0.485  11.780  19.520  0.00  0.00    +0.000 OA
ENDBRANCH   7  11
BRANCH   2  16
ATOM     16  C   UNL     1       4.952   5.664  18.259  0.00  0.00    +0.000 C 
BRANCH  16  17
ATOM     17  C   UNL     1       6.457   5.736  17.990  0.00  0.00    +0.000 C 
BRANCH  17  18
ATOM     18  C   UNL     1       6.935   4.750  16.922  0.00  0.00    +0.000 C 
BRANCH  18  19
ATOM     19  O   UNL     1       7.373   5.499  15.786  0.00  0.00    +0.000 OA
BRANCH  19  20
ATOM     20  C   UNL     1       7.076   4.954  14.566  0.00  0.00    +0.000 A 
ATOM     21  C   UNL     1       5.946   4.136  14.547  0.00  0.00    +0.000 A 
ATOM     22  C   UNL     1       5.547   3.507  13.366  0.00  0.00    +0.000 A 
ATOM     23  C   UNL     1       6.267   3.712  12.191  0.00  0.00    +0.000 A 
ATOM     24  C   UNL     1       7.377   4.554  12.196  0.00  0.00    +0.000 A 
ATOM     25  C   UNL     1       7.780   5.178  13.381  0.00  0.00    +0.000 A 
ENDBRANCH  19  20
ENDBRANCH  18  19
ENDBRANCH  17  18
ENDBRANCH  16  17
ENDBRANCH   2  16
TORSDOF 6
ENDMDL
MODEL 7
REMARK VINA RESULT:      -6.7      5.170      8.664
REMARK  Name = 
REMARK  6 active torsions:
REMARK  status: ('A' for Active; 'I' for Inactive)
REMARK    1  A    between atoms: C_2  and  C_3
REMARK    2  A    between atoms: C_3  and  C_4
REMARK    3  A    between atoms: C_4  and  C_5
REMARK    4  A    between atoms: C_5  and  O_6
REMARK    5  A    between atoms: O_6  and  C_7
REMARK    6  A    between atoms: C_17  and  C_19
REMARK                            x       y       z     vdW  Elec       q    Type
REMARK                         _______ _______ _______ _____ _____    ______ ____
ROOT
ATOM      1  O   UNL     1       8.215   5.941  19.065  0.00  0.00    +0.000 OA
ATOM      2  C   UNL     1       7.392   6.425  18.288  0.00  0.00    +0.000 C 
ATOM      3  N   UNL     1       6.045   6.138  18.405  0.00  0.00    +0.000 N 
ATOM      4  C   UNL     1       4.950   6.715  17.606  0.00  0.00    +0.000 C 
ATOM      5  C   UNL     1       3.983   5.629  17.095  0.00  0.00    +0.000 C 
ATOM      6  N   UNL     1       3.600   4.706  18.170  0.00  0.00    +0.000 N 
ATOM      7  C   UNL     1       2.257   4.350  18.343  0.00  0.00    +0.000 C 
ATOM      8  O   UNL     1       1.410   4.714  17.527  0.00  0.00    +0.000 OA
ATOM      9  C   UNL     1       4.744   4.114  18.877  0.00  0.00    +0.000 C 
ATOM     10  C   UNL     1       5.614   5.222  19.469  0.00  0.00    +0.000 C 
ENDROOT
BRANCH   7  11
ATOM     11  C   UNL     1       1.896   3.534  19.490  0.00  0.00    +0.000 A 
ATOM     12  C   UNL     1       1.701   2.168  19.594  0.00  0.00    +0.000 A 
ATOM     13  C   UNL     1       1.391   1.897  20.950  0.00  0.00    +0.000 A 
ATOM     14  C   UNL     1       1.362   3.115  21.584  0.00  0.00    +0.000 A 
ATOM     15  O   UNL     1       1.626   4.114  20.703  0.00  0.00    +0.000 OA
ENDBRANCH   7  11
BRANCH   2  16
ATOM     16  C   UNL     1       7.822   7.335  17.149  0.00  0.00    +0.000 C 
BRANCH  16  17
ATOM     17  C   UNL     1       7.665   8.823  17.470  0.00  0.00    +0.000 C 
BRANCH  17  18
ATOM     18  C   UNL     1       8.790   9.381  18.344  0.00  0.00    +0.000 C 
BRANCH  18  19
ATOM     19  O   UNL     1       8.841  10.797  18.154  0.00  0.00    +0.000 OA
BRANCH  19  20
ATOM     20  C   UNL     1       9.971  11.417  18.617  0.00  0.00    +0.000 A 
ATOM     21  C   UNL     1      10.717  12.082  17.644  0.00  0.00    +0.000 A 
ATOM     22  C   UNL     1      11.900  12.740  17.984  0.00  0.00    +0.000 A 
ATOM     23  C   UNL     1      12.333  12.751  19.309  0.00  0.00    +0.000 A 
ATOM     24  C   UNL     1      11.576  12.116  20.291  0.00  0.00    +0.000 A 
ATOM     25  C   UNL     1      10.394  11.452  19.948  0.00  0.00    +0.000 A 
ENDBRANCH  19  20
ENDBRANCH  18  19
ENDBRANCH  17  18
ENDBRANCH  16  17
ENDBRANCH   2  16
TORSDOF 6
ENDMDL
MODEL 8
REMARK VINA RESULT:      -6.7      1.957      2.553
REMARK  Name = 
REMARK  6 active torsions:
REMARK  status: ('A' for Active; 'I' for Inactive)
REMARK    1  A    between atoms: C_2  and  C_3
REMARK    2  A    between atoms: C_3  and  C_4
REMARK    3  A    between atoms: C_4  and  C_5
REMARK    4  A    between atoms: C_5  and  O_6
REMARK    5  A    between atoms: O_6  and  C_7
REMARK    6  A    between atoms: C_17  and  C_19
REMARK                            x       y       z     vdW  Elec       q    Type
REMARK                         _______ _______ _______ _____ _____    ______ ____
ROOT
ATOM      1  O   UNL     1       2.536   8.558  17.305  0.00  0.00    +0.000 OA
ATOM      2  C   UNL     1       2.360   8.065  18.420  0.00  0.00    +0.000 C 
ATOM      3  N   UNL     1       1.506   8.653  19.333  0.00  0.00    +0.000 N 
ATOM      4  C   UNL     1       1.136   8.125  20.658  0.00  0.00    +0.000 C 
ATOM      5  C   UNL     1       1.230   9.209  21.750  0.00  0.00    +0.000 C 
ATOM      6  N   UNL     1       0.573  10.452  21.328  0.00  0.00    +0.000 N 
ATOM      7  C   UNL     1      -0.293  11.118  22.203  0.00  0.00    +0.000 C 
ATOM      8  O   UNL     1      -0.416  10.733  23.366  0.00  0.00    +0.000 OA
ATOM      9  C   UNL     1       1.043  10.958  20.031  0.00  0.00    +0.000 C 
ATOM     10  C   UNL     1       0.823   9.896  18.953  0.00  0.00    +0.000 C 
ENDROOT
BRANCH   7  11
ATOM     11  C   UNL     1      -1.021  12.276  21.712  0.00  0.00    +0.000 A 
ATOM     12  C   UNL     1      -2.193  12.357  20.982  0.00  0.00    +0.000 A 
ATOM     13  C   UNL     1      -2.471  13.734  20.798  0.00  0.00    +0.000 A 
ATOM     14  C   UNL     1      -1.428  14.414  21.378  0.00  0.00    +0.000 A 
ATOM     15  O   UNL     1      -0.526  13.543  21.897  0.00  0.00    +0.000 OA
ENDBRANCH   7  11
BRANCH   2  16
ATOM     16  C   UNL     1       3.096   6.807  18.852  0.00  0.00    +0.000 C 
BRANCH  16  17
ATOM     17  C   UNL     1       3.985   6.218  17.754  0.00  0.00    +0.000 C 
BRANCH  17  18
ATOM     18  C   UNL     1       4.524   4.825  18.087  0.00  0.00    +0.000 C 
BRANCH  18  19
ATOM     19  O   UNL     1       3.495   3.871  17.816  0.00  0.00    +0.000 OA
BRANCH  19  20
ATOM     20  C   UNL     1       2.726   3.508  18.888  0.00  0.00    +0.000 A 
ATOM     21  C   UNL     1       3.441   3.170  20.037  0.00  0.00    +0.000 A 
ATOM     22  C   UNL     1       2.774   2.765  21.194  0.00  0.00    +0.000 A 
ATOM     23  C   UNL     1       1.382   2.717  21.213  0.00  0.00    +0.000 A 
ATOM     24  C   UNL     1       0.659   3.085  20.079  0.00  0.00    +0.000 A 
ATOM     25  C   UNL     1       1.329   3.483  18.919  0.00  0.00    +0.000 A 
ENDBRANCH  19  20
ENDBRANCH  18  19
ENDBRANCH  17  18
ENDBRANCH  16  17
ENDBRANCH   2  16
TORSDOF 6
ENDMDL
MODEL 9
REMARK VINA RESULT:      -6.6      2.828      7.541
REMARK  Name = 
REMARK  6 active torsions:
REMARK  status: ('A' for Active; 'I' for Inactive)
REMARK    1  A    between atoms: C_2  and  C_3
REMARK    2  A    between atoms: C_3  and  C_4
REMARK    3  A    between atoms: C_4  and  C_5
REMARK    4  A    between atoms: C_5  and  O_6
REMARK    5  A    between atoms: O_6  and  C_7
REMARK    6  A    between atoms: C_17  and  C_19
REMARK                            x       y       z     vdW  Elec       q    Type
REMARK                         _______ _______ _______ _____ _____    ______ ____
ROOT
ATOM      1  O   UNL     1       2.555   2.163  19.026  0.00  0.00    +0.000 OA
ATOM      2  C   UNL     1       3.220   3.147  19.353  0.00  0.00    +0.000 C 
ATOM      3  N   UNL     1       3.964   3.847  18.423  0.00  0.00    +0.000 N 
ATOM      4  C   UNL     1       4.727   5.086  18.658  0.00  0.00    +0.000 C 
ATOM      5  C   UNL     1       6.145   5.005  18.060  0.00  0.00    +0.000 C 
ATOM      6  N   UNL     1       6.116   4.499  16.682  0.00  0.00    +0.000 N 
ATOM      7  C   UNL     1       6.857   5.142  15.684  0.00  0.00    +0.000 C 
ATOM      8  O   UNL     1       7.627   6.057  15.977  0.00  0.00    +0.000 OA
ATOM      9  C   UNL     1       5.399   3.224  16.535  0.00  0.00    +0.000 C 
ATOM     10  C   UNL     1       3.962   3.381  17.030  0.00  0.00    +0.000 C 
ENDROOT
BRANCH   7  11
ATOM     11  C   UNL     1       6.711   4.692  14.310  0.00  0.00    +0.000 A 
ATOM     12  C   UNL     1       7.565   4.815  13.229  0.00  0.00    +0.000 A 
ATOM     13  C   UNL     1       6.939   4.173  12.132  0.00  0.00    +0.000 A 
ATOM     14  C   UNL     1       5.718   3.742  12.590  0.00  0.00    +0.000 A 
ATOM     15  O   UNL     1       5.553   4.086  13.893  0.00  0.00    +0.000 OA
ENDBRANCH   7  11
BRANCH   2  16
ATOM     16  C   UNL     1       3.277   3.617  20.798  0.00  0.00    +0.000 C 
BRANCH  16  17
ATOM     17  C   UNL     1       1.948   4.184  21.303  0.00  0.00    +0.000 C 
BRANCH  17  18
ATOM     18  C   UNL     1       1.382   5.295  20.416  0.00  0.00    +0.000 C 
BRANCH  18  19
ATOM     19  O   UNL     1       2.003   6.527  20.793  0.00  0.00    +0.000 OA
BRANCH  19  20
ATOM     20  C   UNL     1       1.886   7.549  19.890  0.00  0.00    +0.000 A 
ATOM     21  C   UNL     1       1.217   8.678  20.364  0.00  0.00    +0.000 A 
ATOM     22  C   UNL     1       1.017   9.783  19.535  0.00  0.00    +0.000 A 
ATOM     23  C   UNL     1       1.506   9.771  18.230  0.00  0.00    +0.000 A 
ATOM     24  C   UNL     1       2.204   8.660  17.761  0.00  0.00    +0.000 A 
ATOM     25  C   UNL     1       2.397   7.551  18.590  0.00  0.00    +0.000 A 
ENDBRANCH  19  20
ENDBRANCH  18  19
ENDBRANCH  17  18
ENDBRANCH  16  17
ENDBRANCH   2  16
TORSDOF 6
ENDMDL
