MODEL 1
REMARK VINA RESULT:      -7.3      0.000      0.000
REMARK  Name = 
REMARK  9 active torsions:
REMARK  status: ('A' for Active; 'I' for Inactive)
REMARK    1  A    between atoms: C_1  and  C_2
REMARK    2  A    between atoms: C_2  and  C_3
REMARK    3  A    between atoms: C_2  and  C_25
REMARK    4  A    between atoms: N_5  and  C_6
REMARK    5  A    between atoms: C_8  and  C_9
REMARK    6  A    between atoms: N_21  and  C_22
REMARK    7  A    between atoms: C_25  and  C_26
REMARK    8  A    between atoms: C_25  and  C_28
REMARK    9  A    between atoms: C_26  and  O_27
REMARK                            x       y       z     vdW  Elec       q    Type
REMARK                         _______ _______ _______ _____ _____    ______ ____
ROOT
ATOM      1  C   UNL     1      -1.558  11.687  17.985  0.00  0.00    +0.000 C 
ATOM      2  N   UNL     1      -0.871  12.964  18.148  0.00  0.00    +0.000 NA
ATOM      3  C   UNL     1      -0.551  13.427  19.306  0.00  0.00    +0.000 C 
ATOM      4  C   UNL     1      -0.845  12.739  20.598  0.00  0.00    +0.000 A 
ATOM      5  C   UNL     1      -1.408  13.517  21.633  0.00  0.00    +0.000 A 
ATOM      6  C   UNL     1      -1.692  12.958  22.878  0.00  0.00    +0.000 A 
ATOM      7  C   UNL     1      -1.427  11.615  23.100  0.00  0.00    +0.000 A 
ATOM      8  C   UNL     1      -0.892  10.833  22.075  0.00  0.00    +0.000 A 
ATOM      9  C   UNL     1      -0.619  11.366  20.799  0.00  0.00    +0.000 A 
ATOM     10  N   UNL     1      -0.190  10.481  19.776  0.00  0.00    +0.000 N 
ATOM     11  C   UNL     1       0.740   9.407  20.118  0.00  0.00    +0.000 C 
ATOM     12  C   UNL     1      -0.595  10.543  18.434  0.00  0.00    +0.000 C 
ATOM     13  O   UNL     1      -0.182   9.716  17.614  0.00  0.00    +0.000 OA
ENDROOT
BRANCH   3  14
ATOM     14  C   UNL     1       0.113  14.773  19.331  0.00  0.00    +0.000 A 
ATOM     15  C   UNL     1      -0.568  15.876  18.802  0.00  0.00    +0.000 A 
ATOM     16  C   UNL     1       0.039  17.131  18.769  0.00  0.00    +0.000 A 
ATOM     17  C   UNL     1       1.326  17.292  19.278  0.00  0.00    +0.000 A 
ATOM     18  C   UNL     1       2.003  16.205  19.828  0.00  0.00    +0.000 A 
ATOM     19  C   UNL     1       1.405  14.944  19.847  0.00  0.00    +0.000 A 
ENDBRANCH   3  14
BRANCH   1  22
ATOM     20  C   UNL     1      -4.042  11.449  18.069  0.00  0.00    +0.000 C 
ATOM     21  O   UNL     1      -4.168  11.084  16.897  0.00  0.00    +0.000 OA
ATOM     22  N   UNL     1      -2.848  11.765  18.638  0.00  0.00    +0.000 N 
ATOM     23  H   UNL     1      -2.834  12.047  19.595  0.00  0.00    +0.000 HD
BRANCH  20  25
ATOM     24  C   UNL     1      -6.515  11.105  18.217  0.00  0.00    +0.000 C 
ATOM     25  C   UNL     1      -5.288  11.620  18.968  0.00  0.00    +0.000 C 
BRANCH  25  26
ATOM     26  C   UNL     1      -5.486  13.075  19.491  0.00  0.00    +0.000 C 
BRANCH  26  27
ATOM     27  C   UNL     1      -6.057  13.143  20.903  0.00  0.00    +0.000 A 
ATOM     28  C   UNL     1      -7.425  13.343  21.145  0.00  0.00    +0.000 A 
ATOM     29  C   UNL     1      -7.916  13.442  22.450  0.00  0.00    +0.000 A 
ATOM     30  C   UNL     1      -7.041  13.348  23.519  0.00  0.00    +0.000 A 
ATOM     31  F   UNL     1      -7.515  13.467  24.766  0.00  0.00    +0.000 F 
ATOM     32  C   UNL     1      -5.688  13.149  23.301  0.00  0.00    +0.000 A 
ATOM     33  F   UNL     1      -4.839  13.049  24.334  0.00  0.00    +0.000 F 
ATOM     34  C   UNL     1      -5.193  13.051  22.005  0.00  0.00    +0.000 A 
ENDBRANCH  26  27
BRANCH  26  35
ATOM     35  C   UNL     1      -6.339  13.978  18.568  0.00  0.00    +0.000 C 
BRANCH  35  36
ATOM     36  O   UNL     1      -5.984  15.352  18.619  0.00  0.00    +0.000 OA
ATOM     37  H   UNL     1      -6.093  15.751  17.741  0.00  0.00    +0.000 HD
ENDBRANCH  35  36
ENDBRANCH  26  35
ENDBRANCH  25  26
ENDBRANCH  20  25
ENDBRANCH   1  22
TORSDOF 7
ENDMDL
MODEL 2
REMARK VINA RESULT:      -7.2      0.960      1.460
REMARK  Name = 
REMARK  9 active torsions:
REMARK  status: ('A' for Active; 'I' for Inactive)
REMARK    1  A    between atoms: C_1  and  C_2
REMARK    2  A    between atoms: C_2  and  C_3
REMARK    3  A    between atoms: C_2  and  C_25
REMARK    4  A    between atoms: N_5  and  C_6
REMARK    5  A    between atoms: C_8  and  C_9
REMARK    6  A    between atoms: N_21  and  C_22
REMARK    7  A    between atoms: C_25  and  C_26
REMARK    8  A    between atoms: C_25  and  C_28
REMARK    9  A    between atoms: C_26  and  O_27
REMARK                            x       y       z     vdW  Elec       q    Type
REMARK                         _______ _______ _______ _____ _____    ______ ____
ROOT
ATOM      1  C   UNL     1      -1.578  11.785  17.932  0.00  0.00    +0.000 C 
ATOM      2  N   UNL     1      -0.797  13.017  17.968  0.00  0.00    +0.000 NA
ATOM      3  C   UNL     1      -0.440  13.570  19.074  0.00  0.00    +0.000 C 
ATOM      4  C   UNL     1      -0.781  13.042  20.428  0.00  0.00    +0.000 A 
ATOM      5  C   UNL     1      -1.281  13.960  21.376  0.00  0.00    +0.000 A 
ATOM      6  C   UNL     1      -1.603  13.554  22.670  0.00  0.00    +0.000 A 
ATOM      7  C   UNL     1      -1.438  12.226  23.029  0.00  0.00    +0.000 A 
ATOM      8  C   UNL     1      -0.967  11.305  22.092  0.00  0.00    +0.000 A 
ATOM      9  C   UNL     1      -0.658  11.683  20.770  0.00  0.00    +0.000 A 
ATOM     10  N   UNL     1      -0.299  10.668  19.843  0.00  0.00    +0.000 N 
ATOM     11  C   UNL     1       0.549   9.569  20.298  0.00  0.00    +0.000 C 
ATOM     12  C   UNL     1      -0.702  10.623  18.501  0.00  0.00    +0.000 C 
ATOM     13  O   UNL     1      -0.355   9.689  17.771  0.00  0.00    +0.000 OA
ENDROOT
BRANCH   3  14
ATOM     14  C   UNL     1       0.323  14.858  18.965  0.00  0.00    +0.000 A 
ATOM     15  C   UNL     1       1.694  14.862  19.256  0.00  0.00    +0.000 A 
ATOM     16  C   UNL     1       2.421  16.050  19.206  0.00  0.00    +0.000 A 
ATOM     17  C   UNL     1       1.786  17.239  18.854  0.00  0.00    +0.000 A 
ATOM     18  C   UNL     1       0.428  17.240  18.538  0.00  0.00    +0.000 A 
ATOM     19  C   UNL     1      -0.307  16.055  18.603  0.00  0.00    +0.000 A 
ENDBRANCH   3  14
BRANCH   1  22
ATOM     20  C   UNL     1      -4.002  11.332  18.327  0.00  0.00    +0.000 C 
ATOM     21  O   UNL     1      -4.091  10.421  17.499  0.00  0.00    +0.000 OA
ATOM     22  N   UNL     1      -2.857  12.025  18.568  0.00  0.00    +0.000 N 
ATOM     23  H   UNL     1      -2.870  12.745  19.259  0.00  0.00    +0.000 HD
BRANCH  20  25
ATOM     24  C   UNL     1      -6.489  11.143  18.506  0.00  0.00    +0.000 C 
ATOM     25  C   UNL     1      -5.247  11.779  19.127  0.00  0.00    +0.000 C 
BRANCH  25  26
ATOM     26  C   UNL     1      -5.381  13.327  19.258  0.00  0.00    +0.000 C 
BRANCH  26  27
ATOM     27  C   UNL     1      -5.225  13.833  20.688  0.00  0.00    +0.000 A 
ATOM     28  C   UNL     1      -4.921  15.173  20.974  0.00  0.00    +0.000 A 
ATOM     29  C   UNL     1      -4.743  15.602  22.293  0.00  0.00    +0.000 A 
ATOM     30  C   UNL     1      -4.860  14.693  23.330  0.00  0.00    +0.000 A 
ATOM     31  F   UNL     1      -4.664  15.105  24.589  0.00  0.00    +0.000 F 
ATOM     32  C   UNL     1      -5.160  13.366  23.067  0.00  0.00    +0.000 A 
ATOM     33  F   UNL     1      -5.282  12.484  24.070  0.00  0.00    +0.000 F 
ATOM     34  C   UNL     1      -5.337  12.933  21.758  0.00  0.00    +0.000 A 
ENDBRANCH  26  27
BRANCH  26  35
ATOM     35  C   UNL     1      -6.686  13.909  18.666  0.00  0.00    +0.000 C 
BRANCH  35  36
ATOM     36  O   UNL     1      -6.510  14.573  17.423  0.00  0.00    +0.000 OA
ATOM     37  H   UNL     1      -6.607  13.938  16.696  0.00  0.00    +0.000 HD
ENDBRANCH  35  36
ENDBRANCH  26  35
ENDBRANCH  25  26
ENDBRANCH  20  25
ENDBRANCH   1  22
TORSDOF 7
ENDMDL
MODEL 3
REMARK VINA RESULT:      -7.0      1.079      1.581
REMARK  Name = 
REMARK  9 active torsions:
REMARK  status: ('A' for Active; 'I' for Inactive)
REMARK    1  A    between atoms: C_1  and  C_2
REMARK    2  A    between atoms: C_2  and  C_3
REMARK    3  A    between atoms: C_2  and  C_25
REMARK    4  A    between atoms: N_5  and  C_6
REMARK    5  A    between atoms: C_8  and  C_9
REMARK    6  A    between atoms: N_21  and  C_22
REMARK    7  A    between atoms: C_25  and  C_26
REMARK    8  A    between atoms: C_25  and  C_28
REMARK    9  A    between atoms: C_26  and  O_27
REMARK                            x       y       z     vdW  Elec       q    Type
REMARK                         _______ _______ _______ _____ _____    ______ ____
ROOT
ATOM      1  C   UNL     1      -1.532  11.668  17.905  0.00  0.00    +0.000 C 
ATOM      2  N   UNL     1      -0.793  12.926  17.943  0.00  0.00    +0.000 NA
ATOM      3  C   UNL     1      -0.438  13.479  19.050  0.00  0.00    +0.000 C 
ATOM      4  C   UNL     1      -0.739  12.925  20.402  0.00  0.00    +0.000 A 
ATOM      5  C   UNL     1      -1.256  13.815  21.368  0.00  0.00    +0.000 A 
ATOM      6  C   UNL     1      -1.543  13.384  22.663  0.00  0.00    +0.000 A 
ATOM      7  C   UNL     1      -1.327  12.058  23.004  0.00  0.00    +0.000 A 
ATOM      8  C   UNL     1      -0.839  11.165  22.049  0.00  0.00    +0.000 A 
ATOM      9  C   UNL     1      -0.564  11.568  20.727  0.00  0.00    +0.000 A 
ATOM     10  N   UNL     1      -0.185  10.576  19.784  0.00  0.00    +0.000 N 
ATOM     11  C   UNL     1       0.708   9.502  20.213  0.00  0.00    +0.000 C 
ATOM     12  C   UNL     1      -0.607  10.531  18.447  0.00  0.00    +0.000 C 
ATOM     13  O   UNL     1      -0.239   9.618  17.701  0.00  0.00    +0.000 OA
ENDROOT
BRANCH   3  14
ATOM     14  C   UNL     1       0.279  14.794  18.943  0.00  0.00    +0.000 A 
ATOM     15  C   UNL     1       1.643  14.851  19.255  0.00  0.00    +0.000 A 
ATOM     16  C   UNL     1       2.327  16.065  19.209  0.00  0.00    +0.000 A 
ATOM     17  C   UNL     1       1.654  17.227  18.838  0.00  0.00    +0.000 A 
ATOM     18  C   UNL     1       0.301  17.176  18.503  0.00  0.00    +0.000 A 
ATOM     19  C   UNL     1      -0.390  15.965  18.565  0.00  0.00    +0.000 A 
ENDBRANCH   3  14
BRANCH   1  22
ATOM     20  C   UNL     1      -4.018  11.495  18.059  0.00  0.00    +0.000 C 
ATOM     21  O   UNL     1      -4.171  10.983  16.946  0.00  0.00    +0.000 OA
ATOM     22  N   UNL     1      -2.808  11.857  18.562  0.00  0.00    +0.000 N 
ATOM     23  H   UNL     1      -2.771  12.261  19.474  0.00  0.00    +0.000 HD
BRANCH  20  25
ATOM     24  C   UNL     1      -6.481  11.158  18.329  0.00  0.00    +0.000 C 
ATOM     25  C   UNL     1      -5.244  11.806  18.947  0.00  0.00    +0.000 C 
BRANCH  25  26
ATOM     26  C   UNL     1      -5.449  13.328  19.214  0.00  0.00    +0.000 C 
BRANCH  26  27
ATOM     27  C   UNL     1      -5.197  13.732  20.663  0.00  0.00    +0.000 A 
ATOM     28  C   UNL     1      -5.438  12.856  21.733  0.00  0.00    +0.000 A 
ATOM     29  C   UNL     1      -5.238  13.264  23.055  0.00  0.00    +0.000 A 
ATOM     30  C   UNL     1      -4.802  14.553  23.314  0.00  0.00    +0.000 A 
ATOM     31  F   UNL     1      -4.634  14.946  24.583  0.00  0.00    +0.000 F 
ATOM     32  C   UNL     1      -4.557  15.431  22.272  0.00  0.00    +0.000 A 
ATOM     33  F   UNL     1      -4.127  16.677  22.518  0.00  0.00    +0.000 F 
ATOM     34  C   UNL     1      -4.756  15.031  20.954  0.00  0.00    +0.000 A 
ENDBRANCH  26  27
BRANCH  26  35
ATOM     35  C   UNL     1      -6.830  13.875  18.781  0.00  0.00    +0.000 C 
BRANCH  35  36
ATOM     36  O   UNL     1      -6.759  15.027  17.952  0.00  0.00    +0.000 OA
ATOM     37  H   UNL     1      -7.318  15.729  18.320  0.00  0.00    +0.000 HD
ENDBRANCH  35  36
ENDBRANCH  26  35
ENDBRANCH  25  26
ENDBRANCH  20  25
ENDBRANCH   1  22
TORSDOF 7
ENDMDL
MODEL 4
REMARK VINA RESULT:      -6.7      4.984      7.980
REMARK  Name = 
REMARK  9 active torsions:
REMARK  status: ('A' for Active; 'I' for Inactive)
REMARK    1  A    between atoms: C_1  and  C_2
REMARK    2  A    between atoms: C_2  and  C_3
REMARK    3  A    between atoms: C_2  and  C_25
REMARK    4  A    between atoms: N_5  and  C_6
REMARK    5  A    between atoms: C_8  and  C_9
REMARK    6  A    between atoms: N_21  and  C_22
REMARK    7  A    between atoms: C_25  and  C_26
REMARK    8  A    between atoms: C_25  and  C_28
REMARK    9  A    between atoms: C_26  and  O_27
REMARK                            x       y       z     vdW  Elec       q    Type
REMARK                         _______ _______ _______ _____ _____    ______ ____
ROOT
ATOM      1  C   UNL     1       3.587  14.319  21.090  0.00  0.00    +0.000 C 
ATOM      2  N   UNL     1       4.856  14.744  20.508  0.00  0.00    +0.000 NA
ATOM      3  C   UNL     1       4.921  15.640  19.586  0.00  0.00    +0.000 C 
ATOM      4  C   UNL     1       3.736  16.332  19.000  0.00  0.00    +0.000 A 
ATOM      5  C   UNL     1       3.670  16.427  17.593  0.00  0.00    +0.000 A 
ATOM      6  C   UNL     1       2.608  17.078  16.965  0.00  0.00    +0.000 A 
ATOM      7  C   UNL     1       1.597  17.632  17.735  0.00  0.00    +0.000 A 
ATOM      8  C   UNL     1       1.642  17.523  19.126  0.00  0.00    +0.000 A 
ATOM      9  C   UNL     1       2.690  16.849  19.784  0.00  0.00    +0.000 A 
ATOM     10  N   UNL     1       2.602  16.676  21.192  0.00  0.00    +0.000 N 
ATOM     11  C   UNL     1       2.075  17.771  22.003  0.00  0.00    +0.000 C 
ATOM     12  C   UNL     1       2.979  15.518  21.887  0.00  0.00    +0.000 C 
ATOM     13  O   UNL     1       2.850  15.450  23.113  0.00  0.00    +0.000 OA
ENDROOT
BRANCH   3  14
ATOM     14  C   UNL     1       6.287  15.949  19.046  0.00  0.00    +0.000 A 
ATOM     15  C   UNL     1       6.812  17.236  19.223  0.00  0.00    +0.000 A 
ATOM     16  C   UNL     1       8.059  17.568  18.695  0.00  0.00    +0.000 A 
ATOM     17  C   UNL     1       8.795  16.611  17.999  0.00  0.00    +0.000 A 
ATOM     18  C   UNL     1       8.292  15.321  17.840  0.00  0.00    +0.000 A 
ATOM     19  C   UNL     1       7.036  14.990  18.352  0.00  0.00    +0.000 A 
ENDBRANCH   3  14
BRANCH   1  22
ATOM     20  C   UNL     1       1.658  12.975  20.250  0.00  0.00    +0.000 C 
ATOM     21  O   UNL     1       1.228  12.671  21.366  0.00  0.00    +0.000 OA
ATOM     22  N   UNL     1       2.771  13.730  20.050  0.00  0.00    +0.000 N 
ATOM     23  H   UNL     1       3.048  13.933  19.113  0.00  0.00    +0.000 HD
BRANCH  20  25
ATOM     24  C   UNL     1       0.097  13.566  18.388  0.00  0.00    +0.000 C 
ATOM     25  C   UNL     1       0.956  12.449  18.977  0.00  0.00    +0.000 C 
BRANCH  25  26
ATOM     26  C   UNL     1       0.141  11.140  19.209  0.00  0.00    +0.000 C 
BRANCH  26  27
ATOM     27  C   UNL     1       0.984   9.873  19.113  0.00  0.00    +0.000 A 
ATOM     28  C   UNL     1       1.729   9.559  17.966  0.00  0.00    +0.000 A 
ATOM     29  C   UNL     1       2.461   8.371  17.888  0.00  0.00    +0.000 A 
ATOM     30  C   UNL     1       2.445   7.487  18.954  0.00  0.00    +0.000 A 
ATOM     31  F   UNL     1       3.129   6.339  18.863  0.00  0.00    +0.000 F 
ATOM     32  C   UNL     1       1.717   7.779  20.095  0.00  0.00    +0.000 A 
ATOM     33  F   UNL     1       1.706   6.929  21.132  0.00  0.00    +0.000 F 
ATOM     34  C   UNL     1       0.986   8.959  20.178  0.00  0.00    +0.000 A 
ENDBRANCH  26  27
BRANCH  26  35
ATOM     35  C   UNL     1      -1.096  10.983  18.294  0.00  0.00    +0.000 C 
BRANCH  35  36
ATOM     36  O   UNL     1      -2.334  11.189  18.958  0.00  0.00    +0.000 OA
ATOM     37  H   UNL     1      -2.330  10.723  19.809  0.00  0.00    +0.000 HD
ENDBRANCH  35  36
ENDBRANCH  26  35
ENDBRANCH  25  26
ENDBRANCH  20  25
ENDBRANCH   1  22
TORSDOF 7
ENDMDL
MODEL 5
REMARK VINA RESULT:      -6.7      1.343      1.809
REMARK  Name = 
REMARK  9 active torsions:
REMARK  status: ('A' for Active; 'I' for Inactive)
REMARK    1  A    between atoms: C_1  and  C_2
REMARK    2  A    between atoms: C_2  and  C_3
REMARK    3  A    between atoms: C_2  and  C_25
REMARK    4  A    between atoms: N_5  and  C_6
REMARK    5  A    between atoms: C_8  and  C_9
REMARK    6  A    between atoms: N_21  and  C_22
REMARK    7  A    between atoms: C_25  and  C_26
REMARK    8  A    between atoms: C_25  and  C_28
REMARK    9  A    between atoms: C_26  and  O_27
REMARK                            x       y       z     vdW  Elec       q    Type
REMARK                         _______ _______ _______ _____ _____    ______ ____
ROOT
ATOM      1  C   UNL     1      -0.156  10.539  18.735  0.00  0.00    +0.000 C 
ATOM      2  N   UNL     1       0.237  11.944  18.777  0.00  0.00    +0.000 NA
ATOM      3  C   UNL     1       0.015  12.687  19.805  0.00  0.00    +0.000 C 
ATOM      4  C   UNL     1      -0.666  12.221  21.049  0.00  0.00    +0.000 A 
ATOM      5  C   UNL     1      -1.685  13.041  21.577  0.00  0.00    +0.000 A 
ATOM      6  C   UNL     1      -2.356  12.691  22.748  0.00  0.00    +0.000 A 
ATOM      7  C   UNL     1      -2.023  11.513  23.399  0.00  0.00    +0.000 A 
ATOM      8  C   UNL     1      -1.032  10.684  22.872  0.00  0.00    +0.000 A 
ATOM      9  C   UNL     1      -0.356  11.001  21.676  0.00  0.00    +0.000 A 
ATOM     10  N   UNL     1       0.552  10.049  21.141  0.00  0.00    +0.000 N 
ATOM     11  C   UNL     1       1.408   9.301  22.059  0.00  0.00    +0.000 C 
ATOM     12  C   UNL     1       0.698   9.752  19.778  0.00  0.00    +0.000 C 
ATOM     13  O   UNL     1       1.504   8.893  19.405  0.00  0.00    +0.000 OA
ENDROOT
BRANCH   3  14
ATOM     14  C   UNL     1       0.432  14.125  19.697  0.00  0.00    +0.000 A 
ATOM     15  C   UNL     1       1.483  14.589  20.498  0.00  0.00    +0.000 A 
ATOM     16  C   UNL     1       1.865  15.929  20.453  0.00  0.00    +0.000 A 
ATOM     17  C   UNL     1       1.206  16.810  19.598  0.00  0.00    +0.000 A 
ATOM     18  C   UNL     1       0.176  16.351  18.779  0.00  0.00    +0.000 A 
ATOM     19  C   UNL     1      -0.221  15.014  18.834  0.00  0.00    +0.000 A 
ENDBRANCH   3  14
BRANCH   1  22
ATOM     20  C   UNL     1      -2.494  10.880  17.926  0.00  0.00    +0.000 C 
ATOM     21  O   UNL     1      -2.176  11.429  16.867  0.00  0.00    +0.000 OA
ATOM     22  N   UNL     1      -1.596  10.454  18.854  0.00  0.00    +0.000 N 
ATOM     23  H   UNL     1      -1.938  10.015  19.683  0.00  0.00    +0.000 HD
BRANCH  20  25
ATOM     24  C   UNL     1      -4.625   9.755  17.256  0.00  0.00    +0.000 C 
ATOM     25  C   UNL     1      -3.985  10.687  18.284  0.00  0.00    +0.000 C 
BRANCH  25  26
ATOM     26  C   UNL     1      -4.769  12.026  18.432  0.00  0.00    +0.000 C 
BRANCH  26  27
ATOM     27  C   UNL     1      -5.609  12.102  19.703  0.00  0.00    +0.000 A 
ATOM     28  C   UNL     1      -6.805  11.383  19.850  0.00  0.00    +0.000 A 
ATOM     29  C   UNL     1      -7.577  11.502  21.009  0.00  0.00    +0.000 A 
ATOM     30  C   UNL     1      -7.160  12.347  22.024  0.00  0.00    +0.000 A 
ATOM     31  F   UNL     1      -7.916  12.475  23.122  0.00  0.00    +0.000 F 
ATOM     32  C   UNL     1      -5.982  13.064  21.899  0.00  0.00    +0.000 A 
ATOM     33  F   UNL     1      -5.571  13.876  22.883  0.00  0.00    +0.000 F 
ATOM     34  C   UNL     1      -5.210  12.951  20.747  0.00  0.00    +0.000 A 
ENDBRANCH  26  27
BRANCH  26  35
ATOM     35  C   UNL     1      -5.666  12.382  17.224  0.00  0.00    +0.000 C 
BRANCH  35  36
ATOM     36  O   UNL     1      -6.070  13.743  17.186  0.00  0.00    +0.000 OA
ATOM     37  H   UNL     1      -5.973  14.137  18.067  0.00  0.00    +0.000 HD
ENDBRANCH  35  36
ENDBRANCH  26  35
ENDBRANCH  25  26
ENDBRANCH  20  25
ENDBRANCH   1  22
TORSDOF 7
ENDMDL
MODEL 6
REMARK VINA RESULT:      -6.6      1.540      2.328
REMARK  Name = 
REMARK  9 active torsions:
REMARK  status: ('A' for Active; 'I' for Inactive)
REMARK    1  A    between atoms: C_1  and  C_2
REMARK    2  A    between atoms: C_2  and  C_3
REMARK    3  A    between atoms: C_2  and  C_25
REMARK    4  A    between atoms: N_5  and  C_6
REMARK    5  A    between atoms: C_8  and  C_9
REMARK    6  A    between atoms: N_21  and  C_22
REMARK    7  A    between atoms: C_25  and  C_26
REMARK    8  A    between atoms: C_25  and  C_28
REMARK    9  A    between atoms: C_26  and  O_27
REMARK                            x       y       z     vdW  Elec       q    Type
REMARK                         _______ _______ _______ _____ _____    ______ ____
ROOT
ATOM      1  C   UNL     1       0.033  10.558  18.161  0.00  0.00    +0.000 C 
ATOM      2  N   UNL     1       0.621  11.802  18.650  0.00  0.00    +0.000 NA
ATOM      3  C   UNL     1       0.703  12.074  19.905  0.00  0.00    +0.000 C 
ATOM      4  C   UNL     1       0.209  11.181  20.994  0.00  0.00    +0.000 A 
ATOM      5  C   UNL     1      -0.567  11.771  22.015  0.00  0.00    +0.000 A 
ATOM      6  C   UNL     1      -1.050  11.012  23.081  0.00  0.00    +0.000 A 
ATOM      7  C   UNL     1      -0.769   9.656  23.134  0.00  0.00    +0.000 A 
ATOM      8  C   UNL     1      -0.022   9.059  22.118  0.00  0.00    +0.000 A 
ATOM      9  C   UNL     1       0.455   9.797  21.016  0.00  0.00    +0.000 A 
ATOM     10  N   UNL     1       1.104   9.096  19.964  0.00  0.00    +0.000 N 
ATOM     11  C   UNL     1       2.002   7.995  20.302  0.00  0.00    +0.000 C 
ATOM     12  C   UNL     1       0.949   9.370  18.598  0.00  0.00    +0.000 C 
ATOM     13  O   UNL     1       1.540   8.694  17.750  0.00  0.00    +0.000 OA
ENDROOT
BRANCH   3  14
ATOM     14  C   UNL     1       1.291  13.407  20.265  0.00  0.00    +0.000 A 
ATOM     15  C   UNL     1       2.575  13.455  20.823  0.00  0.00    +0.000 A 
ATOM     16  C   UNL     1       3.131  14.674  21.210  0.00  0.00    +0.000 A 
ATOM     17  C   UNL     1       2.412  15.853  21.029  0.00  0.00    +0.000 A 
ATOM     18  C   UNL     1       1.144  15.818  20.452  0.00  0.00    +0.000 A 
ATOM     19  C   UNL     1       0.577  14.598  20.080  0.00  0.00    +0.000 A 
ENDBRANCH   3  14
BRANCH   1  22
ATOM     20  C   UNL     1      -2.396  11.068  17.888  0.00  0.00    +0.000 C 
ATOM     21  O   UNL     1      -2.265  11.721  16.850  0.00  0.00    +0.000 OA
ATOM     22  N   UNL     1      -1.356  10.510  18.564  0.00  0.00    +0.000 N 
ATOM     23  H   UNL     1      -1.549   9.993  19.396  0.00  0.00    +0.000 HD
BRANCH  20  25
ATOM     24  C   UNL     1      -4.592   9.888  17.688  0.00  0.00    +0.000 C 
ATOM     25  C   UNL     1      -3.794  10.887  18.523  0.00  0.00    +0.000 C 
BRANCH  25  26
ATOM     26  C   UNL     1      -4.562  12.228  18.730  0.00  0.00    +0.000 C 
BRANCH  26  27
ATOM     27  C   UNL     1      -4.845  12.548  20.194  0.00  0.00    +0.000 A 
ATOM     28  C   UNL     1      -3.826  12.918  21.086  0.00  0.00    +0.000 A 
ATOM     29  C   UNL     1      -4.106  13.167  22.432  0.00  0.00    +0.000 A 
ATOM     30  C   UNL     1      -5.406  13.041  22.895  0.00  0.00    +0.000 A 
ATOM     31  F   UNL     1      -5.663  13.257  24.191  0.00  0.00    +0.000 F 
ATOM     32  C   UNL     1      -6.425  12.678  22.030  0.00  0.00    +0.000 A 
ATOM     33  F   UNL     1      -7.685  12.563  22.473  0.00  0.00    +0.000 F 
ATOM     34  C   UNL     1      -6.152  12.428  20.689  0.00  0.00    +0.000 A 
ENDBRANCH  26  27
BRANCH  26  35
ATOM     35  C   UNL     1      -5.884  12.339  17.935  0.00  0.00    +0.000 C 
BRANCH  35  36
ATOM     36  O   UNL     1      -5.884  13.369  16.957  0.00  0.00    +0.000 OA
ATOM     37  H   UNL     1      -6.727  13.365  16.477  0.00  0.00    +0.000 HD
ENDBRANCH  35  36
ENDBRANCH  26  35
ENDBRANCH  25  26
ENDBRANCH  20  25
ENDBRANCH   1  22
TORSDOF 7
ENDMDL
MODEL 7
REMARK VINA RESULT:      -6.6      3.567      6.184
REMARK  Name = 
REMARK  9 active torsions:
REMARK  status: ('A' for Active; 'I' for Inactive)
REMARK    1  A    between atoms: C_1  and  C_2
REMARK    2  A    between atoms: C_2  and  C_3
REMARK    3  A    between atoms: C_2  and  C_25
REMARK    4  A    between atoms: N_5  and  C_6
REMARK    5  A    between atoms: C_8  and  C_9
REMARK    6  A    between atoms: N_21  and  C_22
REMARK    7  A    between atoms: C_25  and  C_26
REMARK    8  A    between atoms: C_25  and  C_28
REMARK    9  A    between atoms: C_26  and  O_27
REMARK                            x       y       z     vdW  Elec       q    Type
REMARK                         _______ _______ _______ _____ _____    ______ ____
ROOT
ATOM      1  C   UNL     1      -0.478  14.477  22.867  0.00  0.00    +0.000 C 
ATOM      2  N   UNL     1      -0.643  15.480  21.819  0.00  0.00    +0.000 NA
ATOM      3  C   UNL     1      -1.781  15.710  21.264  0.00  0.00    +0.000 C 
ATOM      4  C   UNL     1      -3.044  14.990  21.604  0.00  0.00    +0.000 A 
ATOM      5  C   UNL     1      -3.828  14.514  20.532  0.00  0.00    +0.000 A 
ATOM      6  C   UNL     1      -5.033  13.851  20.761  0.00  0.00    +0.000 A 
ATOM      7  C   UNL     1      -5.463  13.648  22.063  0.00  0.00    +0.000 A 
ATOM      8  C   UNL     1      -4.683  14.096  23.131  0.00  0.00    +0.000 A 
ATOM      9  C   UNL     1      -3.449  14.745  22.928  0.00  0.00    +0.000 A 
ATOM     10  N   UNL     1      -2.659  15.062  24.065  0.00  0.00    +0.000 N 
ATOM     11  C   UNL     1      -3.325  15.541  25.273  0.00  0.00    +0.000 C 
ATOM     12  C   UNL     1      -1.263  14.947  24.133  0.00  0.00    +0.000 C 
ATOM     13  O   UNL     1      -0.658  15.229  25.173  0.00  0.00    +0.000 OA
ENDROOT
BRANCH   3  14
ATOM     14  C   UNL     1      -1.799  16.737  20.170  0.00  0.00    +0.000 A 
ATOM     15  C   UNL     1      -2.829  17.686  20.146  0.00  0.00    +0.000 A 
ATOM     16  C   UNL     1      -2.899  18.626  19.118  0.00  0.00    +0.000 A 
ATOM     17  C   UNL     1      -1.932  18.631  18.116  0.00  0.00    +0.000 A 
ATOM     18  C   UNL     1      -0.889  17.706  18.145  0.00  0.00    +0.000 A 
ATOM     19  C   UNL     1      -0.826  16.753  19.163  0.00  0.00    +0.000 A 
ENDBRANCH   3  14
BRANCH   1  22
ATOM     20  C   UNL     1       0.013  12.405  21.564  0.00  0.00    +0.000 C 
ATOM     21  O   UNL     1       1.147  12.747  21.216  0.00  0.00    +0.000 OA
ATOM     22  N   UNL     1      -0.808  13.176  22.323  0.00  0.00    +0.000 N 
ATOM     23  H   UNL     1      -1.710  12.822  22.564  0.00  0.00    +0.000 HD
BRANCH  20  25
ATOM     24  C   UNL     1      -0.117   9.956  22.056  0.00  0.00    +0.000 C 
ATOM     25  C   UNL     1      -0.568  11.052  21.093  0.00  0.00    +0.000 C 
BRANCH  25  26
ATOM     26  C   UNL     1      -0.229  10.709  19.611  0.00  0.00    +0.000 C 
BRANCH  26  27
ATOM     27  C   UNL     1      -1.432  10.787  18.677  0.00  0.00    +0.000 A 
ATOM     28  C   UNL     1      -2.570  11.548  18.989  0.00  0.00    +0.000 A 
ATOM     29  C   UNL     1      -3.676  11.570  18.134  0.00  0.00    +0.000 A 
ATOM     30  C   UNL     1      -3.652  10.826  16.966  0.00  0.00    +0.000 A 
ATOM     31  F   UNL     1      -4.724  10.833  16.163  0.00  0.00    +0.000 F 
ATOM     32  C   UNL     1      -2.538  10.071  16.640  0.00  0.00    +0.000 A 
ATOM     33  F   UNL     1      -2.509   9.356  15.506  0.00  0.00    +0.000 F 
ATOM     34  C   UNL     1      -1.435  10.043  17.487  0.00  0.00    +0.000 A 
ENDBRANCH  26  27
BRANCH  26  35
ATOM     35  C   UNL     1       0.464   9.341  19.411  0.00  0.00    +0.000 C 
BRANCH  35  36
ATOM     36  O   UNL     1       1.711   9.419  18.735  0.00  0.00    +0.000 OA
ATOM     37  H   UNL     1       1.769   8.712  18.074  0.00  0.00    +0.000 HD
ENDBRANCH  35  36
ENDBRANCH  26  35
ENDBRANCH  25  26
ENDBRANCH  20  25
ENDBRANCH   1  22
TORSDOF 7
ENDMDL
MODEL 8
REMARK VINA RESULT:      -6.5      3.764      6.536
REMARK  Name = 
REMARK  9 active torsions:
REMARK  status: ('A' for Active; 'I' for Inactive)
REMARK    1  A    between atoms: C_1  and  C_2
REMARK    2  A    between atoms: C_2  and  C_3
REMARK    3  A    between atoms: C_2  and  C_25
REMARK    4  A    between atoms: N_5  and  C_6
REMARK    5  A    between atoms: C_8  and  C_9
REMARK    6  A    between atoms: N_21  and  C_22
REMARK    7  A    between atoms: C_25  and  C_26
REMARK    8  A    between atoms: C_25  and  C_28
REMARK    9  A    between atoms: C_26  and  O_27
REMARK                            x       y       z     vdW  Elec       q    Type
REMARK                         _______ _______ _______ _____ _____    ______ ____
ROOT
ATOM      1  C   UNL     1      -2.192  12.315  21.785  0.00  0.00    +0.000 C 
ATOM      2  N   UNL     1      -2.690  11.853  20.493  0.00  0.00    +0.000 NA
ATOM      3  C   UNL     1      -1.943  11.812  19.446  0.00  0.00    +0.000 C 
ATOM      4  C   UNL     1      -0.511  12.233  19.417  0.00  0.00    +0.000 A 
ATOM      5  C   UNL     1      -0.103  13.074  18.359  0.00  0.00    +0.000 A 
ATOM      6  C   UNL     1       1.221  13.495  18.244  0.00  0.00    +0.000 A 
ATOM      7  C   UNL     1       2.150  13.089  19.189  0.00  0.00    +0.000 A 
ATOM      8  C   UNL     1       1.752  12.276  20.252  0.00  0.00    +0.000 A 
ATOM      9  C   UNL     1       0.415  11.857  20.406  0.00  0.00    +0.000 A 
ATOM     10  N   UNL     1       0.065  11.133  21.577  0.00  0.00    +0.000 N 
ATOM     11  C   UNL     1       1.001  10.138  22.095  0.00  0.00    +0.000 C 
ATOM     12  C   UNL     1      -1.125  11.297  22.300  0.00  0.00    +0.000 C 
ATOM     13  O   UNL     1      -1.337  10.634  23.321  0.00  0.00    +0.000 OA
ENDROOT
BRANCH   3  14
ATOM     14  C   UNL     1      -2.595  11.357  18.173  0.00  0.00    +0.000 A 
ATOM     15  C   UNL     1      -3.879  11.825  17.863  0.00  0.00    +0.000 A 
ATOM     16  C   UNL     1      -4.530  11.386  16.711  0.00  0.00    +0.000 A 
ATOM     17  C   UNL     1      -3.897  10.488  15.855  0.00  0.00    +0.000 A 
ATOM     18  C   UNL     1      -2.610  10.036  16.143  0.00  0.00    +0.000 A 
ATOM     19  C   UNL     1      -1.962  10.459  17.304  0.00  0.00    +0.000 A 
ENDBRANCH   3  14
BRANCH   1  22
ATOM     20  C   UNL     1      -2.555  14.779  21.956  0.00  0.00    +0.000 C 
ATOM     21  O   UNL     1      -3.725  14.702  22.340  0.00  0.00    +0.000 OA
ATOM     22  N   UNL     1      -1.785  13.699  21.660  0.00  0.00    +0.000 N 
ATOM     23  H   UNL     1      -0.845  13.849  21.359  0.00  0.00    +0.000 HD
BRANCH  20  25
ATOM     24  C   UNL     1      -2.687  17.214  22.511  0.00  0.00    +0.000 C 
ATOM     25  C   UNL     1      -1.899  16.161  21.734  0.00  0.00    +0.000 C 
BRANCH  25  26
ATOM     26  C   UNL     1      -1.735  16.540  20.230  0.00  0.00    +0.000 C 
BRANCH  26  27
ATOM     27  C   UNL     1      -0.282  16.703  19.798  0.00  0.00    +0.000 A 
ATOM     28  C   UNL     1       0.069  17.109  18.501  0.00  0.00    +0.000 A 
ATOM     29  C   UNL     1       1.410  17.211  18.119  0.00  0.00    +0.000 A 
ATOM     30  C   UNL     1       2.406  16.901  19.029  0.00  0.00    +0.000 A 
ATOM     31  F   UNL     1       3.688  16.978  18.649  0.00  0.00    +0.000 F 
ATOM     32  C   UNL     1       2.080  16.500  20.314  0.00  0.00    +0.000 A 
ATOM     33  F   UNL     1       3.042  16.207  21.201  0.00  0.00    +0.000 F 
ATOM     34  C   UNL     1       0.748  16.395  20.700  0.00  0.00    +0.000 A 
ENDBRANCH  26  27
BRANCH  26  35
ATOM     35  C   UNL     1      -2.524  17.797  19.796  0.00  0.00    +0.000 C 
BRANCH  35  36
ATOM     36  O   UNL     1      -3.715  17.510  19.076  0.00  0.00    +0.000 OA
ATOM     37  H   UNL     1      -4.437  17.327  19.697  0.00  0.00    +0.000 HD
ENDBRANCH  35  36
ENDBRANCH  26  35
ENDBRANCH  25  26
ENDBRANCH  20  25
ENDBRANCH   1  22
TORSDOF 7
ENDMDL
MODEL 9
REMARK VINA RESULT:      -6.5      3.736      6.772
REMARK  Name = 
REMARK  9 active torsions:
REMARK  status: ('A' for Active; 'I' for Inactive)
REMARK    1  A    between atoms: C_1  and  C_2
REMARK    2  A    between atoms: C_2  and  C_3
REMARK    3  A    between atoms: C_2  and  C_25
REMARK    4  A    between atoms: N_5  and  C_6
REMARK    5  A    between atoms: C_8  and  C_9
REMARK    6  A    between atoms: N_21  and  C_22
REMARK    7  A    between atoms: C_25  and  C_26
REMARK    8  A    between atoms: C_25  and  C_28
REMARK    9  A    between atoms: C_26  and  O_27
REMARK                            x       y       z     vdW  Elec       q    Type
REMARK                         _______ _______ _______ _____ _____    ______ ____
ROOT
ATOM      1  C   UNL     1      -3.176  13.095  21.637  0.00  0.00    +0.000 C 
ATOM      2  N   UNL     1      -3.462  12.476  20.346  0.00  0.00    +0.000 NA
ATOM      3  C   UNL     1      -2.528  12.127  19.531  0.00  0.00    +0.000 C 
ATOM      4  C   UNL     1      -1.071  12.317  19.791  0.00  0.00    +0.000 A 
ATOM      5  C   UNL     1      -0.293  12.872  18.752  0.00  0.00    +0.000 A 
ATOM      6  C   UNL     1       1.080  13.062  18.904  0.00  0.00    +0.000 A 
ATOM      7  C   UNL     1       1.689  12.708  20.097  0.00  0.00    +0.000 A 
ATOM      8  C   UNL     1       0.925  12.179  21.139  0.00  0.00    +0.000 A 
ATOM      9  C   UNL     1      -0.468  12.001  21.022  0.00  0.00    +0.000 A 
ATOM     10  N   UNL     1      -1.192  11.572  22.166  0.00  0.00    +0.000 N 
ATOM     11  C   UNL     1      -0.595  10.565  23.040  0.00  0.00    +0.000 C 
ATOM     12  C   UNL     1      -2.458  12.045  22.543  0.00  0.00    +0.000 C 
ATOM     13  O   UNL     1      -3.006  11.626  23.568  0.00  0.00    +0.000 OA
ENDROOT
BRANCH   3  14
ATOM     14  C   UNL     1      -2.966  11.542  18.220  0.00  0.00    +0.000 A 
ATOM     15  C   UNL     1      -2.029  10.855  17.437  0.00  0.00    +0.000 A 
ATOM     16  C   UNL     1      -2.393  10.339  16.194  0.00  0.00    +0.000 A 
ATOM     17  C   UNL     1      -3.698  10.495  15.733  0.00  0.00    +0.000 A 
ATOM     18  C   UNL     1      -4.643  11.155  16.516  0.00  0.00    +0.000 A 
ATOM     19  C   UNL     1      -4.278  11.689  17.753  0.00  0.00    +0.000 A 
ENDBRANCH   3  14
BRANCH   1  22
ATOM     20  C   UNL     1      -2.298  15.323  22.342  0.00  0.00    +0.000 C 
ATOM     21  O   UNL     1      -2.712  15.254  23.502  0.00  0.00    +0.000 OA
ATOM     22  N   UNL     1      -2.497  14.354  21.410  0.00  0.00    +0.000 N 
ATOM     23  H   UNL     1      -2.125  14.487  20.494  0.00  0.00    +0.000 HD
BRANCH  20  25
ATOM     24  C   UNL     1      -2.280  17.824  22.375  0.00  0.00    +0.000 C 
ATOM     25  C   UNL     1      -1.550  16.586  21.858  0.00  0.00    +0.000 C 
BRANCH  25  26
ATOM     26  C   UNL     1      -1.335  16.632  20.315  0.00  0.00    +0.000 C 
BRANCH  26  27
ATOM     27  C   UNL     1       0.132  16.577  19.902  0.00  0.00    +0.000 A 
ATOM     28  C   UNL     1       0.541  16.786  18.576  0.00  0.00    +0.000 A 
ATOM     29  C   UNL     1       1.889  16.690  18.217  0.00  0.00    +0.000 A 
ATOM     30  C   UNL     1       2.833  16.378  19.181  0.00  0.00    +0.000 A 
ATOM     31  F   UNL     1       4.119  16.264  18.825  0.00  0.00    +0.000 F 
ATOM     32  C   UNL     1       2.449  16.170  20.495  0.00  0.00    +0.000 A 
ATOM     33  F   UNL     1       3.361  15.875  21.432  0.00  0.00    +0.000 F 
ATOM     34  C   UNL     1       1.110  16.262  20.858  0.00  0.00    +0.000 A 
ENDBRANCH  26  27
BRANCH  26  35
ATOM     35  C   UNL     1      -2.003  17.835  19.609  0.00  0.00    +0.000 C 
BRANCH  35  36
ATOM     36  O   UNL     1      -3.270  17.538  19.040  0.00  0.00    +0.000 OA
ATOM     37  H   UNL     1      -3.310  16.599  18.802  0.00  0.00    +0.000 HD
ENDBRANCH  35  36
ENDBRANCH  26  35
ENDBRANCH  25  26
ENDBRANCH  20  25
ENDBRANCH   1  22
TORSDOF 7
ENDMDL
