MODEL 1
REMARK VINA RESULT:      -7.6      0.000      0.000
REMARK  Name = 
REMARK  4 active torsions:
REMARK  status: ('A' for Active; 'I' for Inactive)
REMARK    1  A    between atoms: C_1  and  C_2
REMARK    2  A    between atoms: C_7  and  C_9
REMARK    3  A    between atoms: CA_14  and  C_15
REMARK    4  A    between atoms: C_15  and  OXT_17
REMARK                            x       y       z     vdW  Elec       q    Type
REMARK                         _______ _______ _______ _____ _____    ______ ____
ROOT
ATOM      1  C   UNL     1      -0.088  10.167  20.744  0.00  0.00    +0.000 C 
ATOM      2  C   UNL     1       0.823   9.310  19.925  0.00  0.00    +0.000 A 
ATOM      3  C   UNL     1       1.055   9.552  18.573  0.00  0.00    +0.000 A 
ATOM      4  C   UNL     1       1.939   8.733  17.870  0.00  0.00    +0.000 A 
ATOM      5  C   UNL     1       2.577   7.688  18.535  0.00  0.00    +0.000 A 
ATOM      6  N   UNL     1       3.511   6.934  17.805  0.00  0.00    +0.000 N 
ATOM      7  C   UNL     1       4.220   5.859  18.285  0.00  0.00    +0.000 C 
ATOM      8  O   UNL     1       4.109   5.354  19.399  0.00  0.00    +0.000 OA
ATOM      9  N   UNL     1       2.342   7.427  19.831  0.00  0.00    +0.000 NA
ATOM     10  C   UNL     1       1.474   8.224  20.492  0.00  0.00    +0.000 A 
ATOM     11  H   UNL     1       3.596   7.196  16.827  0.00  0.00    +0.000 HD
ENDROOT
BRANCH   7  12
ATOM     12  C   UNL     1       5.278   5.266  17.415  0.00  0.00    +0.000 A 
ATOM     13  C   UNL     1       4.816   4.623  16.249  0.00  0.00    +0.000 A 
ATOM     14  C   UNL     1       5.702   4.062  15.331  0.00  0.00    +0.000 A 
ATOM     15  C   UNL     1       7.054   4.182  15.576  0.00  0.00    +0.000 A 
ATOM     16  N   UNL     1       7.560   4.826  16.650  0.00  0.00    +0.000 NA
ATOM     17  CA  UNL     1       6.660   5.333  17.565  0.00  0.00    +0.000 A 
BRANCH  17  18
ATOM     18  C   UNL     1       7.364   5.986  18.710  0.00  0.00    +0.000 C 
ATOM     19  O   UNL     1       8.045   6.994  18.647  0.00  0.00    +0.000 OA
BRANCH  18  20
ATOM     20  OXT UNL     1       7.097   5.339  19.871  0.00  0.00    +0.000 OA
ATOM     21  HXT UNL     1       7.180   4.365  19.726  0.00  0.00    +0.000 HD
ENDBRANCH  18  20
ENDBRANCH  17  18
ENDBRANCH   7  12
TORSDOF 3
ENDMDL
MODEL 2
REMARK VINA RESULT:      -7.2      1.133      1.438
REMARK  Name = 
REMARK  4 active torsions:
REMARK  status: ('A' for Active; 'I' for Inactive)
REMARK    1  A    between atoms: C_1  and  C_2
REMARK    2  A    between atoms: C_7  and  C_9
REMARK    3  A    between atoms: CA_14  and  C_15
REMARK    4  A    between atoms: C_15  and  OXT_17
REMARK                            x       y       z     vdW  Elec       q    Type
REMARK                         _______ _______ _______ _____ _____    ______ ____
ROOT
ATOM      1  C   UNL     1       0.284   8.518  21.795  0.00  0.00    +0.000 C 
ATOM      2  C   UNL     1       1.151   8.049  20.671  0.00  0.00    +0.000 A 
ATOM      3  C   UNL     1       1.443   8.854  19.571  0.00  0.00    +0.000 A 
ATOM      4  C   UNL     1       2.281   8.367  18.568  0.00  0.00    +0.000 A 
ATOM      5  C   UNL     1       2.817   7.087  18.686  0.00  0.00    +0.000 A 
ATOM      6  N   UNL     1       3.712   6.667  17.689  0.00  0.00    +0.000 N 
ATOM      7  C   UNL     1       4.322   5.437  17.627  0.00  0.00    +0.000 C 
ATOM      8  O   UNL     1       4.138   4.496  18.395  0.00  0.00    +0.000 OA
ATOM      9  N   UNL     1       2.523   6.292  19.728  0.00  0.00    +0.000 NA
ATOM     10  C   UNL     1       1.698   6.774  20.683  0.00  0.00    +0.000 A 
ATOM     11  H   UNL     1       3.846   7.333  16.933  0.00  0.00    +0.000 HD
ENDROOT
BRANCH   7  12
ATOM     12  C   UNL     1       5.357   5.214  16.575  0.00  0.00    +0.000 A 
ATOM     13  C   UNL     1       4.950   4.428  15.479  0.00  0.00    +0.000 A 
ATOM     14  C   UNL     1       5.807   4.176  14.409  0.00  0.00    +0.000 A 
ATOM     15  C   UNL     1       7.063   4.747  14.434  0.00  0.00    +0.000 A 
ATOM     16  N   UNL     1       7.495   5.546  15.433  0.00  0.00    +0.000 NA
ATOM     17  CA  UNL     1       6.642   5.742  16.501  0.00  0.00    +0.000 A 
BRANCH  17  18
ATOM     18  C   UNL     1       7.267   6.618  17.537  0.00  0.00    +0.000 C 
ATOM     19  O   UNL     1       7.538   6.289  18.679  0.00  0.00    +0.000 OA
BRANCH  18  20
ATOM     20  OXT UNL     1       7.562   7.837  17.023  0.00  0.00    +0.000 OA
ATOM     21  HXT UNL     1       7.859   7.731  16.087  0.00  0.00    +0.000 HD
ENDBRANCH  18  20
ENDBRANCH  17  18
ENDBRANCH   7  12
TORSDOF 3
ENDMDL
MODEL 3
REMARK VINA RESULT:      -7.2      3.371      4.099
REMARK  Name = 
REMARK  4 active torsions:
REMARK  status: ('A' for Active; 'I' for Inactive)
REMARK    1  A    between atoms: C_1  and  C_2
REMARK    2  A    between atoms: C_7  and  C_9
REMARK    3  A    between atoms: CA_14  and  C_15
REMARK    4  A    between atoms: C_15  and  OXT_17
REMARK                            x       y       z     vdW  Elec       q    Type
REMARK                         _______ _______ _______ _____ _____    ______ ____
ROOT
ATOM      1  C   UNL     1       1.128   2.495  22.263  0.00  0.00    +0.000 C 
ATOM      2  C   UNL     1       2.156   2.835  21.232  0.00  0.00    +0.000 A 
ATOM      3  C   UNL     1       3.370   2.158  21.140  0.00  0.00    +0.000 A 
ATOM      4  C   UNL     1       4.275   2.505  20.137  0.00  0.00    +0.000 A 
ATOM      5  C   UNL     1       3.947   3.519  19.241  0.00  0.00    +0.000 A 
ATOM      6  N   UNL     1       4.857   3.785  18.205  0.00  0.00    +0.000 N 
ATOM      7  C   UNL     1       4.714   4.758  17.244  0.00  0.00    +0.000 C 
ATOM      8  O   UNL     1       3.804   5.580  17.172  0.00  0.00    +0.000 OA
ATOM      9  N   UNL     1       2.792   4.198  19.334  0.00  0.00    +0.000 NA
ATOM     10  C   UNL     1       1.933   3.857  20.320  0.00  0.00    +0.000 A 
ATOM     11  H   UNL     1       5.711   3.235  18.239  0.00  0.00    +0.000 HD
ENDROOT
BRANCH   7  12
ATOM     12  C   UNL     1       5.709   4.804  16.132  0.00  0.00    +0.000 A 
ATOM     13  C   UNL     1       5.388   4.032  14.998  0.00  0.00    +0.000 A 
ATOM     14  C   UNL     1       6.212   4.018  13.874  0.00  0.00    +0.000 A 
ATOM     15  C   UNL     1       7.341   4.810  13.886  0.00  0.00    +0.000 A 
ATOM     16  N   UNL     1       7.679   5.606  14.923  0.00  0.00    +0.000 NA
ATOM     17  CA  UNL     1       6.869   5.566  16.040  0.00  0.00    +0.000 A 
BRANCH  17  18
ATOM     18  C   UNL     1       7.384   6.471  17.113  0.00  0.00    +0.000 C 
ATOM     19  O   UNL     1       7.380   7.689  17.081  0.00  0.00    +0.000 OA
BRANCH  18  20
ATOM     20  OXT UNL     1       7.812   5.754  18.181  0.00  0.00    +0.000 OA
ATOM     21  HXT UNL     1       8.799   5.717  18.172  0.00  0.00    +0.000 HD
ENDBRANCH  18  20
ENDBRANCH  17  18
ENDBRANCH   7  12
TORSDOF 3
ENDMDL
MODEL 4
REMARK VINA RESULT:      -7.2      3.901      6.653
REMARK  Name = 
REMARK  4 active torsions:
REMARK  status: ('A' for Active; 'I' for Inactive)
REMARK    1  A    between atoms: C_1  and  C_2
REMARK    2  A    between atoms: C_7  and  C_9
REMARK    3  A    between atoms: CA_14  and  C_15
REMARK    4  A    between atoms: C_15  and  OXT_17
REMARK                            x       y       z     vdW  Elec       q    Type
REMARK                         _______ _______ _______ _____ _____    ______ ____
ROOT
ATOM      1  C   UNL     1       7.746   5.260  13.042  0.00  0.00    +0.000 C 
ATOM      2  C   UNL     1       7.059   4.869  14.311  0.00  0.00    +0.000 A 
ATOM      3  C   UNL     1       7.689   4.941  15.551  0.00  0.00    +0.000 A 
ATOM      4  C   UNL     1       6.984   4.587  16.702  0.00  0.00    +0.000 A 
ATOM      5  C   UNL     1       5.659   4.173  16.590  0.00  0.00    +0.000 A 
ATOM      6  N   UNL     1       4.967   3.895  17.781  0.00  0.00    +0.000 N 
ATOM      7  C   UNL     1       3.667   3.457  17.867  0.00  0.00    +0.000 C 
ATOM      8  O   UNL     1       2.928   3.185  16.924  0.00  0.00    +0.000 OA
ATOM      9  N   UNL     1       5.048   4.073  15.398  0.00  0.00    +0.000 NA
ATOM     10  C   UNL     1       5.751   4.407  14.294  0.00  0.00    +0.000 A 
ATOM     11  H   UNL     1       5.527   3.976  18.624  0.00  0.00    +0.000 HD
ENDROOT
BRANCH   7  12
ATOM     12  C   UNL     1       3.045   3.353  19.220  0.00  0.00    +0.000 A 
ATOM     13  C   UNL     1       1.881   4.122  19.414  0.00  0.00    +0.000 A 
ATOM     14  C   UNL     1       1.179   4.084  20.618  0.00  0.00    +0.000 A 
ATOM     15  C   UNL     1       1.639   3.245  21.611  0.00  0.00    +0.000 A 
ATOM     16  N   UNL     1       2.721   2.450  21.470  0.00  0.00    +0.000 NA
ATOM     17  CA  UNL     1       3.421   2.540  20.284  0.00  0.00    +0.000 A 
BRANCH  17  18
ATOM     18  C   UNL     1       4.606   1.629  20.287  0.00  0.00    +0.000 C 
ATOM     19  O   UNL     1       5.425   1.527  21.184  0.00  0.00    +0.000 OA
BRANCH  18  20
ATOM     20  OXT UNL     1       4.628   0.865  19.168  0.00  0.00    +0.000 OA
ATOM     21  HXT UNL     1       5.505   0.963  18.725  0.00  0.00    +0.000 HD
ENDBRANCH  18  20
ENDBRANCH  17  18
ENDBRANCH   7  12
TORSDOF 3
ENDMDL
MODEL 5
REMARK VINA RESULT:      -7.2      3.188      6.475
REMARK  Name = 
REMARK  4 active torsions:
REMARK  status: ('A' for Active; 'I' for Inactive)
REMARK    1  A    between atoms: C_1  and  C_2
REMARK    2  A    between atoms: C_7  and  C_9
REMARK    3  A    between atoms: CA_14  and  C_15
REMARK    4  A    between atoms: C_15  and  OXT_17
REMARK                            x       y       z     vdW  Elec       q    Type
REMARK                         _______ _______ _______ _____ _____    ______ ____
ROOT
ATOM      1  C   UNL     1       8.061   5.163  13.232  0.00  0.00    +0.000 C 
ATOM      2  C   UNL     1       7.035   4.891  14.285  0.00  0.00    +0.000 A 
ATOM      3  C   UNL     1       5.957   4.034  14.071  0.00  0.00    +0.000 A 
ATOM      4  C   UNL     1       5.049   3.801  15.104  0.00  0.00    +0.000 A 
ATOM      5  C   UNL     1       5.238   4.427  16.334  0.00  0.00    +0.000 A 
ATOM      6  N   UNL     1       4.340   4.107  17.366  0.00  0.00    +0.000 N 
ATOM      7  C   UNL     1       4.357   4.636  18.634  0.00  0.00    +0.000 C 
ATOM      8  O   UNL     1       5.118   5.509  19.046  0.00  0.00    +0.000 OA
ATOM      9  N   UNL     1       6.258   5.275  16.546  0.00  0.00    +0.000 NA
ATOM     10  C   UNL     1       7.120   5.499  15.530  0.00  0.00    +0.000 A 
ATOM     11  H   UNL     1       3.592   3.476  17.095  0.00  0.00    +0.000 HD
ENDROOT
BRANCH   7  12
ATOM     12  C   UNL     1       3.416   4.074  19.647  0.00  0.00    +0.000 A 
ATOM     13  C   UNL     1       2.267   4.848  19.904  0.00  0.00    +0.000 A 
ATOM     14  C   UNL     1       1.288   4.417  20.798  0.00  0.00    +0.000 A 
ATOM     15  C   UNL     1       1.458   3.190  21.405  0.00  0.00    +0.000 A 
ATOM     16  N   UNL     1       2.513   2.383  21.166  0.00  0.00    +0.000 NA
ATOM     17  CA  UNL     1       3.488   2.853  20.310  0.00  0.00    +0.000 A 
BRANCH  17  18
ATOM     18  C   UNL     1       4.603   1.868  20.169  0.00  0.00    +0.000 C 
ATOM     19  O   UNL     1       5.433   1.603  21.022  0.00  0.00    +0.000 OA
BRANCH  18  20
ATOM     20  OXT UNL     1       4.543   1.243  18.968  0.00  0.00    +0.000 OA
ATOM     21  HXT UNL     1       5.423   1.309  18.523  0.00  0.00    +0.000 HD
ENDBRANCH  18  20
ENDBRANCH  17  18
ENDBRANCH   7  12
TORSDOF 3
ENDMDL
MODEL 6
REMARK VINA RESULT:      -7.0      2.256      3.131
REMARK  Name = 
REMARK  4 active torsions:
REMARK  status: ('A' for Active; 'I' for Inactive)
REMARK    1  A    between atoms: C_1  and  C_2
REMARK    2  A    between atoms: C_7  and  C_9
REMARK    3  A    between atoms: CA_14  and  C_15
REMARK    4  A    between atoms: C_15  and  OXT_17
REMARK                            x       y       z     vdW  Elec       q    Type
REMARK                         _______ _______ _______ _____ _____    ______ ____
ROOT
ATOM      1  C   UNL     1      -0.428  11.900  20.002  0.00  0.00    +0.000 C 
ATOM      2  C   UNL     1       0.316  10.610  20.134  0.00  0.00    +0.000 A 
ATOM      3  C   UNL     1       0.395   9.917  21.340  0.00  0.00    +0.000 A 
ATOM      4  C   UNL     1       1.081   8.703  21.391  0.00  0.00    +0.000 A 
ATOM      5  C   UNL     1       1.670   8.203  20.233  0.00  0.00    +0.000 A 
ATOM      6  N   UNL     1       2.288   6.943  20.316  0.00  0.00    +0.000 N 
ATOM      7  C   UNL     1       2.936   6.301  19.288  0.00  0.00    +0.000 C 
ATOM      8  O   UNL     1       3.126   6.747  18.158  0.00  0.00    +0.000 OA
ATOM      9  N   UNL     1       1.624   8.872  19.070  0.00  0.00    +0.000 NA
ATOM     10  C   UNL     1       0.966  10.052  19.043  0.00  0.00    +0.000 A 
ATOM     11  H   UNL     1       2.291   6.533  21.245  0.00  0.00    +0.000 HD
ENDROOT
BRANCH   7  12
ATOM     12  C   UNL     1       3.408   4.903  19.514  0.00  0.00    +0.000 A 
ATOM     13  C   UNL     1       2.400   3.962  19.803  0.00  0.00    +0.000 A 
ATOM     14  C   UNL     1       2.701   2.615  19.996  0.00  0.00    +0.000 A 
ATOM     15  C   UNL     1       4.016   2.217  19.865  0.00  0.00    +0.000 A 
ATOM     16  N   UNL     1       5.019   3.063  19.545  0.00  0.00    +0.000 NA
ATOM     17  CA  UNL     1       4.699   4.398  19.402  0.00  0.00    +0.000 A 
BRANCH  17  18
ATOM     18  C   UNL     1       5.911   5.212  19.082  0.00  0.00    +0.000 C 
ATOM     19  O   UNL     1       6.821   5.468  19.850  0.00  0.00    +0.000 OA
BRANCH  18  20
ATOM     20  OXT UNL     1       5.906   5.589  17.780  0.00  0.00    +0.000 OA
ATOM     21  HXT UNL     1       5.107   6.144  17.606  0.00  0.00    +0.000 HD
ENDBRANCH  18  20
ENDBRANCH  17  18
ENDBRANCH   7  12
TORSDOF 3
ENDMDL
MODEL 7
REMARK VINA RESULT:      -6.9      2.416      3.296
REMARK  Name = 
REMARK  4 active torsions:
REMARK  status: ('A' for Active; 'I' for Inactive)
REMARK    1  A    between atoms: C_1  and  C_2
REMARK    2  A    between atoms: C_7  and  C_9
REMARK    3  A    between atoms: CA_14  and  C_15
REMARK    4  A    between atoms: C_15  and  OXT_17
REMARK                            x       y       z     vdW  Elec       q    Type
REMARK                         _______ _______ _______ _____ _____    ______ ____
ROOT
ATOM      1  C   UNL     1       0.177  11.904  20.900  0.00  0.00    +0.000 C 
ATOM      2  C   UNL     1       0.703  10.512  20.759  0.00  0.00    +0.000 A 
ATOM      3  C   UNL     1       0.788   9.636  21.839  0.00  0.00    +0.000 A 
ATOM      4  C   UNL     1       1.262   8.340  21.636  0.00  0.00    +0.000 A 
ATOM      5  C   UNL     1       1.638   7.943  20.355  0.00  0.00    +0.000 A 
ATOM      6  N   UNL     1       2.042   6.608  20.185  0.00  0.00    +0.000 N 
ATOM      7  C   UNL     1       2.465   6.044  19.005  0.00  0.00    +0.000 C 
ATOM      8  O   UNL     1       2.611   6.626  17.933  0.00  0.00    +0.000 OA
ATOM      9  N   UNL     1       1.586   8.785  19.310  0.00  0.00    +0.000 NA
ATOM     10  C   UNL     1       1.137  10.040  19.528  0.00  0.00    +0.000 A 
ATOM     11  H   UNL     1       2.071   6.062  21.041  0.00  0.00    +0.000 HD
ENDROOT
BRANCH   7  12
ATOM     12  C   UNL     1       2.717   4.573  18.976  0.00  0.00    +0.000 A 
ATOM     13  C   UNL     1       1.569   3.762  18.876  0.00  0.00    +0.000 A 
ATOM     14  C   UNL     1       1.667   2.374  18.799  0.00  0.00    +0.000 A 
ATOM     15  C   UNL     1       2.926   1.810  18.791  0.00  0.00    +0.000 A 
ATOM     16  N   UNL     1       4.064   2.536  18.838  0.00  0.00    +0.000 NA
ATOM     17  CA  UNL     1       3.937   3.905  18.958  0.00  0.00    +0.000 A 
BRANCH  17  18
ATOM     18  C   UNL     1       5.275   4.566  19.031  0.00  0.00    +0.000 C 
ATOM     19  O   UNL     1       5.544   5.560  19.683  0.00  0.00    +0.000 OA
BRANCH  18  20
ATOM     20  OXT UNL     1       6.194   3.874  18.315  0.00  0.00    +0.000 OA
ATOM     21  HXT UNL     1       6.678   3.259  18.917  0.00  0.00    +0.000 HD
ENDBRANCH  18  20
ENDBRANCH  17  18
ENDBRANCH   7  12
TORSDOF 3
ENDMDL
MODEL 8
REMARK VINA RESULT:      -6.8      2.656      3.945
REMARK  Name = 
REMARK  4 active torsions:
REMARK  status: ('A' for Active; 'I' for Inactive)
REMARK    1  A    between atoms: C_1  and  C_2
REMARK    2  A    between atoms: C_7  and  C_9
REMARK    3  A    between atoms: CA_14  and  C_15
REMARK    4  A    between atoms: C_15  and  OXT_17
REMARK                            x       y       z     vdW  Elec       q    Type
REMARK                         _______ _______ _______ _____ _____    ______ ____
ROOT
ATOM      1  C   UNL     1      -1.530  11.456  22.928  0.00  0.00    +0.000 C 
ATOM      2  C   UNL     1      -0.562  10.528  22.267  0.00  0.00    +0.000 A 
ATOM      3  C   UNL     1       0.206   9.616  22.988  0.00  0.00    +0.000 A 
ATOM      4  C   UNL     1       1.070   8.757  22.308  0.00  0.00    +0.000 A 
ATOM      5  C   UNL     1       1.148   8.824  20.920  0.00  0.00    +0.000 A 
ATOM      6  N   UNL     1       1.978   7.893  20.273  0.00  0.00    +0.000 N 
ATOM      7  C   UNL     1       2.195   7.819  18.918  0.00  0.00    +0.000 C 
ATOM      8  O   UNL     1       1.746   8.585  18.068  0.00  0.00    +0.000 OA
ATOM      9  N   UNL     1       0.433   9.716  20.214  0.00  0.00    +0.000 NA
ATOM     10  C   UNL     1      -0.389  10.548  20.890  0.00  0.00    +0.000 A 
ATOM     11  H   UNL     1       2.493   7.280  20.898  0.00  0.00    +0.000 HD
ENDROOT
BRANCH   7  12
ATOM     12  C   UNL     1       2.994   6.674  18.392  0.00  0.00    +0.000 A 
ATOM     13  C   UNL     1       3.943   6.999  17.403  0.00  0.00    +0.000 A 
ATOM     14  C   UNL     1       4.783   6.030  16.857  0.00  0.00    +0.000 A 
ATOM     15  C   UNL     1       4.683   4.740  17.335  0.00  0.00    +0.000 A 
ATOM     16  N   UNL     1       3.826   4.375  18.313  0.00  0.00    +0.000 NA
ATOM     17  CA  UNL     1       2.977   5.345  18.804  0.00  0.00    +0.000 A 
BRANCH  17  18
ATOM     18  C   UNL     1       2.069   4.788  19.853  0.00  0.00    +0.000 C 
ATOM     19  O   UNL     1       1.073   4.116  19.649  0.00  0.00    +0.000 OA
BRANCH  18  20
ATOM     20  OXT UNL     1       2.534   5.074  21.093  0.00  0.00    +0.000 OA
ATOM     21  HXT UNL     1       2.508   4.256  21.646  0.00  0.00    +0.000 HD
ENDBRANCH  18  20
ENDBRANCH  17  18
ENDBRANCH   7  12
TORSDOF 3
ENDMDL
MODEL 9
REMARK VINA RESULT:      -6.7      2.674      3.846
REMARK  Name = 
REMARK  4 active torsions:
REMARK  status: ('A' for Active; 'I' for Inactive)
REMARK    1  A    between atoms: C_1  and  C_2
REMARK    2  A    between atoms: C_7  and  C_9
REMARK    3  A    between atoms: CA_14  and  C_15
REMARK    4  A    between atoms: C_15  and  OXT_17
REMARK                            x       y       z     vdW  Elec       q    Type
REMARK                         _______ _______ _______ _____ _____    ______ ____
ROOT
ATOM      1  C   UNL     1      -1.274  10.972  22.893  0.00  0.00    +0.000 C 
ATOM      2  C   UNL     1      -0.302  10.131  22.130  0.00  0.00    +0.000 A 
ATOM      3  C   UNL     1       0.599   9.276  22.762  0.00  0.00    +0.000 A 
ATOM      4  C   UNL     1       1.461   8.496  21.991  0.00  0.00    +0.000 A 
ATOM      5  C   UNL     1       1.403   8.582  20.603  0.00  0.00    +0.000 A 
ATOM      6  N   UNL     1       2.240   7.726  19.867  0.00  0.00    +0.000 N 
ATOM      7  C   UNL     1       2.335   7.682  18.497  0.00  0.00    +0.000 C 
ATOM      8  O   UNL     1       1.750   8.418  17.705  0.00  0.00    +0.000 OA
ATOM      9  N   UNL     1       0.558   9.420  19.981  0.00  0.00    +0.000 NA
ATOM     10  C   UNL     1      -0.261  10.178  20.744  0.00  0.00    +0.000 A 
ATOM     11  H   UNL     1       2.858   7.150  20.432  0.00  0.00    +0.000 HD
ENDROOT
BRANCH   7  12
ATOM     12  C   UNL     1       3.169   6.609  17.880  0.00  0.00    +0.000 A 
ATOM     13  C   UNL     1       4.352   7.046  17.251  0.00  0.00    +0.000 A 
ATOM     14  C   UNL     1       5.240   6.143  16.670  0.00  0.00    +0.000 A 
ATOM     15  C   UNL     1       4.948   4.797  16.757  0.00  0.00    +0.000 A 
ATOM     16  N   UNL     1       3.855   4.314  17.386  0.00  0.00    +0.000 NA
ATOM     17  CA  UNL     1       2.970   5.233  17.913  0.00  0.00    +0.000 A 
BRANCH  17  18
ATOM     18  C   UNL     1       1.799   4.553  18.546  0.00  0.00    +0.000 C 
ATOM     19  O   UNL     1       1.496   4.605  19.725  0.00  0.00    +0.000 OA
BRANCH  18  20
ATOM     20  OXT UNL     1       1.059   3.904  17.614  0.00  0.00    +0.000 OA
ATOM     21  HXT UNL     1       0.848   4.526  16.877  0.00  0.00    +0.000 HD
ENDBRANCH  18  20
ENDBRANCH  17  18
ENDBRANCH   7  12
TORSDOF 3
ENDMDL
