MODEL 1
REMARK VINA RESULT:      -6.7      0.000      0.000
REMARK  Name = 
REMARK  6 active torsions:
REMARK  status: ('A' for Active; 'I' for Inactive)
REMARK    1  A    between atoms: C_1  and  C_2
REMARK    2  A    between atoms: C_2  and  C_3
REMARK    3  A    between atoms: C_2  and  C_13
REMARK    4  A    between atoms: C_3  and  O_5
REMARK    5  A    between atoms: O_5  and  C_6
REMARK    6  A    between atoms: N_9  and  C_10
REMARK                            x       y       z     vdW  Elec       q    Type
REMARK                         _______ _______ _______ _____ _____    ______ ____
ROOT
ATOM      1  C   UNL     1       7.439   5.435  16.748  0.00  0.00    +0.000 C 
ATOM      2  O   UNL     1       7.944   4.403  17.167  0.00  0.00    +0.000 OA
ENDROOT
BRANCH   1   4
ATOM      3  C   UNL     1       7.916   7.221  18.226  0.00  0.00    +0.000 C 
ATOM      4  C   UNL     1       6.733   6.464  17.574  0.00  0.00    +0.000 C 
BRANCH   4   5
ATOM      5  C   UNL     1       5.341   5.983  18.113  0.00  0.00    +0.000 A 
ATOM      6  C   UNL     1       4.099   6.412  17.629  0.00  0.00    +0.000 A 
ATOM      7  C   UNL     1       2.915   5.687  17.890  0.00  0.00    +0.000 A 
ATOM      8  C   UNL     1       2.932   4.571  18.723  0.00  0.00    +0.000 A 
ATOM      9 BR   UNL     1       1.372   3.530  18.968  0.00  0.00    +0.000 Br
ATOM     10  C   UNL     1       4.113   4.205  19.344  0.00  0.00    +0.000 A 
ATOM     11  C   UNL     1       5.297   4.905  19.043  0.00  0.00    +0.000 A 
ENDBRANCH   4   5
ENDBRANCH   1   4
BRANCH   1  12
ATOM     12  O   UNL     1       7.277   5.750  15.445  0.00  0.00    +0.000 OA
BRANCH  12  13
ATOM     13  C   UNL     1       7.003   4.634  14.627  0.00  0.00    +0.000 C 
ATOM     14  C   UNL     1       7.460   4.918  13.198  0.00  0.00    +0.000 C 
ATOM     15  C   UNL     1       6.940   3.846  12.265  0.00  0.00    +0.000 C 
ATOM     16  N   UNL     1       5.478   3.759  12.368  0.00  0.00    +0.000 NA
ATOM     17  C   UNL     1       4.964   2.790  11.410  0.00  0.00    +0.000 C 
ATOM     18  C   UNL     1       5.047   3.404  13.727  0.00  0.00    +0.000 C 
ATOM     19  C   UNL     1       5.504   4.451  14.719  0.00  0.00    +0.000 C 
ENDBRANCH  12  13
ENDBRANCH   1  12
TORSDOF 4
ENDMDL
MODEL 2
REMARK VINA RESULT:      -6.6      3.085      5.778
REMARK  Name = 
REMARK  6 active torsions:
REMARK  status: ('A' for Active; 'I' for Inactive)
REMARK    1  A    between atoms: C_1  and  C_2
REMARK    2  A    between atoms: C_2  and  C_3
REMARK    3  A    between atoms: C_2  and  C_13
REMARK    4  A    between atoms: C_3  and  O_5
REMARK    5  A    between atoms: O_5  and  C_6
REMARK    6  A    between atoms: N_9  and  C_10
REMARK                            x       y       z     vdW  Elec       q    Type
REMARK                         _______ _______ _______ _____ _____    ______ ____
ROOT
ATOM      1  C   UNL     1       6.659   5.569  18.585  0.00  0.00    +0.000 C 
ATOM      2  O   UNL     1       7.236   5.196  19.597  0.00  0.00    +0.000 OA
ENDROOT
BRANCH   1   4
ATOM      3  C   UNL     1       7.347   7.546  17.479  0.00  0.00    +0.000 C 
ATOM      4  C   UNL     1       7.316   6.007  17.314  0.00  0.00    +0.000 C 
BRANCH   4   5
ATOM      5  C   UNL     1       7.008   5.066  16.096  0.00  0.00    +0.000 A 
ATOM      6  C   UNL     1       6.086   4.013  16.107  0.00  0.00    +0.000 A 
ATOM      7  C   UNL     1       5.591   3.454  14.908  0.00  0.00    +0.000 A 
ATOM      8  C   UNL     1       6.082   3.868  13.673  0.00  0.00    +0.000 A 
ATOM      9 BR   UNL     1       5.328   3.208  12.068  0.00  0.00    +0.000 Br
ATOM     10  C   UNL     1       7.104   4.799  13.626  0.00  0.00    +0.000 A 
ATOM     11  C   UNL     1       7.560   5.385  14.822  0.00  0.00    +0.000 A 
ENDBRANCH   4   5
ENDBRANCH   1   4
BRANCH   1  12
ATOM     12  O   UNL     1       5.336   5.815  18.487  0.00  0.00    +0.000 OA
BRANCH  12  13
ATOM     13  C   UNL     1       4.568   5.158  19.472  0.00  0.00    +0.000 C 
ATOM     14  C   UNL     1       4.397   3.688  19.094  0.00  0.00    +0.000 C 
ATOM     15  C   UNL     1       3.367   3.039  19.993  0.00  0.00    +0.000 C 
ATOM     16  N   UNL     1       2.101   3.778  19.920  0.00  0.00    +0.000 NA
ATOM     17  C   UNL     1       1.082   3.108  20.716  0.00  0.00    +0.000 C 
ATOM     18  C   UNL     1       2.254   5.170  20.363  0.00  0.00    +0.000 C 
ATOM     19  C   UNL     1       3.249   5.898  19.487  0.00  0.00    +0.000 C 
ENDBRANCH  12  13
ENDBRANCH   1  12
TORSDOF 4
ENDMDL
MODEL 3
REMARK VINA RESULT:      -6.5      0.643      1.266
REMARK  Name = 
REMARK  6 active torsions:
REMARK  status: ('A' for Active; 'I' for Inactive)
REMARK    1  A    between atoms: C_1  and  C_2
REMARK    2  A    between atoms: C_2  and  C_3
REMARK    3  A    between atoms: C_2  and  C_13
REMARK    4  A    between atoms: C_3  and  O_5
REMARK    5  A    between atoms: O_5  and  C_6
REMARK    6  A    between atoms: N_9  and  C_10
REMARK                            x       y       z     vdW  Elec       q    Type
REMARK                         _______ _______ _______ _____ _____    ______ ____
ROOT
ATOM      1  C   UNL     1       7.451   5.506  16.503  0.00  0.00    +0.000 C 
ATOM      2  O   UNL     1       7.997   4.525  16.989  0.00  0.00    +0.000 OA
ENDROOT
BRANCH   1   4
ATOM      3  C   UNL     1       7.699   7.484  17.780  0.00  0.00    +0.000 C 
ATOM      4  C   UNL     1       6.623   6.506  17.247  0.00  0.00    +0.000 C 
BRANCH   4   5
ATOM      5  C   UNL     1       5.324   5.894  17.878  0.00  0.00    +0.000 A 
ATOM      6  C   UNL     1       5.296   4.822  18.780  0.00  0.00    +0.000 A 
ATOM      7  C   UNL     1       4.162   4.563  19.581  0.00  0.00    +0.000 A 
ATOM      8  C   UNL     1       2.995   5.307  19.428  0.00  0.00    +0.000 A 
ATOM      9 BR   UNL     1       1.524   5.040  20.587  0.00  0.00    +0.000 Br
ATOM     10  C   UNL     1       2.932   6.275  18.440  0.00  0.00    +0.000 A 
ATOM     11  C   UNL     1       4.080   6.559  17.677  0.00  0.00    +0.000 A 
ENDBRANCH   4   5
ENDBRANCH   1   4
BRANCH   1  12
ATOM     12  O   UNL     1       7.356   5.771  15.183  0.00  0.00    +0.000 OA
BRANCH  12  13
ATOM     13  C   UNL     1       7.027   4.640  14.405  0.00  0.00    +0.000 C 
ATOM     14  C   UNL     1       7.467   4.864  12.961  0.00  0.00    +0.000 C 
ATOM     15  C   UNL     1       6.892   3.783  12.071  0.00  0.00    +0.000 C 
ATOM     16  N   UNL     1       5.430   3.752  12.203  0.00  0.00    +0.000 NA
ATOM     17  C   UNL     1       4.864   2.773  11.285  0.00  0.00    +0.000 C 
ATOM     18  C   UNL     1       5.012   3.454  13.580  0.00  0.00    +0.000 C 
ATOM     19  C   UNL     1       5.524   4.514  14.529  0.00  0.00    +0.000 C 
ENDBRANCH  12  13
ENDBRANCH   1  12
TORSDOF 4
ENDMDL
MODEL 4
REMARK VINA RESULT:      -6.4      3.696      4.967
REMARK  Name = 
REMARK  6 active torsions:
REMARK  status: ('A' for Active; 'I' for Inactive)
REMARK    1  A    between atoms: C_1  and  C_2
REMARK    2  A    between atoms: C_2  and  C_3
REMARK    3  A    between atoms: C_2  and  C_13
REMARK    4  A    between atoms: C_3  and  O_5
REMARK    5  A    between atoms: O_5  and  C_6
REMARK    6  A    between atoms: N_9  and  C_10
REMARK                            x       y       z     vdW  Elec       q    Type
REMARK                         _______ _______ _______ _____ _____    ______ ____
ROOT
ATOM      1  C   UNL     1       2.590   5.235  18.680  0.00  0.00    +0.000 C 
ATOM      2  O   UNL     1       1.754   4.802  17.898  0.00  0.00    +0.000 OA
ENDROOT
BRANCH   1   4
ATOM      3  C   UNL     1       1.624   4.912  20.816  0.00  0.00    +0.000 C 
ATOM      4  C   UNL     1       2.303   5.992  19.938  0.00  0.00    +0.000 C 
BRANCH   4   5
ATOM      5  C   UNL     1       2.014   7.515  19.698  0.00  0.00    +0.000 A 
ATOM      6  C   UNL     1       2.170   8.180  18.476  0.00  0.00    +0.000 A 
ATOM      7  C   UNL     1       1.556   9.429  18.233  0.00  0.00    +0.000 A 
ATOM      8  C   UNL     1       0.856  10.087  19.241  0.00  0.00    +0.000 A 
ATOM      9 BR   UNL     1      -0.069  11.697  18.877  0.00  0.00    +0.000 Br
ATOM     10  C   UNL     1       0.809   9.534  20.508  0.00  0.00    +0.000 A 
ATOM     11  C   UNL     1       1.384   8.268  20.731  0.00  0.00    +0.000 A 
ENDBRANCH   4   5
ENDBRANCH   1   4
BRANCH   1  12
ATOM     12  O   UNL     1       3.922   5.259  18.463  0.00  0.00    +0.000 OA
BRANCH  12  13
ATOM     13  C   UNL     1       4.278   4.996  17.123  0.00  0.00    +0.000 C 
ATOM     14  C   UNL     1       5.287   3.852  17.073  0.00  0.00    +0.000 C 
ATOM     15  C   UNL     1       5.871   3.736  15.682  0.00  0.00    +0.000 C 
ATOM     16  N   UNL     1       6.469   5.015  15.281  0.00  0.00    +0.000 NA
ATOM     17  C   UNL     1       7.107   4.885  13.979  0.00  0.00    +0.000 C 
ATOM     18  C   UNL     1       5.475   6.097  15.251  0.00  0.00    +0.000 C 
ATOM     19  C   UNL     1       4.867   6.297  16.621  0.00  0.00    +0.000 C 
ENDBRANCH  12  13
ENDBRANCH   1  12
TORSDOF 4
ENDMDL
MODEL 5
REMARK VINA RESULT:      -6.3      4.203      6.752
REMARK  Name = 
REMARK  6 active torsions:
REMARK  status: ('A' for Active; 'I' for Inactive)
REMARK    1  A    between atoms: C_1  and  C_2
REMARK    2  A    between atoms: C_2  and  C_3
REMARK    3  A    between atoms: C_2  and  C_13
REMARK    4  A    between atoms: C_3  and  O_5
REMARK    5  A    between atoms: O_5  and  C_6
REMARK    6  A    between atoms: N_9  and  C_10
REMARK                            x       y       z     vdW  Elec       q    Type
REMARK                         _______ _______ _______ _____ _____    ______ ____
ROOT
ATOM      1  C   UNL     1       2.474   3.945  17.817  0.00  0.00    +0.000 C 
ATOM      2  O   UNL     1       1.356   3.749  17.361  0.00  0.00    +0.000 OA
ENDROOT
BRANCH   1   4
ATOM      3  C   UNL     1       3.663   1.899  17.886  0.00  0.00    +0.000 C 
ATOM      4  C   UNL     1       3.745   3.336  17.314  0.00  0.00    +0.000 C 
BRANCH   4   5
ATOM      5  C   UNL     1       4.918   4.368  17.173  0.00  0.00    +0.000 A 
ATOM      6  C   UNL     1       4.991   5.375  16.203  0.00  0.00    +0.000 A 
ATOM      7  C   UNL     1       5.860   6.479  16.350  0.00  0.00    +0.000 A 
ATOM      8  C   UNL     1       6.746   6.550  17.422  0.00  0.00    +0.000 A 
ATOM      9 BR   UNL     1       7.817   8.087  17.683  0.00  0.00    +0.000 Br
ATOM     10  C   UNL     1       6.812   5.500  18.320  0.00  0.00    +0.000 A 
ATOM     11  C   UNL     1       5.912   4.425  18.192  0.00  0.00    +0.000 A 
ENDBRANCH   4   5
ENDBRANCH   1   4
BRANCH   1  12
ATOM     12  O   UNL     1       2.743   4.611  18.960  0.00  0.00    +0.000 OA
BRANCH  12  13
ATOM     13  C   UNL     1       1.927   5.745  19.155  0.00  0.00    +0.000 C 
ATOM     14  C   UNL     1       2.632   6.986  18.612  0.00  0.00    +0.000 C 
ATOM     15  C   UNL     1       1.894   8.234  19.046  0.00  0.00    +0.000 C 
ATOM     16  N   UNL     1       1.777   8.262  20.509  0.00  0.00    +0.000 NA
ATOM     17  C   UNL     1       1.144   9.502  20.938  0.00  0.00    +0.000 C 
ATOM     18  C   UNL     1       1.026   7.108  21.020  0.00  0.00    +0.000 C 
ATOM     19  C   UNL     1       1.723   5.817  20.652  0.00  0.00    +0.000 C 
ENDBRANCH  12  13
ENDBRANCH   1  12
TORSDOF 4
ENDMDL
MODEL 6
REMARK VINA RESULT:      -6.3      1.060      1.983
REMARK  Name = 
REMARK  6 active torsions:
REMARK  status: ('A' for Active; 'I' for Inactive)
REMARK    1  A    between atoms: C_1  and  C_2
REMARK    2  A    between atoms: C_2  and  C_3
REMARK    3  A    between atoms: C_2  and  C_13
REMARK    4  A    between atoms: C_3  and  O_5
REMARK    5  A    between atoms: O_5  and  C_6
REMARK    6  A    between atoms: N_9  and  C_10
REMARK                            x       y       z     vdW  Elec       q    Type
REMARK                         _______ _______ _______ _____ _____    ______ ____
ROOT
ATOM      1  C   UNL     1       7.102   6.441  17.238  0.00  0.00    +0.000 C 
ATOM      2  O   UNL     1       7.254   7.596  16.865  0.00  0.00    +0.000 OA
ENDROOT
BRANCH   1   4
ATOM      3  C   UNL     1       8.101   5.729  19.263  0.00  0.00    +0.000 C 
ATOM      4  C   UNL     1       6.721   6.009  18.619  0.00  0.00    +0.000 C 
BRANCH   4   5
ATOM      5  C   UNL     1       5.339   5.269  18.682  0.00  0.00    +0.000 A 
ATOM      6  C   UNL     1       5.145   3.967  19.159  0.00  0.00    +0.000 A 
ATOM      7  C   UNL     1       3.864   3.501  19.530  0.00  0.00    +0.000 A 
ATOM      8  C   UNL     1       2.735   4.293  19.340  0.00  0.00    +0.000 A 
ATOM      9 BR   UNL     1       1.041   3.717  19.953  0.00  0.00    +0.000 Br
ATOM     10  C   UNL     1       2.866   5.528  18.729  0.00  0.00    +0.000 A 
ATOM     11  C   UNL     1       4.150   6.004  18.404  0.00  0.00    +0.000 A 
ENDBRANCH   4   5
ENDBRANCH   1   4
BRANCH   1  12
ATOM     12  O   UNL     1       7.416   5.342  16.520  0.00  0.00    +0.000 OA
BRANCH  12  13
ATOM     13  C   UNL     1       6.674   5.221  15.326  0.00  0.00    +0.000 C 
ATOM     14  C   UNL     1       5.732   4.023  15.425  0.00  0.00    +0.000 C 
ATOM     15  C   UNL     1       5.128   3.725  14.069  0.00  0.00    +0.000 C 
ATOM     16  N   UNL     1       6.193   3.509  13.083  0.00  0.00    +0.000 NA
ATOM     17  C   UNL     1       5.619   3.139  11.797  0.00  0.00    +0.000 C 
ATOM     18  C   UNL     1       7.047   4.696  12.931  0.00  0.00    +0.000 C 
ATOM     19  C   UNL     1       7.715   5.038  14.244  0.00  0.00    +0.000 C 
ENDBRANCH  12  13
ENDBRANCH   1  12
TORSDOF 4
ENDMDL
MODEL 7
REMARK VINA RESULT:      -6.3      2.932      5.448
REMARK  Name = 
REMARK  6 active torsions:
REMARK  status: ('A' for Active; 'I' for Inactive)
REMARK    1  A    between atoms: C_1  and  C_2
REMARK    2  A    between atoms: C_2  and  C_3
REMARK    3  A    between atoms: C_2  and  C_13
REMARK    4  A    between atoms: C_3  and  O_5
REMARK    5  A    between atoms: O_5  and  C_6
REMARK    6  A    between atoms: N_9  and  C_10
REMARK                            x       y       z     vdW  Elec       q    Type
REMARK                         _______ _______ _______ _____ _____    ______ ____
ROOT
ATOM      1  C   UNL     1       6.910   4.966  17.672  0.00  0.00    +0.000 C 
ATOM      2  O   UNL     1       7.786   4.171  17.984  0.00  0.00    +0.000 OA
ENDROOT
BRANCH   1   4
ATOM      3  C   UNL     1       6.567   7.270  17.249  0.00  0.00    +0.000 C 
ATOM      4  C   UNL     1       6.980   5.952  16.549  0.00  0.00    +0.000 C 
BRANCH   4   5
ATOM      5  C   UNL     1       6.640   5.329  15.150  0.00  0.00    +0.000 A 
ATOM      6  C   UNL     1       7.516   5.273  14.059  0.00  0.00    +0.000 A 
ATOM      7  C   UNL     1       7.292   4.393  12.978  0.00  0.00    +0.000 A 
ATOM      8  C   UNL     1       6.135   3.620  12.916  0.00  0.00    +0.000 A 
ATOM      9 BR   UNL     1       5.899   2.351  11.533  0.00  0.00    +0.000 Br
ATOM     10  C   UNL     1       5.172   3.759  13.899  0.00  0.00    +0.000 A 
ATOM     11  C   UNL     1       5.422   4.605  14.996  0.00  0.00    +0.000 A 
ENDBRANCH   4   5
ENDBRANCH   1   4
BRANCH   1  12
ATOM     12  O   UNL     1       5.793   5.215  18.388  0.00  0.00    +0.000 OA
BRANCH  12  13
ATOM     13  C   UNL     1       4.739   4.316  18.116  0.00  0.00    +0.000 C 
ATOM     14  C   UNL     1       3.455   5.096  17.845  0.00  0.00    +0.000 C 
ATOM     15  C   UNL     1       2.272   4.152  17.813  0.00  0.00    +0.000 C 
ATOM     16  N   UNL     1       2.203   3.394  19.068  0.00  0.00    +0.000 NA
ATOM     17  C   UNL     1       1.018   2.546  19.077  0.00  0.00    +0.000 C 
ATOM     18  C   UNL     1       3.407   2.580  19.283  0.00  0.00    +0.000 C 
ATOM     19  C   UNL     1       4.634   3.462  19.360  0.00  0.00    +0.000 C 
ENDBRANCH  12  13
ENDBRANCH   1  12
TORSDOF 4
ENDMDL
MODEL 8
REMARK VINA RESULT:      -6.2      4.571      7.232
REMARK  Name = 
REMARK  6 active torsions:
REMARK  status: ('A' for Active; 'I' for Inactive)
REMARK    1  A    between atoms: C_1  and  C_2
REMARK    2  A    between atoms: C_2  and  C_3
REMARK    3  A    between atoms: C_2  and  C_13
REMARK    4  A    between atoms: C_3  and  O_5
REMARK    5  A    between atoms: O_5  and  C_6
REMARK    6  A    between atoms: N_9  and  C_10
REMARK                            x       y       z     vdW  Elec       q    Type
REMARK                         _______ _______ _______ _____ _____    ______ ____
ROOT
ATOM      1  C   UNL     1       2.683   5.507  19.655  0.00  0.00    +0.000 C 
ATOM      2  O   UNL     1       2.715   4.815  20.664  0.00  0.00    +0.000 OA
ENDROOT
BRANCH   1   4
ATOM      3  C   UNL     1       1.302   4.047  18.405  0.00  0.00    +0.000 C 
ATOM      4  C   UNL     1       2.507   5.008  18.256  0.00  0.00    +0.000 C 
BRANCH   4   5
ATOM      5  C   UNL     1       3.849   4.925  17.449  0.00  0.00    +0.000 A 
ATOM      6  C   UNL     1       4.479   3.738  17.053  0.00  0.00    +0.000 A 
ATOM      7  C   UNL     1       5.459   3.728  16.036  0.00  0.00    +0.000 A 
ATOM      8  C   UNL     1       5.903   4.915  15.461  0.00  0.00    +0.000 A 
ATOM      9 BR   UNL     1       7.122   4.887  14.015  0.00  0.00    +0.000 Br
ATOM     10  C   UNL     1       5.416   6.122  15.933  0.00  0.00    +0.000 A 
ATOM     11  C   UNL     1       4.407   6.123  16.914  0.00  0.00    +0.000 A 
ENDBRANCH   4   5
ENDBRANCH   1   4
BRANCH   1  12
ATOM     12  O   UNL     1       2.972   6.824  19.605  0.00  0.00    +0.000 OA
BRANCH  12  13
ATOM     13  C   UNL     1       1.840   7.639  19.390  0.00  0.00    +0.000 C 
ATOM     14  C   UNL     1       2.152   8.682  18.319  0.00  0.00    +0.000 C 
ATOM     15  C   UNL     1       1.050   9.717  18.267  0.00  0.00    +0.000 C 
ATOM     16  N   UNL     1       0.871  10.324  19.591  0.00  0.00    +0.000 NA
ATOM     17  C   UNL     1      -0.129  11.382  19.528  0.00  0.00    +0.000 C 
ATOM     18  C   UNL     1       0.489   9.329  20.602  0.00  0.00    +0.000 C 
ATOM     19  C   UNL     1       1.563   8.272  20.736  0.00  0.00    +0.000 C 
ENDBRANCH  12  13
ENDBRANCH   1  12
TORSDOF 4
ENDMDL
MODEL 9
REMARK VINA RESULT:      -6.2      2.991      4.529
REMARK  Name = 
REMARK  6 active torsions:
REMARK  status: ('A' for Active; 'I' for Inactive)
REMARK    1  A    between atoms: C_1  and  C_2
REMARK    2  A    between atoms: C_2  and  C_3
REMARK    3  A    between atoms: C_2  and  C_13
REMARK    4  A    between atoms: C_3  and  O_5
REMARK    5  A    between atoms: O_5  and  C_6
REMARK    6  A    between atoms: N_9  and  C_10
REMARK                            x       y       z     vdW  Elec       q    Type
REMARK                         _______ _______ _______ _____ _____    ______ ____
ROOT
ATOM      1  C   UNL     1       3.546   3.906  19.456  0.00  0.00    +0.000 C 
ATOM      2  O   UNL     1       3.783   2.742  19.750  0.00  0.00    +0.000 OA
ENDROOT
BRANCH   1   4
ATOM      3  C   UNL     1       1.411   3.457  18.536  0.00  0.00    +0.000 C 
ATOM      4  C   UNL     1       2.187   4.523  19.349  0.00  0.00    +0.000 C 
BRANCH   4   5
ATOM      5  C   UNL     1       2.216   6.091  19.307  0.00  0.00    +0.000 A 
ATOM      6  C   UNL     1       2.429   6.861  18.156  0.00  0.00    +0.000 A 
ATOM      7  C   UNL     1       2.083   8.230  18.111  0.00  0.00    +0.000 A 
ATOM      8  C   UNL     1       1.608   8.883  19.245  0.00  0.00    +0.000 A 
ATOM      9 BR   UNL     1       1.027  10.681  19.148  0.00  0.00    +0.000 Br
ATOM     10  C   UNL     1       1.528   8.194  20.442  0.00  0.00    +0.000 A 
ATOM     11  C   UNL     1       1.831   6.820  20.469  0.00  0.00    +0.000 A 
ENDBRANCH   4   5
ENDBRANCH   1   4
BRANCH   1  12
ATOM     12  O   UNL     1       4.456   4.799  19.011  0.00  0.00    +0.000 OA
BRANCH  12  13
ATOM     13  C   UNL     1       5.260   4.305  17.962  0.00  0.00    +0.000 C 
ATOM     14  C   UNL     1       6.596   5.044  17.947  0.00  0.00    +0.000 C 
ATOM     15  C   UNL     1       7.356   4.714  16.680  0.00  0.00    +0.000 C 
ATOM     16  N   UNL     1       6.535   5.036  15.506  0.00  0.00    +0.000 NA
ATOM     17  C   UNL     1       7.293   4.801  14.285  0.00  0.00    +0.000 C 
ATOM     18  C   UNL     1       5.287   4.260  15.483  0.00  0.00    +0.000 C 
ATOM     19  C   UNL     1       4.453   4.562  16.708  0.00  0.00    +0.000 C 
ENDBRANCH  12  13
ENDBRANCH   1  12
TORSDOF 4
ENDMDL
