MODEL 1
REMARK VINA RESULT:      -6.8      0.000      0.000
REMARK  Name = 
REMARK  4 active torsions:
REMARK  status: ('A' for Active; 'I' for Inactive)
REMARK    1  A    between atoms: C_1  and  N_2
REMARK    2  A    between atoms: C_6  and  O_7
REMARK    3  A    between atoms: O_7  and  C_8
REMARK    4  A    between atoms: C_8  and  C_10
REMARK                            x       y       z     vdW  Elec       q    Type
REMARK                         _______ _______ _______ _____ _____    ______ ____
ROOT
ATOM      1  C   UNL     1       3.860   6.265  18.079  0.00  0.00    +0.000 C 
ATOM      2  O   UNL     1       3.482   7.385  17.805  0.00  0.00    +0.000 OA
ENDROOT
BRANCH   1   3
ATOM      3  C   UNL     1       5.067   5.606  17.493  0.00  0.00    +0.000 A 
ATOM      4  C   UNL     1       6.260   5.483  18.221  0.00  0.00    +0.000 A 
ATOM      5  C   UNL     1       7.375   4.864  17.654  0.00  0.00    +0.000 A 
ATOM      6  C   UNL     1       7.309   4.385  16.349  0.00  0.00    +0.000 A 
ATOM      7  C   UNL     1       6.136   4.536  15.611  0.00  0.00    +0.000 A 
ATOM      8 CL   UNL     1       6.069   3.939  13.997  0.00  0.00    +0.000 Cl
ATOM      9  C   UNL     1       5.014   5.148  16.171  0.00  0.00    +0.000 A 
ENDBRANCH   1   3
BRANCH   1  10
ATOM     10  O   UNL     1       3.333   5.452  19.023  0.00  0.00    +0.000 OA
BRANCH  10  16
ATOM     11  C   UNL     1       1.641   2.577  21.678  0.00  0.00    +0.000 C 
ATOM     12  N   UNL     1       2.079   3.170  20.414  0.00  0.00    +0.000 NA
ATOM     13  C   UNL     1       1.774   2.272  19.291  0.00  0.00    +0.000 C 
ATOM     14  C   UNL     1       2.226   2.868  17.953  0.00  0.00    +0.000 C 
ATOM     15  C   UNL     1       1.636   4.258  17.726  0.00  0.00    +0.000 C 
ATOM     16  C   UNL     1       1.924   5.182  18.905  0.00  0.00    +0.000 C 
ATOM     17  C   UNL     1       1.461   4.498  20.214  0.00  0.00    +0.000 C 
ENDBRANCH  10  16
ENDBRANCH   1  10
TORSDOF 3
ENDMDL
MODEL 2
REMARK VINA RESULT:      -6.6      2.646      5.553
REMARK  Name = 
REMARK  4 active torsions:
REMARK  status: ('A' for Active; 'I' for Inactive)
REMARK    1  A    between atoms: C_1  and  N_2
REMARK    2  A    between atoms: C_6  and  O_7
REMARK    3  A    between atoms: O_7  and  C_8
REMARK    4  A    between atoms: C_8  and  C_10
REMARK                            x       y       z     vdW  Elec       q    Type
REMARK                         _______ _______ _______ _____ _____    ______ ____
ROOT
ATOM      1  C   UNL     1       3.269   6.686  17.826  0.00  0.00    +0.000 C 
ATOM      2  O   UNL     1       3.100   7.881  17.701  0.00  0.00    +0.000 OA
ENDROOT
BRANCH   1   3
ATOM      3  C   UNL     1       2.499   5.810  18.761  0.00  0.00    +0.000 A 
ATOM      4  C   UNL     1       2.270   6.184  20.094  0.00  0.00    +0.000 A 
ATOM      5  C   UNL     1       1.549   5.350  20.949  0.00  0.00    +0.000 A 
ATOM      6  C   UNL     1       1.071   4.129  20.482  0.00  0.00    +0.000 A 
ATOM      7  C   UNL     1       1.325   3.740  19.168  0.00  0.00    +0.000 A 
ATOM      8 CL   UNL     1       0.729   2.226  18.604  0.00  0.00    +0.000 Cl
ATOM      9  C   UNL     1       2.041   4.569  18.303  0.00  0.00    +0.000 A 
ENDBRANCH   1   3
BRANCH   1  10
ATOM     10  O   UNL     1       4.098   5.913  17.085  0.00  0.00    +0.000 OA
BRANCH  10  16
ATOM     11  C   UNL     1       6.268   3.846  14.054  0.00  0.00    +0.000 C 
ATOM     12  N   UNL     1       6.006   4.487  15.343  0.00  0.00    +0.000 NA
ATOM     13  C   UNL     1       7.204   4.439  16.194  0.00  0.00    +0.000 C 
ATOM     14  C   UNL     1       6.956   5.101  17.553  0.00  0.00    +0.000 C 
ATOM     15  C   UNL     1       6.444   6.532  17.400  0.00  0.00    +0.000 C 
ATOM     16  C   UNL     1       5.222   6.589  16.490  0.00  0.00    +0.000 C 
ATOM     17  C   UNL     1       5.547   5.880  15.153  0.00  0.00    +0.000 C 
ENDBRANCH  10  16
ENDBRANCH   1  10
TORSDOF 3
ENDMDL
MODEL 3
REMARK VINA RESULT:      -6.4      2.645      5.444
REMARK  Name = 
REMARK  4 active torsions:
REMARK  status: ('A' for Active; 'I' for Inactive)
REMARK    1  A    between atoms: C_1  and  N_2
REMARK    2  A    between atoms: C_6  and  O_7
REMARK    3  A    between atoms: O_7  and  C_8
REMARK    4  A    between atoms: C_8  and  C_10
REMARK                            x       y       z     vdW  Elec       q    Type
REMARK                         _______ _______ _______ _____ _____    ______ ____
ROOT
ATOM      1  C   UNL     1       3.122   5.968  18.317  0.00  0.00    +0.000 C 
ATOM      2  O   UNL     1       2.683   7.095  18.411  0.00  0.00    +0.000 OA
ENDROOT
BRANCH   1   3
ATOM      3  C   UNL     1       2.829   4.858  19.275  0.00  0.00    +0.000 A 
ATOM      4  C   UNL     1       1.614   4.794  19.973  0.00  0.00    +0.000 A 
ATOM      5  C   UNL     1       1.362   3.749  20.862  0.00  0.00    +0.000 A 
ATOM      6  C   UNL     1       2.332   2.773  21.072  0.00  0.00    +0.000 A 
ATOM      7  C   UNL     1       3.553   2.851  20.405  0.00  0.00    +0.000 A 
ATOM      8 CL   UNL     1       4.745   1.637  20.675  0.00  0.00    +0.000 Cl
ATOM      9  C   UNL     1       3.813   3.890  19.510  0.00  0.00    +0.000 A 
ENDBRANCH   1   3
BRANCH   1  10
ATOM     10  O   UNL     1       3.863   5.480  17.295  0.00  0.00    +0.000 OA
BRANCH  10  16
ATOM     11  C   UNL     1       6.312   4.027  14.122  0.00  0.00    +0.000 C 
ATOM     12  N   UNL     1       5.956   4.494  15.463  0.00  0.00    +0.000 NA
ATOM     13  C   UNL     1       7.142   4.510  16.332  0.00  0.00    +0.000 C 
ATOM     14  C   UNL     1       6.797   4.993  17.745  0.00  0.00    +0.000 C 
ATOM     15  C   UNL     1       6.107   6.356  17.725  0.00  0.00    +0.000 C 
ATOM     16  C   UNL     1       4.897   6.350  16.797  0.00  0.00    +0.000 C 
ATOM     17  C   UNL     1       5.324   5.829  15.404  0.00  0.00    +0.000 C 
ENDBRANCH  10  16
ENDBRANCH   1  10
TORSDOF 3
ENDMDL
MODEL 4
REMARK VINA RESULT:      -6.4      3.164      5.851
REMARK  Name = 
REMARK  4 active torsions:
REMARK  status: ('A' for Active; 'I' for Inactive)
REMARK    1  A    between atoms: C_1  and  N_2
REMARK    2  A    between atoms: C_6  and  O_7
REMARK    3  A    between atoms: O_7  and  C_8
REMARK    4  A    between atoms: C_8  and  C_10
REMARK                            x       y       z     vdW  Elec       q    Type
REMARK                         _______ _______ _______ _____ _____    ______ ____
ROOT
ATOM      1  C   UNL     1       4.713   3.040  19.727  0.00  0.00    +0.000 C 
ATOM      2  O   UNL     1       5.140   1.940  20.010  0.00  0.00    +0.000 OA
ENDROOT
BRANCH   1   3
ATOM      3  C   UNL     1       3.302   3.487  19.939  0.00  0.00    +0.000 A 
ATOM      4  C   UNL     1       2.222   2.606  19.774  0.00  0.00    +0.000 A 
ATOM      5  C   UNL     1       0.914   3.044  19.977  0.00  0.00    +0.000 A 
ATOM      6  C   UNL     1       0.676   4.371  20.326  0.00  0.00    +0.000 A 
ATOM      7  C   UNL     1       1.745   5.257  20.458  0.00  0.00    +0.000 A 
ATOM      8 CL   UNL     1       1.436   6.895  20.890  0.00  0.00    +0.000 Cl
ATOM      9  C   UNL     1       3.058   4.827  20.263  0.00  0.00    +0.000 A 
ENDBRANCH   1   3
BRANCH   1  10
ATOM     10  O   UNL     1       5.439   4.087  19.271  0.00  0.00    +0.000 OA
BRANCH  10  16
ATOM     11  C   UNL     1       7.679   7.354  17.694  0.00  0.00    +0.000 C 
ATOM     12  N   UNL     1       6.569   6.413  17.847  0.00  0.00    +0.000 NA
ATOM     13  C   UNL     1       5.512   6.701  16.867  0.00  0.00    +0.000 C 
ATOM     14  C   UNL     1       4.334   5.731  17.008  0.00  0.00    +0.000 C 
ATOM     15  C   UNL     1       4.786   4.275  16.920  0.00  0.00    +0.000 C 
ATOM     16  C   UNL     1       5.907   3.983  17.913  0.00  0.00    +0.000 C 
ATOM     17  C   UNL     1       7.042   5.018  17.722  0.00  0.00    +0.000 C 
ENDBRANCH  10  16
ENDBRANCH   1  10
TORSDOF 3
ENDMDL
MODEL 5
REMARK VINA RESULT:      -6.4      1.255      1.705
REMARK  Name = 
REMARK  4 active torsions:
REMARK  status: ('A' for Active; 'I' for Inactive)
REMARK    1  A    between atoms: C_1  and  N_2
REMARK    2  A    between atoms: C_6  and  O_7
REMARK    3  A    between atoms: O_7  and  C_8
REMARK    4  A    between atoms: C_8  and  C_10
REMARK                            x       y       z     vdW  Elec       q    Type
REMARK                         _______ _______ _______ _____ _____    ______ ____
ROOT
ATOM      1  C   UNL     1       3.525   6.656  17.825  0.00  0.00    +0.000 C 
ATOM      2  O   UNL     1       3.181   7.811  17.969  0.00  0.00    +0.000 OA
ENDROOT
BRANCH   1   3
ATOM      3  C   UNL     1       4.827   6.223  17.231  0.00  0.00    +0.000 A 
ATOM      4  C   UNL     1       6.050   6.718  17.708  0.00  0.00    +0.000 A 
ATOM      5  C   UNL     1       7.253   6.300  17.138  0.00  0.00    +0.000 A 
ATOM      6  C   UNL     1       7.238   5.400  16.076  0.00  0.00    +0.000 A 
ATOM      7  C   UNL     1       6.023   4.931  15.579  0.00  0.00    +0.000 A 
ATOM      8 CL   UNL     1       6.019   3.818  14.265  0.00  0.00    +0.000 Cl
ATOM      9  C   UNL     1       4.814   5.339  16.145  0.00  0.00    +0.000 A 
ENDBRANCH   1   3
BRANCH   1  10
ATOM     10  O   UNL     1       2.856   5.562  18.258  0.00  0.00    +0.000 OA
BRANCH  10  16
ATOM     11  C   UNL     1       3.564   1.378  18.668  0.00  0.00    +0.000 C 
ATOM     12  N   UNL     1       2.910   2.673  18.860  0.00  0.00    +0.000 NA
ATOM     13  C   UNL     1       1.755   2.537  19.760  0.00  0.00    +0.000 C 
ATOM     14  C   UNL     1       1.049   3.880  19.976  0.00  0.00    +0.000 C 
ATOM     15  C   UNL     1       2.015   4.953  20.474  0.00  0.00    +0.000 C 
ATOM     16  C   UNL     1       3.230   5.072  19.560  0.00  0.00    +0.000 C 
ATOM     17  C   UNL     1       3.868   3.674  19.374  0.00  0.00    +0.000 C 
ENDBRANCH  10  16
ENDBRANCH   1  10
TORSDOF 3
ENDMDL
MODEL 6
REMARK VINA RESULT:      -6.3      2.943      5.601
REMARK  Name = 
REMARK  4 active torsions:
REMARK  status: ('A' for Active; 'I' for Inactive)
REMARK    1  A    between atoms: C_1  and  N_2
REMARK    2  A    between atoms: C_6  and  O_7
REMARK    3  A    between atoms: O_7  and  C_8
REMARK    4  A    between atoms: C_8  and  C_10
REMARK                            x       y       z     vdW  Elec       q    Type
REMARK                         _______ _______ _______ _____ _____    ______ ____
ROOT
ATOM      1  C   UNL     1       3.084   5.892  18.265  0.00  0.00    +0.000 C 
ATOM      2  O   UNL     1       2.773   6.893  18.876  0.00  0.00    +0.000 OA
ENDROOT
BRANCH   1   3
ATOM      3  C   UNL     1       2.626   4.510  18.605  0.00  0.00    +0.000 A 
ATOM      4  C   UNL     1       2.565   3.499  17.634  0.00  0.00    +0.000 A 
ATOM      5  C   UNL     1       2.133   2.216  17.973  0.00  0.00    +0.000 A 
ATOM      6  C   UNL     1       1.741   1.943  19.281  0.00  0.00    +0.000 A 
ATOM      7  C   UNL     1       1.769   2.954  20.240  0.00  0.00    +0.000 A 
ATOM      8 CL   UNL     1       1.280   2.602  21.854  0.00  0.00    +0.000 Cl
ATOM      9  C   UNL     1       2.204   4.239  19.912  0.00  0.00    +0.000 A 
ENDBRANCH   1   3
BRANCH   1  10
ATOM     10  O   UNL     1       3.808   5.843  17.123  0.00  0.00    +0.000 OA
BRANCH  10  16
ATOM     11  C   UNL     1       6.754   4.751  14.242  0.00  0.00    +0.000 C 
ATOM     12  N   UNL     1       6.134   4.923  15.556  0.00  0.00    +0.000 NA
ATOM     13  C   UNL     1       7.036   4.450  16.616  0.00  0.00    +0.000 C 
ATOM     14  C   UNL     1       6.409   4.616  18.005  0.00  0.00    +0.000 C 
ATOM     15  C   UNL     1       5.966   6.056  18.257  0.00  0.00    +0.000 C 
ATOM     16  C   UNL     1       5.058   6.560  17.140  0.00  0.00    +0.000 C 
ATOM     17  C   UNL     1       5.752   6.334  15.776  0.00  0.00    +0.000 C 
ENDBRANCH  10  16
ENDBRANCH   1  10
TORSDOF 3
ENDMDL
MODEL 7
REMARK VINA RESULT:      -6.3      2.549      3.634
REMARK  Name = 
REMARK  4 active torsions:
REMARK  status: ('A' for Active; 'I' for Inactive)
REMARK    1  A    between atoms: C_1  and  N_2
REMARK    2  A    between atoms: C_6  and  O_7
REMARK    3  A    between atoms: O_7  and  C_8
REMARK    4  A    between atoms: C_8  and  C_10
REMARK                            x       y       z     vdW  Elec       q    Type
REMARK                         _______ _______ _______ _____ _____    ______ ____
ROOT
ATOM      1  C   UNL     1       6.846   4.652  16.240  0.00  0.00    +0.000 C 
ATOM      2  O   UNL     1       7.786   4.539  17.000  0.00  0.00    +0.000 OA
ENDROOT
BRANCH   1   3
ATOM      3  C   UNL     1       6.944   4.587  14.750  0.00  0.00    +0.000 A 
ATOM      4  C   UNL     1       7.846   5.392  14.039  0.00  0.00    +0.000 A 
ATOM      5  C   UNL     1       7.920   5.314  12.647  0.00  0.00    +0.000 A 
ATOM      6  C   UNL     1       7.077   4.446  11.959  0.00  0.00    +0.000 A 
ATOM      7  C   UNL     1       6.156   3.669  12.660  0.00  0.00    +0.000 A 
ATOM      8 CL   UNL     1       5.119   2.600  11.796  0.00  0.00    +0.000 Cl
ATOM      9  C   UNL     1       6.078   3.736  14.052  0.00  0.00    +0.000 A 
ENDBRANCH   1   3
BRANCH   1  10
ATOM     10  O   UNL     1       5.543   4.755  16.589  0.00  0.00    +0.000 OA
BRANCH  10  16
ATOM     11  C   UNL     1       3.191   1.788  18.549  0.00  0.00    +0.000 C 
ATOM     12  N   UNL     1       3.553   3.098  18.005  0.00  0.00    +0.000 NA
ATOM     13  C   UNL     1       2.481   4.073  18.256  0.00  0.00    +0.000 C 
ATOM     14  C   UNL     1       2.833   5.454  17.693  0.00  0.00    +0.000 C 
ATOM     15  C   UNL     1       4.174   5.956  18.224  0.00  0.00    +0.000 C 
ATOM     16  C   UNL     1       5.280   4.931  17.994  0.00  0.00    +0.000 C 
ATOM     17  C   UNL     1       4.837   3.564  18.569  0.00  0.00    +0.000 C 
ENDBRANCH  10  16
ENDBRANCH   1  10
TORSDOF 3
ENDMDL
MODEL 8
REMARK VINA RESULT:      -6.3      2.373      2.860
REMARK  Name = 
REMARK  4 active torsions:
REMARK  status: ('A' for Active; 'I' for Inactive)
REMARK    1  A    between atoms: C_1  and  N_2
REMARK    2  A    between atoms: C_6  and  O_7
REMARK    3  A    between atoms: O_7  and  C_8
REMARK    4  A    between atoms: C_8  and  C_10
REMARK                            x       y       z     vdW  Elec       q    Type
REMARK                         _______ _______ _______ _____ _____    ______ ____
ROOT
ATOM      1  C   UNL     1       4.967   5.083  16.613  0.00  0.00    +0.000 C 
ATOM      2  O   UNL     1       4.983   4.851  15.422  0.00  0.00    +0.000 OA
ENDROOT
BRANCH   1   3
ATOM      3  C   UNL     1       6.109   5.664  17.383  0.00  0.00    +0.000 A 
ATOM      4  C   UNL     1       6.797   4.914  18.349  0.00  0.00    +0.000 A 
ATOM      5  C   UNL     1       7.860   5.476  19.057  0.00  0.00    +0.000 A 
ATOM      6  C   UNL     1       8.229   6.797  18.815  0.00  0.00    +0.000 A 
ATOM      7  C   UNL     1       7.526   7.554  17.879  0.00  0.00    +0.000 A 
ATOM      8 CL   UNL     1       7.992   9.187  17.591  0.00  0.00    +0.000 Cl
ATOM      9  C   UNL     1       6.464   7.000  17.163  0.00  0.00    +0.000 A 
ENDBRANCH   1   3
BRANCH   1  10
ATOM     10  O   UNL     1       3.901   4.962  17.438  0.00  0.00    +0.000 OA
BRANCH  10  16
ATOM     11  C   UNL     1       0.866   4.194  20.332  0.00  0.00    +0.000 C 
ATOM     12  N   UNL     1       2.109   4.010  19.581  0.00  0.00    +0.000 NA
ATOM     13  C   UNL     1       2.828   2.822  20.062  0.00  0.00    +0.000 C 
ATOM     14  C   UNL     1       4.137   2.607  19.295  0.00  0.00    +0.000 C 
ATOM     15  C   UNL     1       3.904   2.539  17.787  0.00  0.00    +0.000 C 
ATOM     16  C   UNL     1       3.128   3.755  17.291  0.00  0.00    +0.000 C 
ATOM     17  C   UNL     1       1.837   3.915  18.131  0.00  0.00    +0.000 C 
ENDBRANCH  10  16
ENDBRANCH   1  10
TORSDOF 3
ENDMDL
MODEL 9
REMARK VINA RESULT:      -6.3      3.747      5.334
REMARK  Name = 
REMARK  4 active torsions:
REMARK  status: ('A' for Active; 'I' for Inactive)
REMARK    1  A    between atoms: C_1  and  N_2
REMARK    2  A    between atoms: C_6  and  O_7
REMARK    3  A    between atoms: O_7  and  C_8
REMARK    4  A    between atoms: C_8  and  C_10
REMARK                            x       y       z     vdW  Elec       q    Type
REMARK                         _______ _______ _______ _____ _____    ______ ____
ROOT
ATOM      1  C   UNL     1       3.076   6.742  18.435  0.00  0.00    +0.000 C 
ATOM      2  O   UNL     1       4.102   6.834  17.794  0.00  0.00    +0.000 OA
ENDROOT
BRANCH   1   3
ATOM      3  C   UNL     1       2.190   7.891  18.795  0.00  0.00    +0.000 A 
ATOM      4  C   UNL     1       1.815   8.853  17.845  0.00  0.00    +0.000 A 
ATOM      5  C   UNL     1       0.988   9.918  18.203  0.00  0.00    +0.000 A 
ATOM      6  C   UNL     1       0.548  10.038  19.519  0.00  0.00    +0.000 A 
ATOM      7  C   UNL     1       0.946   9.103  20.473  0.00  0.00    +0.000 A 
ATOM      8 CL   UNL     1       0.395   9.264  22.097  0.00  0.00    +0.000 Cl
ATOM      9  C   UNL     1       1.769   8.031  20.123  0.00  0.00    +0.000 A 
ENDBRANCH   1   3
BRANCH   1  10
ATOM     10  O   UNL     1       2.493   5.594  18.852  0.00  0.00    +0.000 OA
BRANCH  10  16
ATOM     11  C   UNL     1       3.481   1.482  18.312  0.00  0.00    +0.000 C 
ATOM     12  N   UNL     1       2.815   2.660  18.869  0.00  0.00    +0.000 NA
ATOM     13  C   UNL     1       1.877   2.266  19.930  0.00  0.00    +0.000 C 
ATOM     14  C   UNL     1       1.162   3.482  20.529  0.00  0.00    +0.000 C 
ATOM     15  C   UNL     1       2.153   4.531  21.030  0.00  0.00    +0.000 C 
ATOM     16  C   UNL     1       3.149   4.916  19.941  0.00  0.00    +0.000 C 
ATOM     17  C   UNL     1       3.806   3.634  19.373  0.00  0.00    +0.000 C 
ENDBRANCH  10  16
ENDBRANCH   1  10
TORSDOF 3
ENDMDL
