MODEL 1
REMARK VINA RESULT:      -8.4      0.000      0.000
REMARK  Name = 
REMARK  8 active torsions:
REMARK  status: ('A' for Active; 'I' for Inactive)
REMARK    1  A    between atoms: C_1  and  O_2
REMARK    2  A    between atoms: O_2  and  C_3
REMARK    3  A    between atoms: N_8  and  C_9
REMARK    4  A    between atoms: C_9  and  C_10
REMARK    5  A    between atoms: C_10  and  C_11
REMARK    6  A    between atoms: C_19  and  C_20
REMARK    7  A    between atoms: C_30  and  O_31
REMARK    8  A    between atoms: O_31  and  C_32
REMARK                            x       y       z     vdW  Elec       q    Type
REMARK                         _______ _______ _______ _____ _____    ______ ____
ROOT
ATOM      1  C   UNL     1       0.140   9.977  20.107  0.00  0.00    +0.000 A 
ATOM      2  C   UNL     1       0.529   8.781  20.711  0.00  0.00    +0.000 A 
ATOM      3  C   UNL     1       1.512   7.974  20.147  0.00  0.00    +0.000 A 
ATOM      4  N   UNL     1       1.783   6.757  20.807  0.00  0.00    +0.000 NA
ATOM      5  C   UNL     1       2.656   5.924  20.308  0.00  0.00    +0.000 A 
ATOM      6  N   UNL     1       2.928   4.705  20.904  0.00  0.00    +0.000 N 
ATOM      7  N   UNL     1       3.317   6.262  19.109  0.00  0.00    +0.000 N 
ATOM      8  N   UNL     1       4.167   5.434  18.476  0.00  0.00    +0.000 NA
ATOM      9  C   UNL     1       4.470   6.152  17.377  0.00  0.00    +0.000 A 
ATOM     10  N   UNL     1       3.842   7.392  17.317  0.00  0.00    +0.000 NA
ATOM     11  C   UNL     1       3.111   7.421  18.413  0.00  0.00    +0.000 A 
ATOM     12  C   UNL     1       2.149   8.371  18.955  0.00  0.00    +0.000 A 
ATOM     13  C   UNL     1       1.817   9.596  18.376  0.00  0.00    +0.000 A 
ATOM     14  C   UNL     1       0.837  10.419  18.964  0.00  0.00    +0.000 A 
ATOM     15  H   UNL     1       3.490   4.081  20.325  0.00  0.00    +0.000 HD
ENDROOT
BRANCH   9  16
ATOM     16  C   UNL     1       5.344   5.640  16.331  0.00  0.00    +0.000 A 
ATOM     17  C   UNL     1       4.894   4.757  15.345  0.00  0.00    +0.000 A 
ATOM     18  C   UNL     1       5.786   4.285  14.380  0.00  0.00    +0.000 A 
ATOM     19  C   UNL     1       7.105   4.705  14.430  0.00  0.00    +0.000 A 
ATOM     20  N   UNL     1       7.580   5.557  15.361  0.00  0.00    +0.000 NA
ATOM     21  C   UNL     1       6.690   6.003  16.283  0.00  0.00    +0.000 A 
ENDBRANCH   9  16
BRANCH   1  23
ATOM     22  C   UNL     1      -0.625  11.463  21.783  0.00  0.00    +0.000 C 
ATOM     23  O   UNL     1      -0.906  10.714  20.598  0.00  0.00    +0.000 OA
ENDBRANCH   1  23
BRANCH  14  24
ATOM     24  O   UNL     1       0.619  11.597  18.290  0.00  0.00    +0.000 OA
ATOM     25  C   UNL     1       1.393  12.721  18.703  0.00  0.00    +0.000 C 
ENDBRANCH  14  24
BRANCH   6  26
ATOM     26  C   UNL     1       1.904   4.067  21.727  0.00  0.00    +0.000 C 
BRANCH  26  27
ATOM     27  C   UNL     1       1.360   2.800  21.067  0.00  0.00    +0.000 C 
BRANCH  27  28
ATOM     28  C   UNL     1       1.872   2.646  19.655  0.00  0.00    +0.000 A 
ATOM     29  C   UNL     1       2.989   1.841  19.384  0.00  0.00    +0.000 A 
ATOM     30  C   UNL     1       3.477   1.721  18.082  0.00  0.00    +0.000 A 
ATOM     31  C   UNL     1       2.860   2.406  17.036  0.00  0.00    +0.000 A 
ATOM     32  C   UNL     1       1.753   3.212  17.294  0.00  0.00    +0.000 A 
ATOM     33  C   UNL     1       1.262   3.335  18.596  0.00  0.00    +0.000 A 
ENDBRANCH  27  28
ENDBRANCH  26  27
ENDBRANCH   6  26
TORSDOF 6
ENDMDL
MODEL 2
REMARK VINA RESULT:      -8.3      4.611      9.179
REMARK  Name = 
REMARK  8 active torsions:
REMARK  status: ('A' for Active; 'I' for Inactive)
REMARK    1  A    between atoms: C_1  and  O_2
REMARK    2  A    between atoms: O_2  and  C_3
REMARK    3  A    between atoms: N_8  and  C_9
REMARK    4  A    between atoms: C_9  and  C_10
REMARK    5  A    between atoms: C_10  and  C_11
REMARK    6  A    between atoms: C_19  and  C_20
REMARK    7  A    between atoms: C_30  and  O_31
REMARK    8  A    between atoms: O_31  and  C_32
REMARK                            x       y       z     vdW  Elec       q    Type
REMARK                         _______ _______ _______ _____ _____    ______ ____
ROOT
ATOM      1  C   UNL     1       7.112   4.644  12.795  0.00  0.00    +0.000 A 
ATOM      2  C   UNL     1       7.593   5.449  13.829  0.00  0.00    +0.000 A 
ATOM      3  C   UNL     1       7.083   5.348  15.118  0.00  0.00    +0.000 A 
ATOM      4  N   UNL     1       7.597   6.253  16.071  0.00  0.00    +0.000 NA
ATOM      5  C   UNL     1       7.129   6.253  17.290  0.00  0.00    +0.000 A 
ATOM      6  N   UNL     1       7.579   7.145  18.247  0.00  0.00    +0.000 N 
ATOM      7  N   UNL     1       6.111   5.339  17.632  0.00  0.00    +0.000 N 
ATOM      8  N   UNL     1       5.509   5.320  18.835  0.00  0.00    +0.000 NA
ATOM      9  C   UNL     1       4.587   4.355  18.657  0.00  0.00    +0.000 A 
ATOM     10  N   UNL     1       4.606   3.776  17.392  0.00  0.00    +0.000 NA
ATOM     11  C   UNL     1       5.564   4.431  16.768  0.00  0.00    +0.000 A 
ATOM     12  C   UNL     1       6.077   4.405  15.405  0.00  0.00    +0.000 A 
ATOM     13  C   UNL     1       5.634   3.549  14.397  0.00  0.00    +0.000 A 
ATOM     14  C   UNL     1       6.171   3.640  13.097  0.00  0.00    +0.000 A 
ATOM     15  H   UNL     1       7.014   7.157  19.097  0.00  0.00    +0.000 HD
ENDROOT
BRANCH   9  16
ATOM     16  C   UNL     1       3.630   3.992  19.694  0.00  0.00    +0.000 A 
ATOM     17  C   UNL     1       3.559   2.703  20.229  0.00  0.00    +0.000 A 
ATOM     18  C   UNL     1       2.607   2.412  21.208  0.00  0.00    +0.000 A 
ATOM     19  C   UNL     1       1.749   3.417  21.622  0.00  0.00    +0.000 A 
ATOM     20  N   UNL     1       1.785   4.674  21.136  0.00  0.00    +0.000 NA
ATOM     21  C   UNL     1       2.723   4.929  20.189  0.00  0.00    +0.000 A 
ENDBRANCH   9  16
BRANCH   1  23
ATOM     22  C   UNL     1       7.858   6.167  11.143  0.00  0.00    +0.000 C 
ATOM     23  O   UNL     1       7.531   4.822  11.502  0.00  0.00    +0.000 OA
ENDBRANCH   1  23
BRANCH  14  24
ATOM     24  O   UNL     1       5.646   2.729  12.211  0.00  0.00    +0.000 OA
ATOM     25  C   UNL     1       4.465   3.122  11.518  0.00  0.00    +0.000 C 
ENDBRANCH  14  24
BRANCH   6  26
ATOM     26  C   UNL     1       8.129   8.430  17.825  0.00  0.00    +0.000 C 
BRANCH  26  27
ATOM     27  C   UNL     1       8.881   9.122  18.962  0.00  0.00    +0.000 C 
BRANCH  27  28
ATOM     28  C   UNL     1       9.232  10.548  18.608  0.00  0.00    +0.000 A 
ATOM     29  C   UNL     1      10.409  11.135  19.095  0.00  0.00    +0.000 A 
ATOM     30  C   UNL     1      10.719  12.461  18.789  0.00  0.00    +0.000 A 
ATOM     31  C   UNL     1       9.856  13.217  17.997  0.00  0.00    +0.000 A 
ATOM     32  C   UNL     1       8.682  12.645  17.512  0.00  0.00    +0.000 A 
ATOM     33  C   UNL     1       8.368  11.319  17.817  0.00  0.00    +0.000 A 
ENDBRANCH  27  28
ENDBRANCH  26  27
ENDBRANCH   6  26
TORSDOF 6
ENDMDL
MODEL 3
REMARK VINA RESULT:      -8.2      4.660      8.896
REMARK  Name = 
REMARK  8 active torsions:
REMARK  status: ('A' for Active; 'I' for Inactive)
REMARK    1  A    between atoms: C_1  and  O_2
REMARK    2  A    between atoms: O_2  and  C_3
REMARK    3  A    between atoms: N_8  and  C_9
REMARK    4  A    between atoms: C_9  and  C_10
REMARK    5  A    between atoms: C_10  and  C_11
REMARK    6  A    between atoms: C_19  and  C_20
REMARK    7  A    between atoms: C_30  and  O_31
REMARK    8  A    between atoms: O_31  and  C_32
REMARK                            x       y       z     vdW  Elec       q    Type
REMARK                         _______ _______ _______ _____ _____    ______ ____
ROOT
ATOM      1  C   UNL     1       6.973   4.605  12.906  0.00  0.00    +0.000 A 
ATOM      2  C   UNL     1       7.556   5.110  14.069  0.00  0.00    +0.000 A 
ATOM      3  C   UNL     1       6.973   4.906  15.314  0.00  0.00    +0.000 A 
ATOM      4  N   UNL     1       7.612   5.514  16.416  0.00  0.00    +0.000 NA
ATOM      5  C   UNL     1       7.093   5.410  17.610  0.00  0.00    +0.000 A 
ATOM      6  N   UNL     1       7.667   6.018  18.712  0.00  0.00    +0.000 N 
ATOM      7  N   UNL     1       5.896   4.684  17.775  0.00  0.00    +0.000 N 
ATOM      8  N   UNL     1       5.243   4.593  18.948  0.00  0.00    +0.000 NA
ATOM      9  C   UNL     1       4.154   3.884  18.594  0.00  0.00    +0.000 A 
ATOM     10  N   UNL     1       4.118   3.532  17.249  0.00  0.00    +0.000 NA
ATOM     11  C   UNL     1       5.220   4.066  16.760  0.00  0.00    +0.000 A 
ATOM     12  C   UNL     1       5.783   4.159  15.421  0.00  0.00    +0.000 A 
ATOM     13  C   UNL     1       5.226   3.593  14.274  0.00  0.00    +0.000 A 
ATOM     14  C   UNL     1       5.834   3.784  13.017  0.00  0.00    +0.000 A 
ATOM     15  H   UNL     1       7.075   6.007  19.543  0.00  0.00    +0.000 HD
ENDROOT
BRANCH   9  16
ATOM     16  C   UNL     1       3.094   3.563  19.540  0.00  0.00    +0.000 A 
ATOM     17  C   UNL     1       1.766   3.944  19.332  0.00  0.00    +0.000 A 
ATOM     18  C   UNL     1       0.797   3.624  20.286  0.00  0.00    +0.000 A 
ATOM     19  C   UNL     1       1.185   2.936  21.424  0.00  0.00    +0.000 A 
ATOM     20  N   UNL     1       2.454   2.547  21.662  0.00  0.00    +0.000 NA
ATOM     21  C   UNL     1       3.373   2.868  20.716  0.00  0.00    +0.000 A 
ENDBRANCH   9  16
BRANCH   1  23
ATOM     22  C   UNL     1       7.982   6.234  11.515  0.00  0.00    +0.000 C 
ATOM     23  O   UNL     1       7.483   4.902  11.668  0.00  0.00    +0.000 OA
ENDBRANCH   1  23
BRANCH  14  24
ATOM     24  O   UNL     1       5.180   3.161  11.981  0.00  0.00    +0.000 OA
ATOM     25  C   UNL     1       5.702   1.904  11.561  0.00  0.00    +0.000 C 
ENDBRANCH  14  24
BRANCH   6  26
ATOM     26  C   UNL     1       8.487   7.212  18.525  0.00  0.00    +0.000 C 
BRANCH  26  27
ATOM     27  C   UNL     1       7.679   8.360  17.920  0.00  0.00    +0.000 C 
BRANCH  27  28
ATOM     28  C   UNL     1       8.329   9.697  18.187  0.00  0.00    +0.000 A 
ATOM     29  C   UNL     1       9.319   9.826  19.172  0.00  0.00    +0.000 A 
ATOM     30  C   UNL     1       9.901  11.067  19.435  0.00  0.00    +0.000 A 
ATOM     31  C   UNL     1       9.498  12.194  18.721  0.00  0.00    +0.000 A 
ATOM     32  C   UNL     1       8.513  12.079  17.742  0.00  0.00    +0.000 A 
ATOM     33  C   UNL     1       7.928  10.839  17.477  0.00  0.00    +0.000 A 
ENDBRANCH  27  28
ENDBRANCH  26  27
ENDBRANCH   6  26
TORSDOF 6
ENDMDL
MODEL 4
REMARK VINA RESULT:      -8.2      1.639      2.732
REMARK  Name = 
REMARK  8 active torsions:
REMARK  status: ('A' for Active; 'I' for Inactive)
REMARK    1  A    between atoms: C_1  and  O_2
REMARK    2  A    between atoms: O_2  and  C_3
REMARK    3  A    between atoms: N_8  and  C_9
REMARK    4  A    between atoms: C_9  and  C_10
REMARK    5  A    between atoms: C_10  and  C_11
REMARK    6  A    between atoms: C_19  and  C_20
REMARK    7  A    between atoms: C_30  and  O_31
REMARK    8  A    between atoms: O_31  and  C_32
REMARK                            x       y       z     vdW  Elec       q    Type
REMARK                         _______ _______ _______ _____ _____    ______ ____
ROOT
ATOM      1  C   UNL     1       1.793   7.893  19.810  0.00  0.00    +0.000 A 
ATOM      2  C   UNL     1       2.590   6.806  20.173  0.00  0.00    +0.000 A 
ATOM      3  C   UNL     1       3.482   6.234  19.274  0.00  0.00    +0.000 A 
ATOM      4  N   UNL     1       4.192   5.101  19.725  0.00  0.00    +0.000 NA
ATOM      5  C   UNL     1       5.009   4.479  18.919  0.00  0.00    +0.000 A 
ATOM      6  N   UNL     1       5.699   3.345  19.308  0.00  0.00    +0.000 N 
ATOM      7  N   UNL     1       5.168   4.957  17.602  0.00  0.00    +0.000 N 
ATOM      8  N   UNL     1       5.920   4.336  16.676  0.00  0.00    +0.000 NA
ATOM      9  C   UNL     1       5.702   5.107  15.594  0.00  0.00    +0.000 A 
ATOM     10  N   UNL     1       4.850   6.182  15.823  0.00  0.00    +0.000 NA
ATOM     11  C   UNL     1       4.519   6.048  17.092  0.00  0.00    +0.000 A 
ATOM     12  C   UNL     1       3.610   6.765  17.975  0.00  0.00    +0.000 A 
ATOM     13  C   UNL     1       2.867   7.891  17.620  0.00  0.00    +0.000 A 
ATOM     14  C   UNL     1       1.981   8.481  18.544  0.00  0.00    +0.000 A 
ATOM     15  H   UNL     1       6.161   2.859  18.539  0.00  0.00    +0.000 HD
ENDROOT
BRANCH   9  16
ATOM     16  C   UNL     1       6.281   4.801  14.292  0.00  0.00    +0.000 A 
ATOM     17  C   UNL     1       5.776   3.792  13.468  0.00  0.00    +0.000 A 
ATOM     18  C   UNL     1       6.387   3.532  12.240  0.00  0.00    +0.000 A 
ATOM     19  C   UNL     1       7.488   4.286  11.871  0.00  0.00    +0.000 A 
ATOM     20  N   UNL     1       8.005   5.271  12.633  0.00  0.00    +0.000 NA
ATOM     21  C   UNL     1       7.389   5.504  13.820  0.00  0.00    +0.000 A 
ENDBRANCH   9  16
BRANCH   1  23
ATOM     22  C   UNL     1       1.323   9.000  21.849  0.00  0.00    +0.000 C 
ATOM     23  O   UNL     1       0.832   8.384  20.656  0.00  0.00    +0.000 OA
ENDBRANCH   1  23
BRANCH  14  24
ATOM     24  O   UNL     1       1.325   9.587  18.059  0.00  0.00    +0.000 OA
ATOM     25  C   UNL     1       1.963  10.846  18.261  0.00  0.00    +0.000 C 
ENDBRANCH  14  24
BRANCH   6  26
ATOM     26  C   UNL     1       5.145   2.497  20.361  0.00  0.00    +0.000 C 
BRANCH  26  27
ATOM     27  C   UNL     1       4.116   1.511  19.806  0.00  0.00    +0.000 C 
BRANCH  27  28
ATOM     28  C   UNL     1       2.731   2.115  19.774  0.00  0.00    +0.000 A 
ATOM     29  C   UNL     1       2.011   2.186  18.573  0.00  0.00    +0.000 A 
ATOM     30  C   UNL     1       0.742   2.768  18.540  0.00  0.00    +0.000 A 
ATOM     31  C   UNL     1       0.180   3.288  19.705  0.00  0.00    +0.000 A 
ATOM     32  C   UNL     1       0.889   3.226  20.904  0.00  0.00    +0.000 A 
ATOM     33  C   UNL     1       2.159   2.646  20.940  0.00  0.00    +0.000 A 
ENDBRANCH  27  28
ENDBRANCH  26  27
ENDBRANCH   6  26
TORSDOF 6
ENDMDL
MODEL 5
REMARK VINA RESULT:      -8.0      1.711      2.827
REMARK  Name = 
REMARK  8 active torsions:
REMARK  status: ('A' for Active; 'I' for Inactive)
REMARK    1  A    between atoms: C_1  and  O_2
REMARK    2  A    between atoms: O_2  and  C_3
REMARK    3  A    between atoms: N_8  and  C_9
REMARK    4  A    between atoms: C_9  and  C_10
REMARK    5  A    between atoms: C_10  and  C_11
REMARK    6  A    between atoms: C_19  and  C_20
REMARK    7  A    between atoms: C_30  and  O_31
REMARK    8  A    between atoms: O_31  and  C_32
REMARK                            x       y       z     vdW  Elec       q    Type
REMARK                         _______ _______ _______ _____ _____    ______ ____
ROOT
ATOM      1  C   UNL     1       1.792   7.922  19.732  0.00  0.00    +0.000 A 
ATOM      2  C   UNL     1       2.591   6.843  20.112  0.00  0.00    +0.000 A 
ATOM      3  C   UNL     1       3.489   6.262  19.224  0.00  0.00    +0.000 A 
ATOM      4  N   UNL     1       4.201   5.138  19.692  0.00  0.00    +0.000 NA
ATOM      5  C   UNL     1       5.023   4.508  18.898  0.00  0.00    +0.000 A 
ATOM      6  N   UNL     1       5.716   3.382  19.304  0.00  0.00    +0.000 N 
ATOM      7  N   UNL     1       5.186   4.971  17.575  0.00  0.00    +0.000 N 
ATOM      8  N   UNL     1       5.944   4.340  16.660  0.00  0.00    +0.000 NA
ATOM      9  C   UNL     1       5.728   5.097  15.567  0.00  0.00    +0.000 A 
ATOM     10  N   UNL     1       4.871   6.171  15.780  0.00  0.00    +0.000 NA
ATOM     11  C   UNL     1       4.535   6.052  17.048  0.00  0.00    +0.000 A 
ATOM     12  C   UNL     1       3.620   6.777  17.919  0.00  0.00    +0.000 A 
ATOM     13  C   UNL     1       2.875   7.896  17.546  0.00  0.00    +0.000 A 
ATOM     14  C   UNL     1       1.983   8.494  18.459  0.00  0.00    +0.000 A 
ATOM     15  H   UNL     1       6.183   2.889  18.543  0.00  0.00    +0.000 HD
ENDROOT
BRANCH   9  16
ATOM     16  C   UNL     1       6.313   4.776  14.272  0.00  0.00    +0.000 A 
ATOM     17  C   UNL     1       7.429   5.449  13.768  0.00  0.00    +0.000 A 
ATOM     18  C   UNL     1       7.931   5.110  12.510  0.00  0.00    +0.000 A 
ATOM     19  C   UNL     1       7.301   4.109  11.789  0.00  0.00    +0.000 A 
ATOM     20  N   UNL     1       6.225   3.433  12.239  0.00  0.00    +0.000 NA
ATOM     21  C   UNL     1       5.761   3.781  13.465  0.00  0.00    +0.000 A 
ENDBRANCH   9  16
BRANCH   1  23
ATOM     22  C   UNL     1       1.291   8.870  21.843  0.00  0.00    +0.000 C 
ATOM     23  O   UNL     1       0.826   8.420  20.567  0.00  0.00    +0.000 OA
ENDBRANCH   1  23
BRANCH  14  24
ATOM     24  O   UNL     1       1.325   9.592  17.957  0.00  0.00    +0.000 OA
ATOM     25  C   UNL     1       1.857  10.868  18.305  0.00  0.00    +0.000 C 
ENDBRANCH  14  24
BRANCH   6  26
ATOM     26  C   UNL     1       5.161   2.545  20.365  0.00  0.00    +0.000 C 
BRANCH  26  27
ATOM     27  C   UNL     1       4.136   1.551  19.819  0.00  0.00    +0.000 C 
BRANCH  27  28
ATOM     28  C   UNL     1       2.760   2.167  19.728  0.00  0.00    +0.000 A 
ATOM     29  C   UNL     1       2.090   2.592  20.884  0.00  0.00    +0.000 A 
ATOM     30  C   UNL     1       0.807   3.137  20.801  0.00  0.00    +0.000 A 
ATOM     31  C   UNL     1       0.178   3.260  19.563  0.00  0.00    +0.000 A 
ATOM     32  C   UNL     1       0.833   2.837  18.408  0.00  0.00    +0.000 A 
ATOM     33  C   UNL     1       2.115   2.291  18.488  0.00  0.00    +0.000 A 
ENDBRANCH  27  28
ENDBRANCH  26  27
ENDBRANCH   6  26
TORSDOF 6
ENDMDL
MODEL 6
REMARK VINA RESULT:      -7.5      3.947      7.971
REMARK  Name = 
REMARK  8 active torsions:
REMARK  status: ('A' for Active; 'I' for Inactive)
REMARK    1  A    between atoms: C_1  and  O_2
REMARK    2  A    between atoms: O_2  and  C_3
REMARK    3  A    between atoms: N_8  and  C_9
REMARK    4  A    between atoms: C_9  and  C_10
REMARK    5  A    between atoms: C_10  and  C_11
REMARK    6  A    between atoms: C_19  and  C_20
REMARK    7  A    between atoms: C_30  and  O_31
REMARK    8  A    between atoms: O_31  and  C_32
REMARK                            x       y       z     vdW  Elec       q    Type
REMARK                         _______ _______ _______ _____ _____    ______ ____
ROOT
ATOM      1  C   UNL     1      -4.168  11.528  17.202  0.00  0.00    +0.000 A 
ATOM      2  C   UNL     1      -3.517  11.783  18.409  0.00  0.00    +0.000 A 
ATOM      3  C   UNL     1      -2.279  11.216  18.694  0.00  0.00    +0.000 A 
ATOM      4  N   UNL     1      -1.740  11.490  19.969  0.00  0.00    +0.000 NA
ATOM      5  C   UNL     1      -0.607  10.950  20.327  0.00  0.00    +0.000 A 
ATOM      6  N   UNL     1      -0.058  11.163  21.580  0.00  0.00    +0.000 N 
ATOM      7  N   UNL     1       0.063  10.100  19.423  0.00  0.00    +0.000 N 
ATOM      8  N   UNL     1       1.190   9.433  19.733  0.00  0.00    +0.000 NA
ATOM      9  C   UNL     1       1.395   8.720  18.609  0.00  0.00    +0.000 A 
ATOM     10  N   UNL     1       0.440   8.929  17.620  0.00  0.00    +0.000 NA
ATOM     11  C   UNL     1      -0.393   9.789  18.172  0.00  0.00    +0.000 A 
ATOM     12  C   UNL     1      -1.650  10.386  17.746  0.00  0.00    +0.000 A 
ATOM     13  C   UNL     1      -2.260  10.176  16.508  0.00  0.00    +0.000 A 
ATOM     14  C   UNL     1      -3.503  10.771  16.217  0.00  0.00    +0.000 A 
ATOM     15  H   UNL     1       0.729  10.551  21.794  0.00  0.00    +0.000 HD
ENDROOT
BRANCH   9  16
ATOM     16  C   UNL     1       2.501   7.781  18.476  0.00  0.00    +0.000 A 
ATOM     17  C   UNL     1       3.421   7.853  17.426  0.00  0.00    +0.000 A 
ATOM     18  C   UNL     1       4.449   6.912  17.341  0.00  0.00    +0.000 A 
ATOM     19  C   UNL     1       4.526   5.922  18.306  0.00  0.00    +0.000 A 
ATOM     20  N   UNL     1       3.662   5.817  19.336  0.00  0.00    +0.000 NA
ATOM     21  C   UNL     1       2.676   6.748  19.396  0.00  0.00    +0.000 A 
ENDBRANCH   9  16
BRANCH   1  23
ATOM     22  C   UNL     1      -6.369  11.793  18.034  0.00  0.00    +0.000 C 
ATOM     23  O   UNL     1      -5.437  11.991  16.967  0.00  0.00    +0.000 OA
ENDBRANCH   1  23
BRANCH  14  24
ATOM     24  O   UNL     1      -3.978  10.484  14.959  0.00  0.00    +0.000 OA
ATOM     25  C   UNL     1      -3.019  10.050  13.999  0.00  0.00    +0.000 C 
ENDBRANCH  14  24
BRANCH   6  26
ATOM     26  C   UNL     1      -0.937  11.492  22.699  0.00  0.00    +0.000 C 
BRANCH  26  27
ATOM     27  C   UNL     1      -1.014  13.002  22.929  0.00  0.00    +0.000 C 
BRANCH  27  28
ATOM     28  C   UNL     1      -2.425  13.445  23.236  0.00  0.00    +0.000 A 
ATOM     29  C   UNL     1      -3.499  12.553  23.100  0.00  0.00    +0.000 A 
ATOM     30  C   UNL     1      -4.806  12.971  23.359  0.00  0.00    +0.000 A 
ATOM     31  C   UNL     1      -5.055  14.285  23.753  0.00  0.00    +0.000 A 
ATOM     32  C   UNL     1      -3.996  15.180  23.887  0.00  0.00    +0.000 A 
ATOM     33  C   UNL     1      -2.688  14.766  23.628  0.00  0.00    +0.000 A 
ENDBRANCH  27  28
ENDBRANCH  26  27
ENDBRANCH   6  26
TORSDOF 6
ENDMDL
MODEL 7
REMARK VINA RESULT:      -7.4      3.941      7.959
REMARK  Name = 
REMARK  8 active torsions:
REMARK  status: ('A' for Active; 'I' for Inactive)
REMARK    1  A    between atoms: C_1  and  O_2
REMARK    2  A    between atoms: O_2  and  C_3
REMARK    3  A    between atoms: N_8  and  C_9
REMARK    4  A    between atoms: C_9  and  C_10
REMARK    5  A    between atoms: C_10  and  C_11
REMARK    6  A    between atoms: C_19  and  C_20
REMARK    7  A    between atoms: C_30  and  O_31
REMARK    8  A    between atoms: O_31  and  C_32
REMARK                            x       y       z     vdW  Elec       q    Type
REMARK                         _______ _______ _______ _____ _____    ______ ____
ROOT
ATOM      1  C   UNL     1      -4.127  11.560  17.180  0.00  0.00    +0.000 A 
ATOM      2  C   UNL     1      -3.487  11.800  18.396  0.00  0.00    +0.000 A 
ATOM      3  C   UNL     1      -2.261  11.215  18.693  0.00  0.00    +0.000 A 
ATOM      4  N   UNL     1      -1.733  11.475  19.975  0.00  0.00    +0.000 NA
ATOM      5  C   UNL     1      -0.611  10.918  20.345  0.00  0.00    +0.000 A 
ATOM      6  N   UNL     1      -0.075  11.118  21.604  0.00  0.00    +0.000 N 
ATOM      7  N   UNL     1       0.057  10.063  19.445  0.00  0.00    +0.000 N 
ATOM      8  N   UNL     1       1.171   9.379  19.764  0.00  0.00    +0.000 NA
ATOM      9  C   UNL     1       1.380   8.668  18.639  0.00  0.00    +0.000 A 
ATOM     10  N   UNL     1       0.439   8.895  17.640  0.00  0.00    +0.000 NA
ATOM     11  C   UNL     1      -0.388   9.764  18.186  0.00  0.00    +0.000 A 
ATOM     12  C   UNL     1      -1.632  10.380  17.748  0.00  0.00    +0.000 A 
ATOM     13  C   UNL     1      -2.230  10.185  16.503  0.00  0.00    +0.000 A 
ATOM     14  C   UNL     1      -3.461  10.798  16.199  0.00  0.00    +0.000 A 
ATOM     15  H   UNL     1       0.701  10.494  21.825  0.00  0.00    +0.000 HD
ENDROOT
BRANCH   9  16
ATOM     16  C   UNL     1       2.474   7.715  18.515  0.00  0.00    +0.000 A 
ATOM     17  C   UNL     1       2.644   6.651  19.405  0.00  0.00    +0.000 A 
ATOM     18  C   UNL     1       3.726   5.782  19.245  0.00  0.00    +0.000 A 
ATOM     19  C   UNL     1       4.609   6.003  18.202  0.00  0.00    +0.000 A 
ATOM     20  N   UNL     1       4.480   7.014  17.319  0.00  0.00    +0.000 NA
ATOM     21  C   UNL     1       3.418   7.840  17.496  0.00  0.00    +0.000 A 
ENDBRANCH   9  16
BRANCH   1  23
ATOM     22  C   UNL     1      -6.360  11.761  17.942  0.00  0.00    +0.000 C 
ATOM     23  O   UNL     1      -5.387  12.041  16.932  0.00  0.00    +0.000 OA
ENDBRANCH   1  23
BRANCH  14  24
ATOM     24  O   UNL     1      -3.925  10.523  14.934  0.00  0.00    +0.000 OA
ATOM     25  C   UNL     1      -2.981   9.986  14.012  0.00  0.00    +0.000 C 
ENDBRANCH  14  24
BRANCH   6  26
ATOM     26  C   UNL     1      -0.963  11.454  22.714  0.00  0.00    +0.000 C 
BRANCH  26  27
ATOM     27  C   UNL     1      -1.015  12.963  22.956  0.00  0.00    +0.000 C 
BRANCH  27  28
ATOM     28  C   UNL     1      -2.426  13.434  23.217  0.00  0.00    +0.000 A 
ATOM     29  C   UNL     1      -2.663  14.674  23.828  0.00  0.00    +0.000 A 
ATOM     30  C   UNL     1      -3.967  15.097  24.093  0.00  0.00    +0.000 A 
ATOM     31  C   UNL     1      -5.048  14.285  23.755  0.00  0.00    +0.000 A 
ATOM     32  C   UNL     1      -4.824  13.049  23.151  0.00  0.00    +0.000 A 
ATOM     33  C   UNL     1      -3.521  12.623  22.886  0.00  0.00    +0.000 A 
ENDBRANCH  27  28
ENDBRANCH  26  27
ENDBRANCH   6  26
TORSDOF 6
ENDMDL
MODEL 8
REMARK VINA RESULT:      -7.2      3.931      8.599
REMARK  Name = 
REMARK  8 active torsions:
REMARK  status: ('A' for Active; 'I' for Inactive)
REMARK    1  A    between atoms: C_1  and  O_2
REMARK    2  A    between atoms: O_2  and  C_3
REMARK    3  A    between atoms: N_8  and  C_9
REMARK    4  A    between atoms: C_9  and  C_10
REMARK    5  A    between atoms: C_10  and  C_11
REMARK    6  A    between atoms: C_19  and  C_20
REMARK    7  A    between atoms: C_30  and  O_31
REMARK    8  A    between atoms: O_31  and  C_32
REMARK                            x       y       z     vdW  Elec       q    Type
REMARK                         _______ _______ _______ _____ _____    ______ ____
ROOT
ATOM      1  C   UNL     1       3.235  14.926  17.995  0.00  0.00    +0.000 A 
ATOM      2  C   UNL     1       2.954  13.560  18.032  0.00  0.00    +0.000 A 
ATOM      3  C   UNL     1       1.823  13.073  18.679  0.00  0.00    +0.000 A 
ATOM      4  N   UNL     1       1.669  11.672  18.710  0.00  0.00    +0.000 NA
ATOM      5  C   UNL     1       0.659  11.139  19.343  0.00  0.00    +0.000 A 
ATOM      6  N   UNL     1       0.488   9.769  19.428  0.00  0.00    +0.000 N 
ATOM      7  N   UNL     1      -0.266  11.985  19.989  0.00  0.00    +0.000 N 
ATOM      8  N   UNL     1      -1.289  11.529  20.735  0.00  0.00    +0.000 NA
ATOM      9  C   UNL     1      -1.824  12.680  21.186  0.00  0.00    +0.000 A 
ATOM     10  N   UNL     1      -1.173  13.824  20.739  0.00  0.00    +0.000 NA
ATOM     11  C   UNL     1      -0.188  13.351  20.002  0.00  0.00    +0.000 A 
ATOM     12  C   UNL     1       0.924  13.968  19.294  0.00  0.00    +0.000 A 
ATOM     13  C   UNL     1       1.159  15.340  19.207  0.00  0.00    +0.000 A 
ATOM     14  C   UNL     1       2.295  15.828  18.531  0.00  0.00    +0.000 A 
ATOM     15  H   UNL     1      -0.232   9.484  20.092  0.00  0.00    +0.000 HD
ENDROOT
BRANCH   9  16
ATOM     16  C   UNL     1      -2.959  12.703  22.100  0.00  0.00    +0.000 A 
ATOM     17  C   UNL     1      -2.801  12.697  23.488  0.00  0.00    +0.000 A 
ATOM     18  C   UNL     1      -3.929  12.700  24.312  0.00  0.00    +0.000 A 
ATOM     19  C   UNL     1      -5.183  12.704  23.724  0.00  0.00    +0.000 A 
ATOM     20  N   UNL     1      -5.380  12.713  22.390  0.00  0.00    +0.000 NA
ATOM     21  C   UNL     1      -4.266  12.715  21.615  0.00  0.00    +0.000 A 
ENDBRANCH   9  16
BRANCH   1  23
ATOM     22  C   UNL     1       5.598  14.783  17.958  0.00  0.00    +0.000 C 
ATOM     23  O   UNL     1       4.406  15.397  17.460  0.00  0.00    +0.000 OA
ENDBRANCH   1  23
BRANCH  14  24
ATOM     24  O   UNL     1       2.391  17.200  18.520  0.00  0.00    +0.000 OA
ATOM     25  C   UNL     1       1.527  17.907  19.405  0.00  0.00    +0.000 C 
ENDBRANCH  14  24
BRANCH   6  26
ATOM     26  C   UNL     1       1.654   8.895  19.334  0.00  0.00    +0.000 C 
BRANCH  26  27
ATOM     27  C   UNL     1       1.911   8.452  17.893  0.00  0.00    +0.000 C 
BRANCH  27  28
ATOM     28  C   UNL     1       2.719   7.178  17.840  0.00  0.00    +0.000 A 
ATOM     29  C   UNL     1       2.165   5.963  18.268  0.00  0.00    +0.000 A 
ATOM     30  C   UNL     1       2.922   4.790  18.243  0.00  0.00    +0.000 A 
ATOM     31  C   UNL     1       4.242   4.818  17.795  0.00  0.00    +0.000 A 
ATOM     32  C   UNL     1       4.804   6.021  17.371  0.00  0.00    +0.000 A 
ATOM     33  C   UNL     1       4.050   7.196  17.396  0.00  0.00    +0.000 A 
ENDBRANCH  27  28
ENDBRANCH  26  27
ENDBRANCH   6  26
TORSDOF 6
ENDMDL
MODEL 9
REMARK VINA RESULT:      -7.2      4.154      8.554
REMARK  Name = 
REMARK  8 active torsions:
REMARK  status: ('A' for Active; 'I' for Inactive)
REMARK    1  A    between atoms: C_1  and  O_2
REMARK    2  A    between atoms: O_2  and  C_3
REMARK    3  A    between atoms: N_8  and  C_9
REMARK    4  A    between atoms: C_9  and  C_10
REMARK    5  A    between atoms: C_10  and  C_11
REMARK    6  A    between atoms: C_19  and  C_20
REMARK    7  A    between atoms: C_30  and  O_31
REMARK    8  A    between atoms: O_31  and  C_32
REMARK                            x       y       z     vdW  Elec       q    Type
REMARK                         _______ _______ _______ _____ _____    ______ ____
ROOT
ATOM      1  C   UNL     1       3.363  15.162  18.389  0.00  0.00    +0.000 A 
ATOM      2  C   UNL     1       3.136  13.787  18.316  0.00  0.00    +0.000 A 
ATOM      3  C   UNL     1       1.887  13.247  18.602  0.00  0.00    +0.000 A 
ATOM      4  N   UNL     1       1.784  11.840  18.558  0.00  0.00    +0.000 NA
ATOM      5  C   UNL     1       0.657  11.258  18.866  0.00  0.00    +0.000 A 
ATOM      6  N   UNL     1       0.521   9.881  18.869  0.00  0.00    +0.000 N 
ATOM      7  N   UNL     1      -0.446  12.054  19.237  0.00  0.00    +0.000 N 
ATOM      8  N   UNL     1      -1.620  11.544  19.650  0.00  0.00    +0.000 NA
ATOM      9  C   UNL     1      -2.305  12.663  19.954  0.00  0.00    +0.000 A 
ATOM     10  N   UNL     1      -1.598  13.840  19.735  0.00  0.00    +0.000 NA
ATOM     11  C   UNL     1      -0.427  13.420  19.301  0.00  0.00    +0.000 A 
ATOM     12  C   UNL     1       0.817  14.093  18.953  0.00  0.00    +0.000 A 
ATOM     13  C   UNL     1       1.013  15.475  18.966  0.00  0.00    +0.000 A 
ATOM     14  C   UNL     1       2.275  16.018  18.653  0.00  0.00    +0.000 A 
ATOM     15  H   UNL     1      -0.347   9.554  19.294  0.00  0.00    +0.000 HD
ENDROOT
BRANCH   9  16
ATOM     16  C   UNL     1      -3.653  12.623  20.505  0.00  0.00    +0.000 A 
ATOM     17  C   UNL     1      -4.789  12.528  19.696  0.00  0.00    +0.000 A 
ATOM     18  C   UNL     1      -6.056  12.514  20.283  0.00  0.00    +0.000 A 
ATOM     19  C   UNL     1      -6.153  12.600  21.662  0.00  0.00    +0.000 A 
ATOM     20  N   UNL     1      -5.083  12.690  22.479  0.00  0.00    +0.000 NA
ATOM     21  C   UNL     1      -3.865  12.697  21.881  0.00  0.00    +0.000 A 
ENDBRANCH   9  16
BRANCH   1  23
ATOM     22  C   UNL     1       5.617  14.756  17.792  0.00  0.00    +0.000 C 
ATOM     23  O   UNL     1       4.619  15.685  18.221  0.00  0.00    +0.000 OA
ENDBRANCH   1  23
BRANCH  14  24
ATOM     24  O   UNL     1       2.318  17.392  18.698  0.00  0.00    +0.000 OA
ATOM     25  C   UNL     1       1.365  18.086  17.897  0.00  0.00    +0.000 C 
ENDBRANCH  14  24
BRANCH   6  26
ATOM     26  C   UNL     1       1.699   9.047  19.094  0.00  0.00    +0.000 C 
BRANCH  26  27
ATOM     27  C   UNL     1       2.103   8.290  17.829  0.00  0.00    +0.000 C 
BRANCH  27  28
ATOM     28  C   UNL     1       3.098   7.195  18.131  0.00  0.00    +0.000 A 
ATOM     29  C   UNL     1       4.192   6.970  17.282  0.00  0.00    +0.000 A 
ATOM     30  C   UNL     1       5.097   5.940  17.549  0.00  0.00    +0.000 A 
ATOM     31  C   UNL     1       4.917   5.122  18.663  0.00  0.00    +0.000 A 
ATOM     32  C   UNL     1       3.832   5.334  19.511  0.00  0.00    +0.000 A 
ATOM     33  C   UNL     1       2.924   6.362  19.246  0.00  0.00    +0.000 A 
ENDBRANCH  27  28
ENDBRANCH  26  27
ENDBRANCH   6  26
TORSDOF 6
ENDMDL
