MODEL 1
REMARK VINA RESULT:      -7.8      0.000      0.000
REMARK  Name = 
REMARK  8 active torsions:
REMARK  status: ('A' for Active; 'I' for Inactive)
REMARK    1  A    between atoms: C_1  and  N_2
REMARK    2  A    between atoms: N_2  and  C_3
REMARK    3  A    between atoms: N_2  and  C_4
REMARK    4  A    between atoms: C_4  and  C_5
REMARK    5  A    between atoms: C_5  and  N_6
REMARK    6  A    between atoms: C_7  and  C_9
REMARK    7  A    between atoms: C_16  and  C_17
REMARK    8  A    between atoms: C_20  and  C_21
REMARK                            x       y       z     vdW  Elec       q    Type
REMARK                         _______ _______ _______ _____ _____    ______ ____
ROOT
ATOM      1  C   UNL     1      -1.557  11.571  20.381  0.00  0.00    +0.000 A 
ATOM      2  C   UNL     1      -2.374  12.376  21.202  0.00  0.00    +0.000 A 
ATOM      3  C   UNL     1      -2.274  12.311  22.585  0.00  0.00    +0.000 A 
ATOM      4  C   UNL     1      -1.361  11.436  23.151  0.00  0.00    +0.000 A 
ATOM      5  C   UNL     1      -0.556  10.616  22.343  0.00  0.00    +0.000 A 
ATOM      6  C   UNL     1       0.337   9.726  22.938  0.00  0.00    +0.000 A 
ATOM      7  C   UNL     1       1.116   8.889  22.150  0.00  0.00    +0.000 A 
ATOM      8  C   UNL     1       1.001   8.960  20.770  0.00  0.00    +0.000 A 
ATOM      9  N   UNL     1       0.146   9.837  20.174  0.00  0.00    +0.000 NA
ATOM     10  C   UNL     1      -0.637  10.659  20.930  0.00  0.00    +0.000 A 
ENDROOT
BRANCH   8  11
ATOM     11  C   UNL     1       1.759   8.057  19.875  0.00  0.00    +0.000 A 
ATOM     12  C   UNL     1       2.116   6.766  20.294  0.00  0.00    +0.000 A 
ATOM     13  C   UNL     1       2.873   5.914  19.478  0.00  0.00    +0.000 A 
ATOM     14  C   UNL     1       3.280   6.315  18.203  0.00  0.00    +0.000 A 
ATOM     15  C   UNL     1       2.930   7.599  17.770  0.00  0.00    +0.000 A 
ATOM     16  C   UNL     1       2.180   8.451  18.592  0.00  0.00    +0.000 A 
BRANCH  14  17
ATOM     17  C   UNL     1       4.069   5.393  17.310  0.00  0.00    +0.000 C 
ATOM     18  F   UNL     1       4.536   5.992  16.179  0.00  0.00    +0.000 F 
ATOM     19  F   UNL     1       5.163   4.873  17.933  0.00  0.00    +0.000 F 
ATOM     20  F   UNL     1       3.337   4.323  16.890  0.00  0.00    +0.000 F 
ENDBRANCH  14  17
ENDBRANCH   8  11
BRANCH   1  22
ATOM     21  N   UNL     1      -2.772  11.130  18.297  0.00  0.00    +0.000 N 
ATOM     22  C   UNL     1      -1.726  11.776  18.915  0.00  0.00    +0.000 C 
ATOM     23  O   UNL     1      -0.913  12.457  18.292  0.00  0.00    +0.000 OA
ATOM     24  H   UNL     1      -3.542  10.795  18.880  0.00  0.00    +0.000 HD
BRANCH  21  25
ATOM     25  C   UNL     1      -2.993  11.265  16.874  0.00  0.00    +0.000 C 
BRANCH  25  26
ATOM     26  C   UNL     1      -4.485  11.330  16.508  0.00  0.00    +0.000 C 
BRANCH  26  28
ATOM     27  C   UNL     1      -6.189  12.981  17.018  0.00  0.00    +0.000 C 
ATOM     28  N   UNL     1      -5.341  11.918  17.559  0.00  0.00    +0.000 NA
ATOM     29  C   UNL     1      -6.164  10.878  18.178  0.00  0.00    +0.000 C 
ENDBRANCH  26  28
ENDBRANCH  25  26
ENDBRANCH  21  25
ENDBRANCH   1  22
TORSDOF 6
ENDMDL
MODEL 2
REMARK VINA RESULT:      -7.7      4.086      7.284
REMARK  Name = 
REMARK  8 active torsions:
REMARK  status: ('A' for Active; 'I' for Inactive)
REMARK    1  A    between atoms: C_1  and  N_2
REMARK    2  A    between atoms: N_2  and  C_3
REMARK    3  A    between atoms: N_2  and  C_4
REMARK    4  A    between atoms: C_4  and  C_5
REMARK    5  A    between atoms: C_5  and  N_6
REMARK    6  A    between atoms: C_7  and  C_9
REMARK    7  A    between atoms: C_16  and  C_17
REMARK    8  A    between atoms: C_20  and  C_21
REMARK                            x       y       z     vdW  Elec       q    Type
REMARK                         _______ _______ _______ _____ _____    ______ ____
ROOT
ATOM      1  C   UNL     1       2.153   5.145  19.547  0.00  0.00    +0.000 A 
ATOM      2  C   UNL     1       1.225   4.749  20.534  0.00  0.00    +0.000 A 
ATOM      3  C   UNL     1       1.006   3.405  20.804  0.00  0.00    +0.000 A 
ATOM      4  C   UNL     1       1.710   2.453  20.085  0.00  0.00    +0.000 A 
ATOM      5  C   UNL     1       2.622   2.835  19.087  0.00  0.00    +0.000 A 
ATOM      6  C   UNL     1       3.300   1.858  18.360  0.00  0.00    +0.000 A 
ATOM      7  C   UNL     1       4.180   2.223  17.352  0.00  0.00    +0.000 A 
ATOM      8  C   UNL     1       4.384   3.570  17.087  0.00  0.00    +0.000 A 
ATOM      9  N   UNL     1       3.744   4.537  17.802  0.00  0.00    +0.000 NA
ATOM     10  C   UNL     1       2.865   4.198  18.788  0.00  0.00    +0.000 A 
ENDROOT
BRANCH   8  11
ATOM     11  C   UNL     1       5.265   4.026  15.989  0.00  0.00    +0.000 A 
ATOM     12  C   UNL     1       4.984   3.688  14.656  0.00  0.00    +0.000 A 
ATOM     13  C   UNL     1       5.832   4.071  13.608  0.00  0.00    +0.000 A 
ATOM     14  C   UNL     1       6.980   4.830  13.854  0.00  0.00    +0.000 A 
ATOM     15  C   UNL     1       7.273   5.177  15.177  0.00  0.00    +0.000 A 
ATOM     16  C   UNL     1       6.427   4.783  16.224  0.00  0.00    +0.000 A 
BRANCH  14  17
ATOM     17  C   UNL     1       7.879   5.270  12.728  0.00  0.00    +0.000 C 
ATOM     18  F   UNL     1       7.884   4.419  11.665  0.00  0.00    +0.000 F 
ATOM     19  F   UNL     1       7.528   6.488  12.226  0.00  0.00    +0.000 F 
ATOM     20  F   UNL     1       9.179   5.390  13.117  0.00  0.00    +0.000 F 
ENDBRANCH  14  17
ENDBRANCH   8  11
BRANCH   1  22
ATOM     21  N   UNL     1       2.380   7.122  18.115  0.00  0.00    +0.000 N 
ATOM     22  C   UNL     1       2.333   6.615  19.394  0.00  0.00    +0.000 C 
ATOM     23  O   UNL     1       2.488   7.323  20.387  0.00  0.00    +0.000 OA
ATOM     24  H   UNL     1       2.003   6.549  17.357  0.00  0.00    +0.000 HD
BRANCH  21  25
ATOM     25  C   UNL     1       2.569   8.537  17.882  0.00  0.00    +0.000 C 
BRANCH  25  26
ATOM     26  C   UNL     1       1.255   9.332  17.959  0.00  0.00    +0.000 C 
BRANCH  26  28
ATOM     27  C   UNL     1       0.907  11.608  18.728  0.00  0.00    +0.000 C 
ATOM     28  N   UNL     1       1.154  10.224  19.133  0.00  0.00    +0.000 NA
ATOM     29  C   UNL     1       0.092   9.759  20.027  0.00  0.00    +0.000 C 
ENDBRANCH  26  28
ENDBRANCH  25  26
ENDBRANCH  21  25
ENDBRANCH   1  22
TORSDOF 6
ENDMDL
MODEL 3
REMARK VINA RESULT:      -7.5      5.447      9.385
REMARK  Name = 
REMARK  8 active torsions:
REMARK  status: ('A' for Active; 'I' for Inactive)
REMARK    1  A    between atoms: C_1  and  N_2
REMARK    2  A    between atoms: N_2  and  C_3
REMARK    3  A    between atoms: N_2  and  C_4
REMARK    4  A    between atoms: C_4  and  C_5
REMARK    5  A    between atoms: C_5  and  N_6
REMARK    6  A    between atoms: C_7  and  C_9
REMARK    7  A    between atoms: C_16  and  C_17
REMARK    8  A    between atoms: C_20  and  C_21
REMARK                            x       y       z     vdW  Elec       q    Type
REMARK                         _______ _______ _______ _____ _____    ______ ____
ROOT
ATOM      1  C   UNL     1       4.775   3.703  16.892  0.00  0.00    +0.000 A 
ATOM      2  C   UNL     1       5.573   3.106  15.893  0.00  0.00    +0.000 A 
ATOM      3  C   UNL     1       6.149   3.875  14.891  0.00  0.00    +0.000 A 
ATOM      4  C   UNL     1       5.925   5.242  14.882  0.00  0.00    +0.000 A 
ATOM      5  C   UNL     1       5.116   5.844  15.860  0.00  0.00    +0.000 A 
ATOM      6  C   UNL     1       4.885   7.218  15.814  0.00  0.00    +0.000 A 
ATOM      7  C   UNL     1       4.064   7.820  16.757  0.00  0.00    +0.000 A 
ATOM      8  C   UNL     1       3.488   7.038  17.749  0.00  0.00    +0.000 A 
ATOM      9  N   UNL     1       3.720   5.698  17.818  0.00  0.00    +0.000 NA
ATOM     10  C   UNL     1       4.514   5.086  16.893  0.00  0.00    +0.000 A 
ENDROOT
BRANCH   8  11
ATOM     11  C   UNL     1       2.558   7.606  18.750  0.00  0.00    +0.000 A 
ATOM     12  C   UNL     1       1.907   8.827  18.513  0.00  0.00    +0.000 A 
ATOM     13  C   UNL     1       1.058   9.402  19.468  0.00  0.00    +0.000 A 
ATOM     14  C   UNL     1       0.811   8.764  20.686  0.00  0.00    +0.000 A 
ATOM     15  C   UNL     1       1.451   7.546  20.937  0.00  0.00    +0.000 A 
ATOM     16  C   UNL     1       2.306   6.978  19.983  0.00  0.00    +0.000 A 
BRANCH  14  17
ATOM     17  C   UNL     1      -0.123   9.363  21.705  0.00  0.00    +0.000 C 
ATOM     18  F   UNL     1      -0.924  10.345  21.205  0.00  0.00    +0.000 F 
ATOM     19  F   UNL     1      -0.966   8.440  22.248  0.00  0.00    +0.000 F 
ATOM     20  F   UNL     1       0.540   9.923  22.755  0.00  0.00    +0.000 F 
ENDBRANCH  14  17
ENDBRANCH   8  11
BRANCH   1  22
ATOM     21  N   UNL     1       4.763   2.910  19.212  0.00  0.00    +0.000 N 
ATOM     22  C   UNL     1       4.261   2.776  17.937  0.00  0.00    +0.000 C 
ATOM     23  O   UNL     1       3.458   1.894  17.636  0.00  0.00    +0.000 OA
ATOM     24  H   UNL     1       5.218   3.790  19.459  0.00  0.00    +0.000 HD
BRANCH  21  25
ATOM     25  C   UNL     1       4.326   2.036  20.279  0.00  0.00    +0.000 C 
BRANCH  25  26
ATOM     26  C   UNL     1       3.320   2.711  21.225  0.00  0.00    +0.000 C 
BRANCH  26  28
ATOM     27  C   UNL     1       1.093   2.329  22.112  0.00  0.00    +0.000 C 
ATOM     28  N   UNL     1       1.904   2.436  20.900  0.00  0.00    +0.000 NA
ATOM     29  C   UNL     1       1.376   3.485  20.026  0.00  0.00    +0.000 C 
ENDBRANCH  26  28
ENDBRANCH  25  26
ENDBRANCH  21  25
ENDBRANCH   1  22
TORSDOF 6
ENDMDL
MODEL 4
REMARK VINA RESULT:      -7.5      1.030      1.631
REMARK  Name = 
REMARK  8 active torsions:
REMARK  status: ('A' for Active; 'I' for Inactive)
REMARK    1  A    between atoms: C_1  and  N_2
REMARK    2  A    between atoms: N_2  and  C_3
REMARK    3  A    between atoms: N_2  and  C_4
REMARK    4  A    between atoms: C_4  and  C_5
REMARK    5  A    between atoms: C_5  and  N_6
REMARK    6  A    between atoms: C_7  and  C_9
REMARK    7  A    between atoms: C_16  and  C_17
REMARK    8  A    between atoms: C_20  and  C_21
REMARK                            x       y       z     vdW  Elec       q    Type
REMARK                         _______ _______ _______ _____ _____    ______ ____
ROOT
ATOM      1  C   UNL     1      -1.290  11.713  20.403  0.00  0.00    +0.000 A 
ATOM      2  C   UNL     1      -2.091  12.585  21.172  0.00  0.00    +0.000 A 
ATOM      3  C   UNL     1      -2.118  12.489  22.556  0.00  0.00    +0.000 A 
ATOM      4  C   UNL     1      -1.349  11.518  23.177  0.00  0.00    +0.000 A 
ATOM      5  C   UNL     1      -0.563  10.632  22.421  0.00  0.00    +0.000 A 
ATOM      6  C   UNL     1       0.183   9.648  23.067  0.00  0.00    +0.000 A 
ATOM      7  C   UNL     1       0.940   8.749  22.329  0.00  0.00    +0.000 A 
ATOM      8  C   UNL     1       0.952   8.851  20.946  0.00  0.00    +0.000 A 
ATOM      9  N   UNL     1       0.244   9.819  20.301  0.00  0.00    +0.000 NA
ATOM     10  C   UNL     1      -0.516  10.705  21.007  0.00  0.00    +0.000 A 
ENDROOT
BRANCH   8  11
ATOM     11  C   UNL     1       1.691   7.890  20.098  0.00  0.00    +0.000 A 
ATOM     12  C   UNL     1       2.163   8.265  18.831  0.00  0.00    +0.000 A 
ATOM     13  C   UNL     1       2.825   7.355  17.995  0.00  0.00    +0.000 A 
ATOM     14  C   UNL     1       3.059   6.040  18.409  0.00  0.00    +0.000 A 
ATOM     15  C   UNL     1       2.597   5.651  19.670  0.00  0.00    +0.000 A 
ATOM     16  C   UNL     1       1.928   6.562  20.499  0.00  0.00    +0.000 A 
BRANCH  14  17
ATOM     17  C   UNL     1       3.796   5.065  17.527  0.00  0.00    +0.000 C 
ATOM     18  F   UNL     1       4.399   5.645  16.452  0.00  0.00    +0.000 F 
ATOM     19  F   UNL     1       4.783   4.403  18.193  0.00  0.00    +0.000 F 
ATOM     20  F   UNL     1       2.978   4.101  17.020  0.00  0.00    +0.000 F 
ENDBRANCH  14  17
ENDBRANCH   8  11
BRANCH   1  22
ATOM     21  N   UNL     1      -1.921  11.013  18.140  0.00  0.00    +0.000 N 
ATOM     22  C   UNL     1      -1.309  11.956  18.935  0.00  0.00    +0.000 C 
ATOM     23  O   UNL     1      -0.744  12.943  18.467  0.00  0.00    +0.000 OA
ATOM     24  H   UNL     1      -2.576  10.365  18.581  0.00  0.00    +0.000 HD
BRANCH  21  25
ATOM     25  C   UNL     1      -1.967  11.168  16.702  0.00  0.00    +0.000 C 
BRANCH  25  26
ATOM     26  C   UNL     1      -2.507   9.919  15.987  0.00  0.00    +0.000 C 
BRANCH  26  28
ATOM     27  C   UNL     1      -4.519  11.278  15.960  0.00  0.00    +0.000 C 
ATOM     28  N   UNL     1      -3.867  10.080  15.431  0.00  0.00    +0.000 NA
ATOM     29  C   UNL     1      -3.808  10.137  13.969  0.00  0.00    +0.000 C 
ENDBRANCH  26  28
ENDBRANCH  25  26
ENDBRANCH  21  25
ENDBRANCH   1  22
TORSDOF 6
ENDMDL
MODEL 5
REMARK VINA RESULT:      -7.5      5.294      9.099
REMARK  Name = 
REMARK  8 active torsions:
REMARK  status: ('A' for Active; 'I' for Inactive)
REMARK    1  A    between atoms: C_1  and  N_2
REMARK    2  A    between atoms: N_2  and  C_3
REMARK    3  A    between atoms: N_2  and  C_4
REMARK    4  A    between atoms: C_4  and  C_5
REMARK    5  A    between atoms: C_5  and  N_6
REMARK    6  A    between atoms: C_7  and  C_9
REMARK    7  A    between atoms: C_16  and  C_17
REMARK    8  A    between atoms: C_20  and  C_21
REMARK                            x       y       z     vdW  Elec       q    Type
REMARK                         _______ _______ _______ _____ _____    ______ ____
ROOT
ATOM      1  C   UNL     1       4.305   3.619  17.058  0.00  0.00    +0.000 A 
ATOM      2  C   UNL     1       5.137   2.871  16.198  0.00  0.00    +0.000 A 
ATOM      3  C   UNL     1       5.983   3.504  15.299  0.00  0.00    +0.000 A 
ATOM      4  C   UNL     1       5.997   4.890  15.253  0.00  0.00    +0.000 A 
ATOM      5  C   UNL     1       5.159   5.644  16.090  0.00  0.00    +0.000 A 
ATOM      6  C   UNL     1       5.173   7.036  16.007  0.00  0.00    +0.000 A 
ATOM      7  C   UNL     1       4.329   7.791  16.809  0.00  0.00    +0.000 A 
ATOM      8  C   UNL     1       3.483   7.144  17.698  0.00  0.00    +0.000 A 
ATOM      9  N   UNL     1       3.471   5.786  17.804  0.00  0.00    +0.000 NA
ATOM     10  C   UNL     1       4.284   5.026  17.016  0.00  0.00    +0.000 A 
ENDROOT
BRANCH   8  11
ATOM     11  C   UNL     1       2.518   7.886  18.539  0.00  0.00    +0.000 A 
ATOM     12  C   UNL     1       1.874   9.034  18.051  0.00  0.00    +0.000 A 
ATOM     13  C   UNL     1       0.993   9.776  18.848  0.00  0.00    +0.000 A 
ATOM     14  C   UNL     1       0.704   9.381  20.158  0.00  0.00    +0.000 A 
ATOM     15  C   UNL     1       1.336   8.238  20.659  0.00  0.00    +0.000 A 
ATOM     16  C   UNL     1       2.224   7.504  19.860  0.00  0.00    +0.000 A 
BRANCH  14  17
ATOM     17  C   UNL     1      -0.266  10.157  21.010  0.00  0.00    +0.000 C 
ATOM     18  F   UNL     1       0.313  11.167  21.718  0.00  0.00    +0.000 F 
ATOM     19  F   UNL     1      -1.256  10.740  20.277  0.00  0.00    +0.000 F 
ATOM     20  F   UNL     1      -0.896   9.372  21.928  0.00  0.00    +0.000 F 
ENDBRANCH  14  17
ENDBRANCH   8  11
BRANCH   1  22
ATOM     21  N   UNL     1       2.135   3.074  18.059  0.00  0.00    +0.000 N 
ATOM     22  C   UNL     1       3.486   2.819  18.010  0.00  0.00    +0.000 C 
ATOM     23  O   UNL     1       4.029   2.006  18.755  0.00  0.00    +0.000 OA
ATOM     24  H   UNL     1       1.708   3.560  17.267  0.00  0.00    +0.000 HD
BRANCH  21  25
ATOM     25  C   UNL     1       1.274   2.351  18.970  0.00  0.00    +0.000 C 
BRANCH  25  26
ATOM     26  C   UNL     1       0.603   3.268  20.006  0.00  0.00    +0.000 C 
BRANCH  26  28
ATOM     27  C   UNL     1       2.037   2.131  21.600  0.00  0.00    +0.000 C 
ATOM     28  N   UNL     1       1.336   3.375  21.285  0.00  0.00    +0.000 NA
ATOM     29  C   UNL     1       2.282   4.491  21.229  0.00  0.00    +0.000 C 
ENDBRANCH  26  28
ENDBRANCH  25  26
ENDBRANCH  21  25
ENDBRANCH   1  22
TORSDOF 6
ENDMDL
MODEL 6
REMARK VINA RESULT:      -7.4      5.276      9.088
REMARK  Name = 
REMARK  8 active torsions:
REMARK  status: ('A' for Active; 'I' for Inactive)
REMARK    1  A    between atoms: C_1  and  N_2
REMARK    2  A    between atoms: N_2  and  C_3
REMARK    3  A    between atoms: N_2  and  C_4
REMARK    4  A    between atoms: C_4  and  C_5
REMARK    5  A    between atoms: C_5  and  N_6
REMARK    6  A    between atoms: C_7  and  C_9
REMARK    7  A    between atoms: C_16  and  C_17
REMARK    8  A    between atoms: C_20  and  C_21
REMARK                            x       y       z     vdW  Elec       q    Type
REMARK                         _______ _______ _______ _____ _____    ______ ____
ROOT
ATOM      1  C   UNL     1       4.493   3.706  17.148  0.00  0.00    +0.000 A 
ATOM      2  C   UNL     1       5.302   2.931  16.290  0.00  0.00    +0.000 A 
ATOM      3  C   UNL     1       6.061   3.531  15.295  0.00  0.00    +0.000 A 
ATOM      4  C   UNL     1       6.010   4.908  15.151  0.00  0.00    +0.000 A 
ATOM      5  C   UNL     1       5.193   5.688  15.986  0.00  0.00    +0.000 A 
ATOM      6  C   UNL     1       5.139   7.069  15.805  0.00  0.00    +0.000 A 
ATOM      7  C   UNL     1       4.313   7.846  16.604  0.00  0.00    +0.000 A 
ATOM      8  C   UNL     1       3.554   7.232  17.590  0.00  0.00    +0.000 A 
ATOM      9  N   UNL     1       3.610   5.887  17.792  0.00  0.00    +0.000 NA
ATOM     10  C   UNL     1       4.406   5.104  17.008  0.00  0.00    +0.000 A 
ENDROOT
BRANCH   8  11
ATOM     11  C   UNL     1       2.610   7.995  18.438  0.00  0.00    +0.000 A 
ATOM     12  C   UNL     1       2.278   7.546  19.725  0.00  0.00    +0.000 A 
ATOM     13  C   UNL     1       1.352   8.229  20.524  0.00  0.00    +0.000 A 
ATOM     14  C   UNL     1       0.742   9.403  20.072  0.00  0.00    +0.000 A 
ATOM     15  C   UNL     1       1.064   9.865  18.792  0.00  0.00    +0.000 A 
ATOM     16  C   UNL     1       1.984   9.173  17.992  0.00  0.00    +0.000 A 
BRANCH  14  17
ATOM     17  C   UNL     1      -0.232  10.159  20.938  0.00  0.00    +0.000 C 
ATOM     18  F   UNL     1      -0.815   9.395  21.903  0.00  0.00    +0.000 F 
ATOM     19  F   UNL     1       0.352  11.201  21.593  0.00  0.00    +0.000 F 
ATOM     20  F   UNL     1      -1.256  10.698  20.220  0.00  0.00    +0.000 F 
ENDBRANCH  14  17
ENDBRANCH   8  11
BRANCH   1  22
ATOM     21  N   UNL     1       2.422   2.737  18.032  0.00  0.00    +0.000 N 
ATOM     22  C   UNL     1       3.771   2.946  18.205  0.00  0.00    +0.000 C 
ATOM     23  O   UNL     1       4.370   2.577  19.214  0.00  0.00    +0.000 OA
ATOM     24  H   UNL     1       2.037   2.835  17.091  0.00  0.00    +0.000 HD
BRANCH  21  25
ATOM     25  C   UNL     1       1.647   2.021  19.023  0.00  0.00    +0.000 C 
BRANCH  25  26
ATOM     26  C   UNL     1       0.721   2.944  19.831  0.00  0.00    +0.000 C 
BRANCH  26  28
ATOM     27  C   UNL     1       2.015   2.186  21.740  0.00  0.00    +0.000 C 
ATOM     28  N   UNL     1       1.227   3.283  21.178  0.00  0.00    +0.000 NA
ATOM     29  C   UNL     1       2.028   4.507  21.121  0.00  0.00    +0.000 C 
ENDBRANCH  26  28
ENDBRANCH  25  26
ENDBRANCH  21  25
ENDBRANCH   1  22
TORSDOF 6
ENDMDL
MODEL 7
REMARK VINA RESULT:      -7.4      1.193      1.481
REMARK  Name = 
REMARK  8 active torsions:
REMARK  status: ('A' for Active; 'I' for Inactive)
REMARK    1  A    between atoms: C_1  and  N_2
REMARK    2  A    between atoms: N_2  and  C_3
REMARK    3  A    between atoms: N_2  and  C_4
REMARK    4  A    between atoms: C_4  and  C_5
REMARK    5  A    between atoms: C_5  and  N_6
REMARK    6  A    between atoms: C_7  and  C_9
REMARK    7  A    between atoms: C_16  and  C_17
REMARK    8  A    between atoms: C_20  and  C_21
REMARK                            x       y       z     vdW  Elec       q    Type
REMARK                         _______ _______ _______ _____ _____    ______ ____
ROOT
ATOM      1  C   UNL     1      -1.319  11.353  20.292  0.00  0.00    +0.000 A 
ATOM      2  C   UNL     1      -2.051  12.298  21.043  0.00  0.00    +0.000 A 
ATOM      3  C   UNL     1      -1.907  12.374  22.422  0.00  0.00    +0.000 A 
ATOM      4  C   UNL     1      -1.035  11.502  23.054  0.00  0.00    +0.000 A 
ATOM      5  C   UNL     1      -0.316  10.546  22.319  0.00  0.00    +0.000 A 
ATOM      6  C   UNL     1       0.537   9.664  22.981  0.00  0.00    +0.000 A 
ATOM      7  C   UNL     1       1.229   8.695  22.269  0.00  0.00    +0.000 A 
ATOM      8  C   UNL     1       1.070   8.625  20.892  0.00  0.00    +0.000 A 
ATOM      9  N   UNL     1       0.256   9.492  20.228  0.00  0.00    +0.000 NA
ATOM     10  C   UNL     1      -0.443  10.443  20.912  0.00  0.00    +0.000 A 
ENDROOT
BRANCH   8  11
ATOM     11  C   UNL     1       1.734   7.581  20.081  0.00  0.00    +0.000 A 
ATOM     12  C   UNL     1       1.860   6.269  20.563  0.00  0.00    +0.000 A 
ATOM     13  C   UNL     1       2.525   5.278  19.828  0.00  0.00    +0.000 A 
ATOM     14  C   UNL     1       3.069   5.560  18.572  0.00  0.00    +0.000 A 
ATOM     15  C   UNL     1       2.951   6.862  18.076  0.00  0.00    +0.000 A 
ATOM     16  C   UNL     1       2.292   7.853  18.818  0.00  0.00    +0.000 A 
BRANCH  14  17
ATOM     17  C   UNL     1       3.760   4.492  17.765  0.00  0.00    +0.000 C 
ATOM     18  F   UNL     1       4.259   4.937  16.578  0.00  0.00    +0.000 F 
ATOM     19  F   UNL     1       4.817   3.939  18.425  0.00  0.00    +0.000 F 
ATOM     20  F   UNL     1       2.932   3.455  17.455  0.00  0.00    +0.000 F 
ENDBRANCH  14  17
ENDBRANCH   8  11
BRANCH   1  22
ATOM     21  N   UNL     1      -1.640  10.219  18.142  0.00  0.00    +0.000 N 
ATOM     22  C   UNL     1      -1.525  11.412  18.819  0.00  0.00    +0.000 C 
ATOM     23  O   UNL     1      -1.533  12.498  18.242  0.00  0.00    +0.000 OA
ATOM     24  H   UNL     1      -1.875   9.382  18.680  0.00  0.00    +0.000 HD
BRANCH  21  25
ATOM     25  C   UNL     1      -1.825  10.191  16.708  0.00  0.00    +0.000 C 
BRANCH  25  26
ATOM     26  C   UNL     1      -3.073   9.400  16.285  0.00  0.00    +0.000 C 
BRANCH  26  28
ATOM     27  C   UNL     1      -4.268  11.486  15.952  0.00  0.00    +0.000 C 
ATOM     28  N   UNL     1      -4.002  10.152  15.415  0.00  0.00    +0.000 NA
ATOM     29  C   UNL     1      -3.454  10.249  14.061  0.00  0.00    +0.000 C 
ENDBRANCH  26  28
ENDBRANCH  25  26
ENDBRANCH  21  25
ENDBRANCH   1  22
TORSDOF 6
ENDMDL
MODEL 8
REMARK VINA RESULT:      -7.4      3.606      5.096
REMARK  Name = 
REMARK  8 active torsions:
REMARK  status: ('A' for Active; 'I' for Inactive)
REMARK    1  A    between atoms: C_1  and  N_2
REMARK    2  A    between atoms: N_2  and  C_3
REMARK    3  A    between atoms: N_2  and  C_4
REMARK    4  A    between atoms: C_4  and  C_5
REMARK    5  A    between atoms: C_5  and  N_6
REMARK    6  A    between atoms: C_7  and  C_9
REMARK    7  A    between atoms: C_16  and  C_17
REMARK    8  A    between atoms: C_20  and  C_21
REMARK                            x       y       z     vdW  Elec       q    Type
REMARK                         _______ _______ _______ _____ _____    ______ ____
ROOT
ATOM      1  C   UNL     1       1.143   9.932  19.709  0.00  0.00    +0.000 A 
ATOM      2  C   UNL     1       0.247  10.503  20.639  0.00  0.00    +0.000 A 
ATOM      3  C   UNL     1      -0.265   9.749  21.685  0.00  0.00    +0.000 A 
ATOM      4  C   UNL     1       0.111   8.421  21.803  0.00  0.00    +0.000 A 
ATOM      5  C   UNL     1       0.987   7.837  20.872  0.00  0.00    +0.000 A 
ATOM      6  C   UNL     1       1.331   6.492  20.998  0.00  0.00    +0.000 A 
ATOM      7  C   UNL     1       2.171   5.897  20.068  0.00  0.00    +0.000 A 
ATOM      8  C   UNL     1       2.671   6.660  19.022  0.00  0.00    +0.000 A 
ATOM      9  N   UNL     1       2.359   7.980  18.897  0.00  0.00    +0.000 NA
ATOM     10  C   UNL     1       1.524   8.580  19.794  0.00  0.00    +0.000 A 
ENDROOT
BRANCH   8  11
ATOM     11  C   UNL     1       3.524   6.074  17.965  0.00  0.00    +0.000 A 
ATOM     12  C   UNL     1       4.320   6.892  17.148  0.00  0.00    +0.000 A 
ATOM     13  C   UNL     1       5.099   6.359  16.113  0.00  0.00    +0.000 A 
ATOM     14  C   UNL     1       5.128   4.982  15.873  0.00  0.00    +0.000 A 
ATOM     15  C   UNL     1       4.343   4.152  16.680  0.00  0.00    +0.000 A 
ATOM     16  C   UNL     1       3.558   4.691  17.709  0.00  0.00    +0.000 A 
BRANCH  14  17
ATOM     17  C   UNL     1       5.987   4.399  14.780  0.00  0.00    +0.000 C 
ATOM     18  F   UNL     1       7.071   5.163  14.468  0.00  0.00    +0.000 F 
ATOM     19  F   UNL     1       6.480   3.171  15.103  0.00  0.00    +0.000 F 
ATOM     20  F   UNL     1       5.302   4.230  13.615  0.00  0.00    +0.000 F 
ENDBRANCH  14  17
ENDBRANCH   8  11
BRANCH   1  22
ATOM     21  N   UNL     1       1.829  12.182  19.018  0.00  0.00    +0.000 N 
ATOM     22  C   UNL     1       1.660  10.862  18.667  0.00  0.00    +0.000 C 
ATOM     23  O   UNL     1       1.868  10.452  17.527  0.00  0.00    +0.000 OA
ATOM     24  H   UNL     1       1.885  12.412  20.012  0.00  0.00    +0.000 HD
BRANCH  21  25
ATOM     25  C   UNL     1       2.311  13.151  18.057  0.00  0.00    +0.000 C 
BRANCH  25  26
ATOM     26  C   UNL     1       2.175  14.599  18.555  0.00  0.00    +0.000 C 
BRANCH  26  28
ATOM     27  C   UNL     1       3.899  14.838  20.248  0.00  0.00    +0.000 C 
ATOM     28  N   UNL     1       3.458  15.240  18.912  0.00  0.00    +0.000 NA
ATOM     29  C   UNL     1       4.480  14.906  17.918  0.00  0.00    +0.000 C 
ENDBRANCH  26  28
ENDBRANCH  25  26
ENDBRANCH  21  25
ENDBRANCH   1  22
TORSDOF 6
ENDMDL
MODEL 9
REMARK VINA RESULT:      -7.4      2.912      4.479
REMARK  Name = 
REMARK  8 active torsions:
REMARK  status: ('A' for Active; 'I' for Inactive)
REMARK    1  A    between atoms: C_1  and  N_2
REMARK    2  A    between atoms: N_2  and  C_3
REMARK    3  A    between atoms: N_2  and  C_4
REMARK    4  A    between atoms: C_4  and  C_5
REMARK    5  A    between atoms: C_5  and  N_6
REMARK    6  A    between atoms: C_7  and  C_9
REMARK    7  A    between atoms: C_16  and  C_17
REMARK    8  A    between atoms: C_20  and  C_21
REMARK                            x       y       z     vdW  Elec       q    Type
REMARK                         _______ _______ _______ _____ _____    ______ ____
ROOT
ATOM      1  C   UNL     1      -0.090  12.383  20.598  0.00  0.00    +0.000 A 
ATOM      2  C   UNL     1      -0.927  13.229  21.356  0.00  0.00    +0.000 A 
ATOM      3  C   UNL     1      -1.549  12.766  22.507  0.00  0.00    +0.000 A 
ATOM      4  C   UNL     1      -1.340  11.454  22.902  0.00  0.00    +0.000 A 
ATOM      5  C   UNL     1      -0.526  10.597  22.143  0.00  0.00    +0.000 A 
ATOM      6  C   UNL     1      -0.352   9.274  22.547  0.00  0.00    +0.000 A 
ATOM      7  C   UNL     1       0.427   8.410  21.790  0.00  0.00    +0.000 A 
ATOM      8  C   UNL     1       1.037   8.884  20.637  0.00  0.00    +0.000 A 
ATOM      9  N   UNL     1       0.892  10.179  20.240  0.00  0.00    +0.000 NA
ATOM     10  C   UNL     1       0.120  11.040  20.964  0.00  0.00    +0.000 A 
ENDROOT
BRANCH   8  11
ATOM     11  C   UNL     1       1.832   8.002  19.755  0.00  0.00    +0.000 A 
ATOM     12  C   UNL     1       2.230   6.726  20.185  0.00  0.00    +0.000 A 
ATOM     13  C   UNL     1       3.022   5.895  19.381  0.00  0.00    +0.000 A 
ATOM     14  C   UNL     1       3.425   6.302  18.106  0.00  0.00    +0.000 A 
ATOM     15  C   UNL     1       3.035   7.570  17.662  0.00  0.00    +0.000 A 
ATOM     16  C   UNL     1       2.250   8.401  18.473  0.00  0.00    +0.000 A 
BRANCH  14  17
ATOM     17  C   UNL     1       4.251   5.401  17.226  0.00  0.00    +0.000 C 
ATOM     18  F   UNL     1       3.611   4.258  16.855  0.00  0.00    +0.000 F 
ATOM     19  F   UNL     1       4.627   6.008  16.065  0.00  0.00    +0.000 F 
ATOM     20  F   UNL     1       5.407   5.002  17.827  0.00  0.00    +0.000 F 
ENDBRANCH  14  17
ENDBRANCH   8  11
BRANCH   1  22
ATOM     21  N   UNL     1       1.933  13.055  19.387  0.00  0.00    +0.000 N 
ATOM     22  C   UNL     1       0.557  13.017  19.417  0.00  0.00    +0.000 C 
ATOM     23  O   UNL     1      -0.133  13.531  18.539  0.00  0.00    +0.000 OA
ATOM     24  H   UNL     1       2.445  12.410  19.993  0.00  0.00    +0.000 HD
BRANCH  21  25
ATOM     25  C   UNL     1       2.637  13.669  18.282  0.00  0.00    +0.000 C 
BRANCH  25  26
ATOM     26  C   UNL     1       2.979  15.145  18.543  0.00  0.00    +0.000 C 
BRANCH  26  28
ATOM     27  C   UNL     1       4.746  15.041  20.204  0.00  0.00    +0.000 C 
ATOM     28  N   UNL     1       4.408  15.395  18.826  0.00  0.00    +0.000 NA
ATOM     29  C   UNL     1       5.244  14.644  17.888  0.00  0.00    +0.000 C 
ENDBRANCH  26  28
ENDBRANCH  25  26
ENDBRANCH  21  25
ENDBRANCH   1  22
TORSDOF 6
ENDMDL
