MODEL 1
REMARK VINA RESULT:      -8.1      0.000      0.000
REMARK  Name = 
REMARK  4 active torsions:
REMARK  status: ('A' for Active; 'I' for Inactive)
REMARK    1  A    between atoms: O_1  and  C_2
REMARK    2  A    between atoms: C_5  and  N_6
REMARK    3  A    between atoms: C_10  and  C_11
REMARK    4  A    between atoms: C_16  and  C_17
REMARK                            x       y       z     vdW  Elec       q    Type
REMARK                         _______ _______ _______ _____ _____    ______ ____
ROOT
ATOM      1  N   UNL     1       1.230   9.122  20.375  0.00  0.00    +0.000 N 
ATOM      2  C   UNL     1       1.795   8.193  19.560  0.00  0.00    +0.000 A 
ATOM      3  N   UNL     1       2.180   8.375  18.321  0.00  0.00    +0.000 NA
ATOM      4  C   UNL     1       2.573   7.195  17.737  0.00  0.00    +0.000 A 
ATOM      5  C   UNL     1       2.558   6.085  18.556  0.00  0.00    +0.000 A 
ATOM      6  S   UNL     1       2.021   6.576  20.124  0.00  0.00    +0.000 S 
ATOM      7  H   UNL     1       0.860   8.792  21.256  0.00  0.00    +0.000 HD
ENDROOT
BRANCH   1  11
ATOM      8  C   UNL     1      -0.319  12.755  18.896  0.00  0.00    +0.000 A 
ATOM      9  C   UNL     1      -1.087  11.600  18.852  0.00  0.00    +0.000 A 
ATOM     10  C   UNL     1      -0.574  10.408  19.383  0.00  0.00    +0.000 A 
ATOM     11  C   UNL     1       0.708  10.364  19.954  0.00  0.00    +0.000 A 
ATOM     12  C   UNL     1       1.436  11.566  20.017  0.00  0.00    +0.000 A 
ATOM     13  C   UNL     1       0.932  12.751  19.483  0.00  0.00    +0.000 A 
BRANCH   8  14
ATOM     14  O   UNL     1      -0.764  13.932  18.368  0.00  0.00    +0.000 OA
ATOM     15  H   UNL     1      -0.038  14.346  17.877  0.00  0.00    +0.000 HD
ENDBRANCH   8  14
ENDBRANCH   1  11
BRANCH   5  16
ATOM     16  C   UNL     1       2.929   4.687  18.270  0.00  0.00    +0.000 A 
ATOM     17  C   UNL     1       1.876   3.753  18.168  0.00  0.00    +0.000 A 
ATOM     18  C   UNL     1       2.151   2.432  17.891  0.00  0.00    +0.000 A 
ATOM     19  N   UNL     1       3.399   1.967  17.718  0.00  0.00    +0.000 NA
ATOM     20  C   UNL     1       4.403   2.874  17.816  0.00  0.00    +0.000 A 
ATOM     21  C   UNL     1       4.266   4.250  18.058  0.00  0.00    +0.000 A 
BRANCH  21  22
ATOM     22  C   UNL     1       5.491   5.115  18.119  0.00  0.00    +0.000 A 
ATOM     23  C   UNL     1       6.273   5.148  19.297  0.00  0.00    +0.000 A 
ATOM     24  C   UNL     1       7.382   5.990  19.439  0.00  0.00    +0.000 A 
ATOM     25  C   UNL     1       7.814   6.759  18.370  0.00  0.00    +0.000 A 
ATOM     26  C   UNL     1       7.112   6.711  17.171  0.00  0.00    +0.000 A 
ATOM     27  C   UNL     1       5.949   5.930  17.054  0.00  0.00    +0.000 A 
ATOM     28 CL   UNL     1       5.104   6.101  15.548  0.00  0.00    +0.000 Cl
ENDBRANCH  21  22
ENDBRANCH   5  16
TORSDOF 4
ENDMDL
MODEL 2
REMARK VINA RESULT:      -7.4      2.387      3.818
REMARK  Name = 
REMARK  4 active torsions:
REMARK  status: ('A' for Active; 'I' for Inactive)
REMARK    1  A    between atoms: O_1  and  C_2
REMARK    2  A    between atoms: C_5  and  N_6
REMARK    3  A    between atoms: C_10  and  C_11
REMARK    4  A    between atoms: C_16  and  C_17
REMARK                            x       y       z     vdW  Elec       q    Type
REMARK                         _______ _______ _______ _____ _____    ______ ____
ROOT
ATOM      1  N   UNL     1       0.766  10.038  19.079  0.00  0.00    +0.000 N 
ATOM      2  C   UNL     1       1.484   8.885  19.087  0.00  0.00    +0.000 A 
ATOM      3  N   UNL     1       1.709   8.114  20.122  0.00  0.00    +0.000 NA
ATOM      4  C   UNL     1       2.592   7.106  19.817  0.00  0.00    +0.000 A 
ATOM      5  C   UNL     1       3.010   7.051  18.504  0.00  0.00    +0.000 A 
ATOM      6  S   UNL     1       2.244   8.334  17.636  0.00  0.00    +0.000 S 
ATOM      7  H   UNL     1       0.799  10.591  18.233  0.00  0.00    +0.000 HD
ENDROOT
BRANCH   1  11
ATOM      8  C   UNL     1      -0.651  12.158  22.438  0.00  0.00    +0.000 A 
ATOM      9  C   UNL     1      -0.893  10.797  22.319  0.00  0.00    +0.000 A 
ATOM     10  C   UNL     1      -0.383  10.097  21.217  0.00  0.00    +0.000 A 
ATOM     11  C   UNL     1       0.366  10.755  20.228  0.00  0.00    +0.000 A 
ATOM     12  C   UNL     1       0.624  12.126  20.408  0.00  0.00    +0.000 A 
ATOM     13  C   UNL     1       0.112  12.826  21.498  0.00  0.00    +0.000 A 
BRANCH   8  14
ATOM     14  O   UNL     1      -1.150  12.887  23.478  0.00  0.00    +0.000 OA
ATOM     15  H   UNL     1      -0.410  13.221  24.006  0.00  0.00    +0.000 HD
ENDBRANCH   8  14
ENDBRANCH   1  11
BRANCH   5  16
ATOM     16  C   UNL     1       3.924   6.105  17.837  0.00  0.00    +0.000 A 
ATOM     17  C   UNL     1       4.852   6.648  16.923  0.00  0.00    +0.000 A 
ATOM     18  C   UNL     1       5.743   5.823  16.272  0.00  0.00    +0.000 A 
ATOM     19  N   UNL     1       5.773   4.493  16.455  0.00  0.00    +0.000 NA
ATOM     20  C   UNL     1       4.878   3.982  17.338  0.00  0.00    +0.000 A 
ATOM     21  C   UNL     1       3.942   4.706  18.092  0.00  0.00    +0.000 A 
BRANCH  21  22
ATOM     22  C   UNL     1       3.034   3.977  19.040  0.00  0.00    +0.000 A 
ATOM     23  C   UNL     1       3.538   3.497  20.271  0.00  0.00    +0.000 A 
ATOM     24  C   UNL     1       2.759   2.747  21.160  0.00  0.00    +0.000 A 
ATOM     25  C   UNL     1       1.415   2.536  20.901  0.00  0.00    +0.000 A 
ATOM     26  C   UNL     1       0.860   3.044  19.732  0.00  0.00    +0.000 A 
ATOM     27  C   UNL     1       1.660   3.724  18.797  0.00  0.00    +0.000 A 
ATOM     28 CL   UNL     1       0.854   4.156  17.323  0.00  0.00    +0.000 Cl
ENDBRANCH  21  22
ENDBRANCH   5  16
TORSDOF 4
ENDMDL
MODEL 3
REMARK VINA RESULT:      -7.4      1.248      1.700
REMARK  Name = 
REMARK  4 active torsions:
REMARK  status: ('A' for Active; 'I' for Inactive)
REMARK    1  A    between atoms: O_1  and  C_2
REMARK    2  A    between atoms: C_5  and  N_6
REMARK    3  A    between atoms: C_10  and  C_11
REMARK    4  A    between atoms: C_16  and  C_17
REMARK                            x       y       z     vdW  Elec       q    Type
REMARK                         _______ _______ _______ _____ _____    ______ ____
ROOT
ATOM      1  N   UNL     1       1.358   8.937  20.278  0.00  0.00    +0.000 N 
ATOM      2  C   UNL     1       1.804   7.884  19.544  0.00  0.00    +0.000 A 
ATOM      3  N   UNL     1       2.021   7.871  18.252  0.00  0.00    +0.000 NA
ATOM      4  C   UNL     1       2.327   6.609  17.805  0.00  0.00    +0.000 A 
ATOM      5  C   UNL     1       2.415   5.632  18.774  0.00  0.00    +0.000 A 
ATOM      6  S   UNL     1       2.094   6.362  20.309  0.00  0.00    +0.000 S 
ATOM      7  H   UNL     1       1.108   8.749  21.240  0.00  0.00    +0.000 HD
ENDROOT
BRANCH   1  11
ATOM      8  C   UNL     1      -0.366  12.346  18.494  0.00  0.00    +0.000 A 
ATOM      9  C   UNL     1      -1.152  11.242  18.791  0.00  0.00    +0.000 A 
ATOM     10  C   UNL     1      -0.573  10.131  19.420  0.00  0.00    +0.000 A 
ATOM     11  C   UNL     1       0.792  10.116  19.749  0.00  0.00    +0.000 A 
ATOM     12  C   UNL     1       1.544  11.272  19.469  0.00  0.00    +0.000 A 
ATOM     13  C   UNL     1       0.973  12.375  18.837  0.00  0.00    +0.000 A 
BRANCH   8  14
ATOM     14  O   UNL     1      -0.878  13.440  17.858  0.00  0.00    +0.000 OA
ATOM     15  H   UNL     1      -1.197  13.169  16.984  0.00  0.00    +0.000 HD
ENDBRANCH   8  14
ENDBRANCH   1  11
BRANCH   5  16
ATOM     16  C   UNL     1       2.736   4.198  18.654  0.00  0.00    +0.000 A 
ATOM     17  C   UNL     1       1.847   3.289  19.266  0.00  0.00    +0.000 A 
ATOM     18  C   UNL     1       2.081   1.934  19.183  0.00  0.00    +0.000 A 
ATOM     19  N   UNL     1       3.142   1.415  18.543  0.00  0.00    +0.000 NA
ATOM     20  C   UNL     1       3.988   2.297  17.956  0.00  0.00    +0.000 A 
ATOM     21  C   UNL     1       3.854   3.694  17.932  0.00  0.00    +0.000 A 
BRANCH  21  22
ATOM     22  C   UNL     1       4.881   4.524  17.218  0.00  0.00    +0.000 A 
ATOM     23  C   UNL     1       4.864   4.605  15.807  0.00  0.00    +0.000 A 
ATOM     24  C   UNL     1       5.838   5.302  15.082  0.00  0.00    +0.000 A 
ATOM     25  C   UNL     1       6.812   6.031  15.747  0.00  0.00    +0.000 A 
ATOM     26  C   UNL     1       6.829   6.031  17.137  0.00  0.00    +0.000 A 
ATOM     27  C   UNL     1       5.903   5.264  17.864  0.00  0.00    +0.000 A 
ATOM     28 CL   UNL     1       6.157   5.247  19.581  0.00  0.00    +0.000 Cl
ENDBRANCH  21  22
ENDBRANCH   5  16
TORSDOF 4
ENDMDL
MODEL 4
REMARK VINA RESULT:      -7.2      2.380      4.072
REMARK  Name = 
REMARK  4 active torsions:
REMARK  status: ('A' for Active; 'I' for Inactive)
REMARK    1  A    between atoms: O_1  and  C_2
REMARK    2  A    between atoms: C_5  and  N_6
REMARK    3  A    between atoms: C_10  and  C_11
REMARK    4  A    between atoms: C_16  and  C_17
REMARK                            x       y       z     vdW  Elec       q    Type
REMARK                         _______ _______ _______ _____ _____    ______ ____
ROOT
ATOM      1  N   UNL     1       0.938   9.818  19.022  0.00  0.00    +0.000 N 
ATOM      2  C   UNL     1       1.675   8.677  18.982  0.00  0.00    +0.000 A 
ATOM      3  N   UNL     1       1.867   7.838  19.970  0.00  0.00    +0.000 NA
ATOM      4  C   UNL     1       2.779   6.867  19.637  0.00  0.00    +0.000 A 
ATOM      5  C   UNL     1       3.257   6.909  18.344  0.00  0.00    +0.000 A 
ATOM      6  S   UNL     1       2.509   8.240  17.533  0.00  0.00    +0.000 S 
ATOM      7  H   UNL     1       1.001  10.430  18.219  0.00  0.00    +0.000 HD
ENDROOT
BRANCH   1  11
ATOM      8  C   UNL     1      -0.664  11.652  22.464  0.00  0.00    +0.000 A 
ATOM      9  C   UNL     1      -0.757  10.278  22.299  0.00  0.00    +0.000 A 
ATOM     10  C   UNL     1      -0.185   9.677  21.169  0.00  0.00    +0.000 A 
ATOM     11  C   UNL     1       0.475  10.446  20.198  0.00  0.00    +0.000 A 
ATOM     12  C   UNL     1       0.584  11.830  20.425  0.00  0.00    +0.000 A 
ATOM     13  C   UNL     1       0.010  12.431  21.543  0.00  0.00    +0.000 A 
BRANCH   8  14
ATOM     14  O   UNL     1      -1.228  12.285  23.534  0.00  0.00    +0.000 OA
ATOM     15  H   UNL     1      -1.761  13.027  23.209  0.00  0.00    +0.000 HD
ENDBRANCH   8  14
ENDBRANCH   1  11
BRANCH   5  16
ATOM     16  C   UNL     1       4.216   6.026  17.654  0.00  0.00    +0.000 A 
ATOM     17  C   UNL     1       5.338   6.640  17.059  0.00  0.00    +0.000 A 
ATOM     18  C   UNL     1       6.280   5.873  16.409  0.00  0.00    +0.000 A 
ATOM     19  N   UNL     1       6.182   4.538  16.296  0.00  0.00    +0.000 NA
ATOM     20  C   UNL     1       5.100   3.958  16.874  0.00  0.00    +0.000 A 
ATOM     21  C   UNL     1       4.087   4.611  17.594  0.00  0.00    +0.000 A 
BRANCH  21  22
ATOM     22  C   UNL     1       2.965   3.807  18.184  0.00  0.00    +0.000 A 
ATOM     23  C   UNL     1       1.645   3.985  17.709  0.00  0.00    +0.000 A 
ATOM     24  C   UNL     1       0.549   3.319  18.269  0.00  0.00    +0.000 A 
ATOM     25  C   UNL     1       0.742   2.371  19.261  0.00  0.00    +0.000 A 
ATOM     26  C   UNL     1       2.031   2.117  19.715  0.00  0.00    +0.000 A 
ATOM     27  C   UNL     1       3.123   2.845  19.213  0.00  0.00    +0.000 A 
ATOM     28 CL   UNL     1       4.639   2.520  19.994  0.00  0.00    +0.000 Cl
ENDBRANCH  21  22
ENDBRANCH   5  16
TORSDOF 4
ENDMDL
MODEL 5
REMARK VINA RESULT:      -7.1      2.401      3.998
REMARK  Name = 
REMARK  4 active torsions:
REMARK  status: ('A' for Active; 'I' for Inactive)
REMARK    1  A    between atoms: O_1  and  C_2
REMARK    2  A    between atoms: C_5  and  N_6
REMARK    3  A    between atoms: C_10  and  C_11
REMARK    4  A    between atoms: C_16  and  C_17
REMARK                            x       y       z     vdW  Elec       q    Type
REMARK                         _______ _______ _______ _____ _____    ______ ____
ROOT
ATOM      1  N   UNL     1       1.452   8.087  21.252  0.00  0.00    +0.000 N 
ATOM      2  C   UNL     1       2.089   7.858  20.074  0.00  0.00    +0.000 A 
ATOM      3  N   UNL     1       2.116   8.655  19.035  0.00  0.00    +0.000 NA
ATOM      4  C   UNL     1       2.725   8.059  17.958  0.00  0.00    +0.000 A 
ATOM      5  C   UNL     1       3.241   6.799  18.181  0.00  0.00    +0.000 A 
ATOM      6  S   UNL     1       2.933   6.370  19.827  0.00  0.00    +0.000 S 
ATOM      7  H   UNL     1       1.408   7.316  21.905  0.00  0.00    +0.000 HD
ENDROOT
BRANCH   1  11
ATOM      8  C   UNL     1      -1.276  11.247  21.850  0.00  0.00    +0.000 A 
ATOM      9  C   UNL     1      -0.857  10.920  20.568  0.00  0.00    +0.000 A 
ATOM     10  C   UNL     1       0.019   9.842  20.381  0.00  0.00    +0.000 A 
ATOM     11  C   UNL     1       0.484   9.091  21.472  0.00  0.00    +0.000 A 
ATOM     12  C   UNL     1       0.003   9.428  22.750  0.00  0.00    +0.000 A 
ATOM     13  C   UNL     1      -0.863  10.504  22.940  0.00  0.00    +0.000 A 
BRANCH   8  14
ATOM     14  O   UNL     1      -2.106  12.304  22.085  0.00  0.00    +0.000 OA
ATOM     15  H   UNL     1      -1.570  13.065  22.354  0.00  0.00    +0.000 HD
ENDBRANCH   8  14
ENDBRANCH   1  11
BRANCH   5  16
ATOM     16  C   UNL     1       3.963   5.892  17.269  0.00  0.00    +0.000 A 
ATOM     17  C   UNL     1       4.918   6.475  16.410  0.00  0.00    +0.000 A 
ATOM     18  C   UNL     1       5.638   5.685  15.541  0.00  0.00    +0.000 A 
ATOM     19  N   UNL     1       5.470   4.355  15.455  0.00  0.00    +0.000 NA
ATOM     20  C   UNL     1       4.551   3.805  16.287  0.00  0.00    +0.000 A 
ATOM     21  C   UNL     1       3.776   4.482  17.242  0.00  0.00    +0.000 A 
BRANCH  21  22
ATOM     22  C   UNL     1       2.814   3.710  18.095  0.00  0.00    +0.000 A 
ATOM     23  C   UNL     1       1.434   3.718  17.788  0.00  0.00    +0.000 A 
ATOM     24  C   UNL     1       0.481   3.078  18.589  0.00  0.00    +0.000 A 
ATOM     25  C   UNL     1       0.882   2.317  19.675  0.00  0.00    +0.000 A 
ATOM     26  C   UNL     1       2.236   2.228  19.979  0.00  0.00    +0.000 A 
ATOM     27  C   UNL     1       3.186   2.939  19.226  0.00  0.00    +0.000 A 
ATOM     28 CL   UNL     1       4.812   2.847  19.828  0.00  0.00    +0.000 Cl
ENDBRANCH  21  22
ENDBRANCH   5  16
TORSDOF 4
ENDMDL
MODEL 6
REMARK VINA RESULT:      -7.1      2.019      3.838
REMARK  Name = 
REMARK  4 active torsions:
REMARK  status: ('A' for Active; 'I' for Inactive)
REMARK    1  A    between atoms: O_1  and  C_2
REMARK    2  A    between atoms: C_5  and  N_6
REMARK    3  A    between atoms: C_10  and  C_11
REMARK    4  A    between atoms: C_16  and  C_17
REMARK                            x       y       z     vdW  Elec       q    Type
REMARK                         _______ _______ _______ _____ _____    ______ ____
ROOT
ATOM      1  N   UNL     1       0.470   9.309  19.385  0.00  0.00    +0.000 N 
ATOM      2  C   UNL     1       1.546   8.736  18.785  0.00  0.00    +0.000 A 
ATOM      3  N   UNL     1       1.964   8.952  17.562  0.00  0.00    +0.000 NA
ATOM      4  C   UNL     1       2.990   8.104  17.223  0.00  0.00    +0.000 A 
ATOM      5  C   UNL     1       3.424   7.256  18.221  0.00  0.00    +0.000 A 
ATOM      6  S   UNL     1       2.483   7.561  19.639  0.00  0.00    +0.000 S 
ATOM      7  H   UNL     1       0.195   8.936  20.283  0.00  0.00    +0.000 HD
ENDROOT
BRANCH   1  11
ATOM      8  C   UNL     1      -2.712  11.393  17.564  0.00  0.00    +0.000 A 
ATOM      9  C   UNL     1      -2.159  11.860  18.747  0.00  0.00    +0.000 A 
ATOM     10  C   UNL     1      -1.076  11.179  19.321  0.00  0.00    +0.000 A 
ATOM     11  C   UNL     1      -0.546  10.028  18.718  0.00  0.00    +0.000 A 
ATOM     12  C   UNL     1      -1.108   9.612  17.497  0.00  0.00    +0.000 A 
ATOM     13  C   UNL     1      -2.189  10.282  16.929  0.00  0.00    +0.000 A 
BRANCH   8  14
ATOM     14  O   UNL     1      -3.784  12.005  16.982  0.00  0.00    +0.000 OA
ATOM     15  H   UNL     1      -4.178  12.615  17.624  0.00  0.00    +0.000 HD
ENDBRANCH   8  14
ENDBRANCH   1  11
BRANCH   5  16
ATOM     16  C   UNL     1       4.498   6.246  18.210  0.00  0.00    +0.000 A 
ATOM     17  C   UNL     1       5.757   6.655  17.722  0.00  0.00    +0.000 A 
ATOM     18  C   UNL     1       6.809   5.765  17.695  0.00  0.00    +0.000 A 
ATOM     19  N   UNL     1       6.698   4.492  18.108  0.00  0.00    +0.000 NA
ATOM     20  C   UNL     1       5.484   4.110  18.577  0.00  0.00    +0.000 A 
ATOM     21  C   UNL     1       4.342   4.917  18.694  0.00  0.00    +0.000 A 
BRANCH  21  22
ATOM     22  C   UNL     1       3.078   4.333  19.254  0.00  0.00    +0.000 A 
ATOM     23  C   UNL     1       2.799   4.447  20.635  0.00  0.00    +0.000 A 
ATOM     24  C   UNL     1       1.674   3.859  21.226  0.00  0.00    +0.000 A 
ATOM     25  C   UNL     1       0.729   3.219  20.440  0.00  0.00    +0.000 A 
ATOM     26  C   UNL     1       0.930   3.137  19.067  0.00  0.00    +0.000 A 
ATOM     27  C   UNL     1       2.100   3.652  18.484  0.00  0.00    +0.000 A 
ATOM     28 CL   UNL     1       2.273   3.331  16.787  0.00  0.00    +0.000 Cl
ENDBRANCH  21  22
ENDBRANCH   5  16
TORSDOF 4
ENDMDL
MODEL 7
REMARK VINA RESULT:      -7.1      2.067      3.615
REMARK  Name = 
REMARK  4 active torsions:
REMARK  status: ('A' for Active; 'I' for Inactive)
REMARK    1  A    between atoms: O_1  and  C_2
REMARK    2  A    between atoms: C_5  and  N_6
REMARK    3  A    between atoms: C_10  and  C_11
REMARK    4  A    between atoms: C_16  and  C_17
REMARK                            x       y       z     vdW  Elec       q    Type
REMARK                         _______ _______ _______ _____ _____    ______ ____
ROOT
ATOM      1  N   UNL     1       0.707   9.116  20.318  0.00  0.00    +0.000 N 
ATOM      2  C   UNL     1       1.602   8.642  19.412  0.00  0.00    +0.000 A 
ATOM      3  N   UNL     1       1.913   9.191  18.264  0.00  0.00    +0.000 NA
ATOM      4  C   UNL     1       2.742   8.380  17.526  0.00  0.00    +0.000 A 
ATOM      5  C   UNL     1       3.137   7.209  18.137  0.00  0.00    +0.000 A 
ATOM      6  S   UNL     1       2.420   7.149  19.709  0.00  0.00    +0.000 S 
ATOM      7  H   UNL     1       0.475   8.507  21.091  0.00  0.00    +0.000 HD
ENDROOT
BRANCH   1  11
ATOM      8  C   UNL     1      -2.262  12.056  19.749  0.00  0.00    +0.000 A 
ATOM      9  C   UNL     1      -1.464  12.081  20.884  0.00  0.00    +0.000 A 
ATOM     10  C   UNL     1      -0.455  11.120  21.041  0.00  0.00    +0.000 A 
ATOM     11  C   UNL     1      -0.243  10.130  20.069  0.00  0.00    +0.000 A 
ATOM     12  C   UNL     1      -1.045  10.165  18.914  0.00  0.00    +0.000 A 
ATOM     13  C   UNL     1      -2.054  11.114  18.759  0.00  0.00    +0.000 A 
BRANCH   8  14
ATOM     14  O   UNL     1      -3.274  12.952  19.564  0.00  0.00    +0.000 OA
ATOM     15  H   UNL     1      -3.171  13.672  20.205  0.00  0.00    +0.000 HD
ENDBRANCH   8  14
ENDBRANCH   1  11
BRANCH   5  16
ATOM     16  C   UNL     1       4.022   6.134  17.652  0.00  0.00    +0.000 A 
ATOM     17  C   UNL     1       5.030   6.500  16.734  0.00  0.00    +0.000 A 
ATOM     18  C   UNL     1       5.899   5.548  16.249  0.00  0.00    +0.000 A 
ATOM     19  N   UNL     1       5.834   4.254  16.600  0.00  0.00    +0.000 NA
ATOM     20  C   UNL     1       4.864   3.913  17.484  0.00  0.00    +0.000 A 
ATOM     21  C   UNL     1       3.937   4.781  18.083  0.00  0.00    +0.000 A 
BRANCH  21  22
ATOM     22  C   UNL     1       2.935   4.235  19.058  0.00  0.00    +0.000 A 
ATOM     23  C   UNL     1       3.334   3.923  20.378  0.00  0.00    +0.000 A 
ATOM     24  C   UNL     1       2.463   3.343  21.308  0.00  0.00    +0.000 A 
ATOM     25  C   UNL     1       1.130   3.145  20.986  0.00  0.00    +0.000 A 
ATOM     26  C   UNL     1       0.678   3.496  19.719  0.00  0.00    +0.000 A 
ATOM     27  C   UNL     1       1.570   4.000  18.756  0.00  0.00    +0.000 A 
ATOM     28 CL   UNL     1       0.883   4.240  17.180  0.00  0.00    +0.000 Cl
ENDBRANCH  21  22
ENDBRANCH   5  16
TORSDOF 4
ENDMDL
MODEL 8
REMARK VINA RESULT:      -7.0      2.126      3.717
REMARK  Name = 
REMARK  4 active torsions:
REMARK  status: ('A' for Active; 'I' for Inactive)
REMARK    1  A    between atoms: O_1  and  C_2
REMARK    2  A    between atoms: C_5  and  N_6
REMARK    3  A    between atoms: C_10  and  C_11
REMARK    4  A    between atoms: C_16  and  C_17
REMARK                            x       y       z     vdW  Elec       q    Type
REMARK                         _______ _______ _______ _____ _____    ______ ____
ROOT
ATOM      1  N   UNL     1       0.936   9.910  17.845  0.00  0.00    +0.000 N 
ATOM      2  C   UNL     1       1.613   8.825  18.306  0.00  0.00    +0.000 A 
ATOM      3  N   UNL     1       1.450   8.241  19.467  0.00  0.00    +0.000 NA
ATOM      4  C   UNL     1       2.393   7.265  19.677  0.00  0.00    +0.000 A 
ATOM      5  C   UNL     1       3.266   7.038  18.633  0.00  0.00    +0.000 A 
ATOM      6  S   UNL     1       2.860   8.115  17.343  0.00  0.00    +0.000 S 
ATOM      7  H   UNL     1       1.272  10.327  16.987  0.00  0.00    +0.000 HD
ENDROOT
BRANCH   1  11
ATOM      8  C   UNL     1      -1.520  12.574  20.001  0.00  0.00    +0.000 A 
ATOM      9  C   UNL     1      -2.088  11.623  19.165  0.00  0.00    +0.000 A 
ATOM     10  C   UNL     1      -1.261  10.718  18.485  0.00  0.00    +0.000 A 
ATOM     11  C   UNL     1       0.134  10.764  18.632  0.00  0.00    +0.000 A 
ATOM     12  C   UNL     1       0.667  11.715  19.522  0.00  0.00    +0.000 A 
ATOM     13  C   UNL     1      -0.152  12.620  20.193  0.00  0.00    +0.000 A 
BRANCH   8  14
ATOM     14  O   UNL     1      -2.282  13.493  20.663  0.00  0.00    +0.000 OA
ATOM     15  H   UNL     1      -2.520  13.132  21.530  0.00  0.00    +0.000 HD
ENDBRANCH   8  14
ENDBRANCH   1  11
BRANCH   5  16
ATOM     16  C   UNL     1       4.371   6.070  18.510  0.00  0.00    +0.000 A 
ATOM     17  C   UNL     1       5.570   6.536  17.931  0.00  0.00    +0.000 A 
ATOM     18  C   UNL     1       6.647   5.687  17.796  0.00  0.00    +0.000 A 
ATOM     19  N   UNL     1       6.616   4.403  18.186  0.00  0.00    +0.000 NA
ATOM     20  C   UNL     1       5.460   3.966  18.745  0.00  0.00    +0.000 A 
ATOM     21  C   UNL     1       4.303   4.726  18.974  0.00  0.00    +0.000 A 
BRANCH  21  22
ATOM     22  C   UNL     1       3.111   4.083  19.621  0.00  0.00    +0.000 A 
ATOM     23  C   UNL     1       3.025   4.016  21.031  0.00  0.00    +0.000 A 
ATOM     24  C   UNL     1       1.975   3.364  21.689  0.00  0.00    +0.000 A 
ATOM     25  C   UNL     1       0.917   2.841  20.964  0.00  0.00    +0.000 A 
ATOM     26  C   UNL     1       0.928   2.940  19.577  0.00  0.00    +0.000 A 
ATOM     27  C   UNL     1       2.022   3.518  18.911  0.00  0.00    +0.000 A 
ATOM     28 CL   UNL     1       1.955   3.423  17.179  0.00  0.00    +0.000 Cl
ENDBRANCH  21  22
ENDBRANCH   5  16
TORSDOF 4
ENDMDL
MODEL 9
REMARK VINA RESULT:      -6.8      4.088      8.948
REMARK  Name = 
REMARK  4 active torsions:
REMARK  status: ('A' for Active; 'I' for Inactive)
REMARK    1  A    between atoms: O_1  and  C_2
REMARK    2  A    between atoms: C_5  and  N_6
REMARK    3  A    between atoms: C_10  and  C_11
REMARK    4  A    between atoms: C_16  and  C_17
REMARK                            x       y       z     vdW  Elec       q    Type
REMARK                         _______ _______ _______ _____ _____    ______ ____
ROOT
ATOM      1  N   UNL     1       1.778   6.967  20.494  0.00  0.00    +0.000 N 
ATOM      2  C   UNL     1       1.619   8.093  19.750  0.00  0.00    +0.000 A 
ATOM      3  N   UNL     1       1.927   8.241  18.486  0.00  0.00    +0.000 NA
ATOM      4  C   UNL     1       1.777   9.545  18.080  0.00  0.00    +0.000 A 
ATOM      5  C   UNL     1       1.280  10.416  19.027  0.00  0.00    +0.000 A 
ATOM      6  S   UNL     1       0.998   9.529  20.484  0.00  0.00    +0.000 S 
ATOM      7  H   UNL     1       1.623   7.052  21.490  0.00  0.00    +0.000 HD
ENDROOT
BRANCH   1  11
ATOM      8  C   UNL     1       4.121   3.577  19.600  0.00  0.00    +0.000 A 
ATOM      9  C   UNL     1       2.880   3.428  20.202  0.00  0.00    +0.000 A 
ATOM     10  C   UNL     1       2.095   4.561  20.457  0.00  0.00    +0.000 A 
ATOM     11  C   UNL     1       2.548   5.845  20.119  0.00  0.00    +0.000 A 
ATOM     12  C   UNL     1       3.793   5.950  19.472  0.00  0.00    +0.000 A 
ATOM     13  C   UNL     1       4.579   4.826  19.223  0.00  0.00    +0.000 A 
BRANCH   8  14
ATOM     14  O   UNL     1       4.934   2.508  19.356  0.00  0.00    +0.000 OA
ATOM     15  H   UNL     1       5.521   2.727  18.617  0.00  0.00    +0.000 HD
ENDBRANCH   8  14
ENDBRANCH   1  11
BRANCH   5  16
ATOM     16  C   UNL     1       0.981  11.856  18.930  0.00  0.00    +0.000 A 
ATOM     17  C   UNL     1       2.033  12.750  19.224  0.00  0.00    +0.000 A 
ATOM     18  C   UNL     1       1.825  14.109  19.142  0.00  0.00    +0.000 A 
ATOM     19  N   UNL     1       0.644  14.648  18.799  0.00  0.00    +0.000 NA
ATOM     20  C   UNL     1      -0.359  13.780  18.516  0.00  0.00    +0.000 A 
ATOM     21  C   UNL     1      -0.279  12.379  18.525  0.00  0.00    +0.000 A 
BRANCH  21  22
ATOM     22  C   UNL     1      -1.490  11.567  18.168  0.00  0.00    +0.000 A 
ATOM     23  C   UNL     1      -1.440  10.670  17.077  0.00  0.00    +0.000 A 
ATOM     24  C   UNL     1      -2.557   9.941  16.651  0.00  0.00    +0.000 A 
ATOM     25  C   UNL     1      -3.743  10.005  17.365  0.00  0.00    +0.000 A 
ATOM     26  C   UNL     1      -3.820  10.827  18.484  0.00  0.00    +0.000 A 
ATOM     27  C   UNL     1      -2.725  11.623  18.862  0.00  0.00    +0.000 A 
ATOM     28 CL   UNL     1      -3.032  12.707  20.183  0.00  0.00    +0.000 Cl
ENDBRANCH  21  22
ENDBRANCH   5  16
TORSDOF 4
ENDMDL
