MODEL 1
REMARK VINA RESULT:      -9.2      0.000      0.000
REMARK  Name = 
REMARK  5 active torsions:
REMARK  status: ('A' for Active; 'I' for Inactive)
REMARK    1  A    between atoms: O_1  and  C_2
REMARK    2  A    between atoms: C_2  and  C_3
REMARK    3  A    between atoms: C_2  and  C_10
REMARK    4  A    between atoms: C_3  and  N_4
REMARK    5  A    between atoms: C_13  and  C_14
REMARK                            x       y       z     vdW  Elec       q    Type
REMARK                         _______ _______ _______ _____ _____    ______ ____
ROOT
ATOM      1  C   UNL     1       0.634   8.671  20.685  0.00  0.00    +0.000 A 
ATOM      2  C   UNL     1       1.278   7.486  21.097  0.00  0.00    +0.000 A 
ATOM      3  C   UNL     1       2.216   6.846  20.284  0.00  0.00    +0.000 A 
ATOM      4  C   UNL     1       2.526   7.390  19.040  0.00  0.00    +0.000 A 
ATOM      5  C   UNL     1       1.899   8.565  18.621  0.00  0.00    +0.000 A 
ATOM      6  C   UNL     1       0.956   9.196  19.431  0.00  0.00    +0.000 A 
ENDROOT
BRANCH   4   7
ATOM      7  C   UNL     1       3.580   6.835  18.198  0.00  0.00    +0.000 C 
ATOM      8  C   UNL     1       3.469   5.797  17.349  0.00  0.00    +0.000 C 
ATOM      9  C   UNL     1       4.629   5.398  16.534  0.00  0.00    +0.000 A 
ATOM     10  C   UNL     1       5.519   6.148  15.759  0.00  0.00    +0.000 A 
ATOM     11  C   UNL     1       6.466   5.449  15.037  0.00  0.00    +0.000 A 
ATOM     12  C   UNL     1       6.541   4.044  15.115  0.00  0.00    +0.000 A 
ATOM     13  C   UNL     1       5.647   3.307  15.912  0.00  0.00    +0.000 A 
ATOM     14  C   UNL     1       4.682   4.001  16.611  0.00  0.00    +0.000 A 
ATOM     15  C   UNL     1       3.555   3.528  17.430  0.00  0.00    +0.000 A 
ATOM     16  C   UNL     1       3.339   2.304  18.036  0.00  0.00    +0.000 A 
ATOM     17  C   UNL     1       2.158   2.133  18.764  0.00  0.00    +0.000 A 
ATOM     18  C   UNL     1       1.180   3.143  18.814  0.00  0.00    +0.000 A 
ATOM     19  C   UNL     1       1.428   4.397  18.259  0.00  0.00    +0.000 A 
ATOM     20  C   UNL     1       2.658   4.595  17.665  0.00  0.00    +0.000 A 
ENDBRANCH   4   7
BRANCH   1  21
ATOM     21  C   UNL     1      -0.422   9.345  21.545  0.00  0.00    +0.000 C 
BRANCH  21  22
ATOM     22  O   UNL     1      -0.753   8.455  22.609  0.00  0.00    +0.000 OA
ATOM     23  H   UNL     1      -1.720   8.356  22.584  0.00  0.00    +0.000 HD
ENDBRANCH  21  22
BRANCH  21  24
ATOM     24  C   UNL     1       0.035  10.730  22.104  0.00  0.00    +0.000 C 
BRANCH  24  25
ATOM     25  N   UNL     1      -0.957  11.849  22.013  0.00  0.00    +0.000 NA
ATOM     26  C   UNL     1      -1.594  11.895  20.685  0.00  0.00    +0.000 C 
ATOM     27  C   UNL     1      -2.656  12.988  20.573  0.00  0.00    +0.000 C 
ATOM     28  C   UNL     1      -3.711  12.855  21.656  0.00  0.00    +0.000 C 
ATOM     29  C   UNL     1      -3.042  12.785  23.022  0.00  0.00    +0.000 C 
ATOM     30  C   UNL     1      -1.982  11.680  23.064  0.00  0.00    +0.000 C 
ENDBRANCH  24  25
ENDBRANCH  21  24
ENDBRANCH   1  21
TORSDOF 5
ENDMDL
MODEL 2
REMARK VINA RESULT:      -9.0      1.844      2.349
REMARK  Name = 
REMARK  5 active torsions:
REMARK  status: ('A' for Active; 'I' for Inactive)
REMARK    1  A    between atoms: O_1  and  C_2
REMARK    2  A    between atoms: C_2  and  C_3
REMARK    3  A    between atoms: C_2  and  C_10
REMARK    4  A    between atoms: C_3  and  N_4
REMARK    5  A    between atoms: C_13  and  C_14
REMARK                            x       y       z     vdW  Elec       q    Type
REMARK                         _______ _______ _______ _____ _____    ______ ____
ROOT
ATOM      1  C   UNL     1       0.564   9.519  19.776  0.00  0.00    +0.000 A 
ATOM      2  C   UNL     1       1.241   8.483  20.454  0.00  0.00    +0.000 A 
ATOM      3  C   UNL     1       2.197   7.694  19.810  0.00  0.00    +0.000 A 
ATOM      4  C   UNL     1       2.493   7.936  18.471  0.00  0.00    +0.000 A 
ATOM      5  C   UNL     1       1.833   8.962  17.789  0.00  0.00    +0.000 A 
ATOM      6  C   UNL     1       0.872   9.740  18.431  0.00  0.00    +0.000 A 
ENDROOT
BRANCH   4   7
ATOM      7  C   UNL     1       3.563   7.227  17.779  0.00  0.00    +0.000 C 
ATOM      8  C   UNL     1       3.483   6.013  17.204  0.00  0.00    +0.000 C 
ATOM      9  C   UNL     1       4.655   5.465  16.500  0.00  0.00    +0.000 A 
ATOM     10  C   UNL     1       5.521   6.032  15.560  0.00  0.00    +0.000 A 
ATOM     11  C   UNL     1       6.488   5.209  15.020  0.00  0.00    +0.000 A 
ATOM     12  C   UNL     1       6.607   3.866  15.432  0.00  0.00    +0.000 A 
ATOM     13  C   UNL     1       5.736   3.316  16.390  0.00  0.00    +0.000 A 
ATOM     14  C   UNL     1       4.751   4.129  16.909  0.00  0.00    +0.000 A 
ATOM     15  C   UNL     1       3.639   3.834  17.827  0.00  0.00    +0.000 A 
ATOM     16  C   UNL     1       3.462   2.785  18.712  0.00  0.00    +0.000 A 
ATOM     17  C   UNL     1       2.286   2.759  19.469  0.00  0.00    +0.000 A 
ATOM     18  C   UNL     1       1.278   3.722  19.282  0.00  0.00    +0.000 A 
ATOM     19  C   UNL     1       1.487   4.813  18.440  0.00  0.00    +0.000 A 
ATOM     20  C   UNL     1       2.710   4.898  17.806  0.00  0.00    +0.000 A 
ENDBRANCH   4   7
BRANCH   1  21
ATOM     21  C   UNL     1      -0.512  10.348  20.458  0.00  0.00    +0.000 C 
BRANCH  21  22
ATOM     22  O   UNL     1       0.067  10.950  21.613  0.00  0.00    +0.000 OA
ATOM     23  H   UNL     1       0.715  10.310  21.953  0.00  0.00    +0.000 HD
ENDBRANCH  21  22
BRANCH  21  24
ATOM     24  C   UNL     1      -1.135  11.432  19.522  0.00  0.00    +0.000 C 
BRANCH  24  25
ATOM     25  N   UNL     1      -2.437  11.082  18.867  0.00  0.00    +0.000 NA
ATOM     26  C   UNL     1      -3.479  12.076  19.178  0.00  0.00    +0.000 C 
ATOM     27  C   UNL     1      -4.806  11.784  18.479  0.00  0.00    +0.000 C 
ATOM     28  C   UNL     1      -4.630  11.660  16.976  0.00  0.00    +0.000 C 
ATOM     29  C   UNL     1      -3.536  10.648  16.667  0.00  0.00    +0.000 C 
ATOM     30  C   UNL     1      -2.239  10.990  17.406  0.00  0.00    +0.000 C 
ENDBRANCH  24  25
ENDBRANCH  21  24
ENDBRANCH   1  21
TORSDOF 5
ENDMDL
MODEL 3
REMARK VINA RESULT:      -9.0      0.937      1.369
REMARK  Name = 
REMARK  5 active torsions:
REMARK  status: ('A' for Active; 'I' for Inactive)
REMARK    1  A    between atoms: O_1  and  C_2
REMARK    2  A    between atoms: C_2  and  C_3
REMARK    3  A    between atoms: C_2  and  C_10
REMARK    4  A    between atoms: C_3  and  N_4
REMARK    5  A    between atoms: C_13  and  C_14
REMARK                            x       y       z     vdW  Elec       q    Type
REMARK                         _______ _______ _______ _____ _____    ______ ____
ROOT
ATOM      1  C   UNL     1       0.687   8.693  20.644  0.00  0.00    +0.000 A 
ATOM      2  C   UNL     1       1.335   7.513  21.068  0.00  0.00    +0.000 A 
ATOM      3  C   UNL     1       2.266   6.861  20.256  0.00  0.00    +0.000 A 
ATOM      4  C   UNL     1       2.565   7.386  19.002  0.00  0.00    +0.000 A 
ATOM      5  C   UNL     1       1.934   8.556  18.571  0.00  0.00    +0.000 A 
ATOM      6  C   UNL     1       0.999   9.199  19.379  0.00  0.00    +0.000 A 
ENDROOT
BRANCH   4   7
ATOM      7  C   UNL     1       3.612   6.819  18.160  0.00  0.00    +0.000 C 
ATOM      8  C   UNL     1       3.490   5.777  17.316  0.00  0.00    +0.000 C 
ATOM      9  C   UNL     1       4.644   5.365  16.500  0.00  0.00    +0.000 A 
ATOM     10  C   UNL     1       5.537   6.104  15.717  0.00  0.00    +0.000 A 
ATOM     11  C   UNL     1       6.476   5.394  14.996  0.00  0.00    +0.000 A 
ATOM     12  C   UNL     1       6.540   3.989  15.081  0.00  0.00    +0.000 A 
ATOM     13  C   UNL     1       5.643   3.262  15.885  0.00  0.00    +0.000 A 
ATOM     14  C   UNL     1       4.686   3.968  16.583  0.00  0.00    +0.000 A 
ATOM     15  C   UNL     1       3.558   3.509  17.409  0.00  0.00    +0.000 A 
ATOM     16  C   UNL     1       3.335   2.289  18.022  0.00  0.00    +0.000 A 
ATOM     17  C   UNL     1       2.154   2.131  18.755  0.00  0.00    +0.000 A 
ATOM     18  C   UNL     1       1.185   3.150  18.802  0.00  0.00    +0.000 A 
ATOM     19  C   UNL     1       1.441   4.399  18.240  0.00  0.00    +0.000 A 
ATOM     20  C   UNL     1       2.670   4.583  17.641  0.00  0.00    +0.000 A 
ENDBRANCH   4   7
BRANCH   1  21
ATOM     21  C   UNL     1      -0.362   9.380  21.503  0.00  0.00    +0.000 C 
BRANCH  21  22
ATOM     22  O   UNL     1      -0.816   8.439  22.474  0.00  0.00    +0.000 OA
ATOM     23  H   UNL     1      -1.388   8.937  23.082  0.00  0.00    +0.000 HD
ENDBRANCH  21  22
BRANCH  21  24
ATOM     24  C   UNL     1       0.166  10.677  22.193  0.00  0.00    +0.000 C 
BRANCH  24  25
ATOM     25  N   UNL     1      -0.186  11.976  21.533  0.00  0.00    +0.000 NA
ATOM     26  C   UNL     1       0.960  12.529  20.790  0.00  0.00    +0.000 C 
ATOM     27  C   UNL     1       0.621  13.825  20.055  0.00  0.00    +0.000 C 
ATOM     28  C   UNL     1      -0.568  13.647  19.129  0.00  0.00    +0.000 C 
ATOM     29  C   UNL     1      -1.739  13.054  19.901  0.00  0.00    +0.000 C 
ATOM     30  C   UNL     1      -1.331  11.767  20.623  0.00  0.00    +0.000 C 
ENDBRANCH  24  25
ENDBRANCH  21  24
ENDBRANCH   1  21
TORSDOF 5
ENDMDL
MODEL 4
REMARK VINA RESULT:      -8.8      0.845      1.075
REMARK  Name = 
REMARK  5 active torsions:
REMARK  status: ('A' for Active; 'I' for Inactive)
REMARK    1  A    between atoms: O_1  and  C_2
REMARK    2  A    between atoms: C_2  and  C_3
REMARK    3  A    between atoms: C_2  and  C_10
REMARK    4  A    between atoms: C_3  and  N_4
REMARK    5  A    between atoms: C_13  and  C_14
REMARK                            x       y       z     vdW  Elec       q    Type
REMARK                         _______ _______ _______ _____ _____    ______ ____
ROOT
ATOM      1  C   UNL     1       0.561   9.088  20.534  0.00  0.00    +0.000 A 
ATOM      2  C   UNL     1       1.246   7.962  21.037  0.00  0.00    +0.000 A 
ATOM      3  C   UNL     1       2.167   7.260  20.256  0.00  0.00    +0.000 A 
ATOM      4  C   UNL     1       2.420   7.682  18.954  0.00  0.00    +0.000 A 
ATOM      5  C   UNL     1       1.752   8.798  18.444  0.00  0.00    +0.000 A 
ATOM      6  C   UNL     1       0.826   9.490  19.222  0.00  0.00    +0.000 A 
ENDROOT
BRANCH   4   7
ATOM      7  C   UNL     1       3.454   7.065  18.131  0.00  0.00    +0.000 C 
ATOM      8  C   UNL     1       3.348   5.921  17.430  0.00  0.00    +0.000 C 
ATOM      9  C   UNL     1       4.483   5.466  16.609  0.00  0.00    +0.000 A 
ATOM     10  C   UNL     1       5.296   6.143  15.694  0.00  0.00    +0.000 A 
ATOM     11  C   UNL     1       6.236   5.394  15.016  0.00  0.00    +0.000 A 
ATOM     12  C   UNL     1       6.381   4.015  15.268  0.00  0.00    +0.000 A 
ATOM     13  C   UNL     1       5.564   3.353  16.203  0.00  0.00    +0.000 A 
ATOM     14  C   UNL     1       4.605   4.094  16.860  0.00  0.00    +0.000 A 
ATOM     15  C   UNL     1       3.544   3.688  17.796  0.00  0.00    +0.000 A 
ATOM     16  C   UNL     1       3.418   2.545  18.565  0.00  0.00    +0.000 A 
ATOM     17  C   UNL     1       2.284   2.424  19.375  0.00  0.00    +0.000 A 
ATOM     18  C   UNL     1       1.264   3.392  19.350  0.00  0.00    +0.000 A 
ATOM     19  C   UNL     1       1.424   4.572  18.626  0.00  0.00    +0.000 A 
ATOM     20  C   UNL     1       2.612   4.739  17.943  0.00  0.00    +0.000 A 
ENDBRANCH   4   7
BRANCH   1  21
ATOM     21  C   UNL     1      -0.478   9.826  21.363  0.00  0.00    +0.000 C 
BRANCH  21  22
ATOM     22  O   UNL     1      -0.475   9.260  22.671  0.00  0.00    +0.000 OA
ATOM     23  H   UNL     1      -0.961   8.421  22.602  0.00  0.00    +0.000 HD
ENDBRANCH  21  22
BRANCH  21  24
ATOM     24  C   UNL     1      -0.230  11.366  21.425  0.00  0.00    +0.000 C 
BRANCH  24  25
ATOM     25  N   UNL     1      -0.891  12.106  22.548  0.00  0.00    +0.000 NA
ATOM     26  C   UNL     1      -0.497  13.525  22.563  0.00  0.00    +0.000 C 
ATOM     27  C   UNL     1      -1.198  14.325  23.660  0.00  0.00    +0.000 C 
ATOM     28  C   UNL     1      -2.707  14.201  23.563  0.00  0.00    +0.000 C 
ATOM     29  C   UNL     1      -3.103  12.732  23.525  0.00  0.00    +0.000 C 
ATOM     30  C   UNL     1      -2.358  11.986  22.414  0.00  0.00    +0.000 C 
ENDBRANCH  24  25
ENDBRANCH  21  24
ENDBRANCH   1  21
TORSDOF 5
ENDMDL
MODEL 5
REMARK VINA RESULT:      -8.7      1.607      2.083
REMARK  Name = 
REMARK  5 active torsions:
REMARK  status: ('A' for Active; 'I' for Inactive)
REMARK    1  A    between atoms: O_1  and  C_2
REMARK    2  A    between atoms: C_2  and  C_3
REMARK    3  A    between atoms: C_2  and  C_10
REMARK    4  A    between atoms: C_3  and  N_4
REMARK    5  A    between atoms: C_13  and  C_14
REMARK                            x       y       z     vdW  Elec       q    Type
REMARK                         _______ _______ _______ _____ _____    ______ ____
ROOT
ATOM      1  C   UNL     1       0.714   9.145  20.204  0.00  0.00    +0.000 A 
ATOM      2  C   UNL     1       1.431   8.070  20.772  0.00  0.00    +0.000 A 
ATOM      3  C   UNL     1       2.352   7.333  20.024  0.00  0.00    +0.000 A 
ATOM      4  C   UNL     1       2.572   7.666  18.690  0.00  0.00    +0.000 A 
ATOM      5  C   UNL     1       1.871   8.730  18.116  0.00  0.00    +0.000 A 
ATOM      6  C   UNL     1       0.946   9.457  18.862  0.00  0.00    +0.000 A 
ENDROOT
BRANCH   4   7
ATOM      7  C   UNL     1       3.603   7.013  17.893  0.00  0.00    +0.000 C 
ATOM      8  C   UNL     1       3.479   5.865  17.201  0.00  0.00    +0.000 C 
ATOM      9  C   UNL     1       4.615   5.371  16.405  0.00  0.00    +0.000 A 
ATOM     10  C   UNL     1       5.462   6.016  15.498  0.00  0.00    +0.000 A 
ATOM     11  C   UNL     1       6.394   5.235  14.845  0.00  0.00    +0.000 A 
ATOM     12  C   UNL     1       6.496   3.855  15.114  0.00  0.00    +0.000 A 
ATOM     13  C   UNL     1       5.645   3.225  16.040  0.00  0.00    +0.000 A 
ATOM     14  C   UNL     1       4.695   3.999  16.672  0.00  0.00    +0.000 A 
ATOM     15  C   UNL     1       3.608   3.631  17.593  0.00  0.00    +0.000 A 
ATOM     16  C   UNL     1       3.436   2.501  18.371  0.00  0.00    +0.000 A 
ATOM     17  C   UNL     1       2.285   2.418  19.162  0.00  0.00    +0.000 A 
ATOM     18  C   UNL     1       1.293   3.414  19.108  0.00  0.00    +0.000 A 
ATOM     19  C   UNL     1       1.498   4.581  18.376  0.00  0.00    +0.000 A 
ATOM     20  C   UNL     1       2.701   4.709  17.712  0.00  0.00    +0.000 A 
ENDBRANCH   4   7
BRANCH   1  21
ATOM     21  C   UNL     1      -0.324   9.919  20.999  0.00  0.00    +0.000 C 
BRANCH  21  22
ATOM     22  O   UNL     1      -0.595   9.188  22.193  0.00  0.00    +0.000 OA
ATOM     23  H   UNL     1      -0.996   9.822  22.811  0.00  0.00    +0.000 HD
ENDBRANCH  21  22
BRANCH  21  24
ATOM     24  C   UNL     1       0.122  11.377  21.333  0.00  0.00    +0.000 C 
BRANCH  24  25
ATOM     25  N   UNL     1       0.421  12.269  20.165  0.00  0.00    +0.000 NA
ATOM     26  C   UNL     1      -0.558  13.365  20.062  0.00  0.00    +0.000 C 
ATOM     27  C   UNL     1      -0.250  14.330  18.918  0.00  0.00    +0.000 C 
ATOM     28  C   UNL     1       1.156  14.890  19.022  0.00  0.00    +0.000 C 
ATOM     29  C   UNL     1       2.157  13.751  19.152  0.00  0.00    +0.000 C 
ATOM     30  C   UNL     1       1.787  12.816  20.307  0.00  0.00    +0.000 C 
ENDBRANCH  24  25
ENDBRANCH  21  24
ENDBRANCH   1  21
TORSDOF 5
ENDMDL
MODEL 6
REMARK VINA RESULT:      -8.7      1.488      1.765
REMARK  Name = 
REMARK  5 active torsions:
REMARK  status: ('A' for Active; 'I' for Inactive)
REMARK    1  A    between atoms: O_1  and  C_2
REMARK    2  A    between atoms: C_2  and  C_3
REMARK    3  A    between atoms: C_2  and  C_10
REMARK    4  A    between atoms: C_3  and  N_4
REMARK    5  A    between atoms: C_13  and  C_14
REMARK                            x       y       z     vdW  Elec       q    Type
REMARK                         _______ _______ _______ _____ _____    ______ ____
ROOT
ATOM      1  C   UNL     1       0.306   9.724  19.836  0.00  0.00    +0.000 A 
ATOM      2  C   UNL     1       1.071   8.789  20.567  0.00  0.00    +0.000 A 
ATOM      3  C   UNL     1       2.040   7.997  19.947  0.00  0.00    +0.000 A 
ATOM      4  C   UNL     1       2.261   8.134  18.580  0.00  0.00    +0.000 A 
ATOM      5  C   UNL     1       1.514   9.058  17.844  0.00  0.00    +0.000 A 
ATOM      6  C   UNL     1       0.540   9.839  18.464  0.00  0.00    +0.000 A 
ENDROOT
BRANCH   4   7
ATOM      7  C   UNL     1       3.337   7.422  17.899  0.00  0.00    +0.000 C 
ATOM      8  C   UNL     1       3.298   6.161  17.431  0.00  0.00    +0.000 C 
ATOM      9  C   UNL     1       4.466   5.614  16.720  0.00  0.00    +0.000 A 
ATOM     10  C   UNL     1       5.260   6.142  15.698  0.00  0.00    +0.000 A 
ATOM     11  C   UNL     1       6.246   5.325  15.183  0.00  0.00    +0.000 A 
ATOM     12  C   UNL     1       6.453   4.030  15.698  0.00  0.00    +0.000 A 
ATOM     13  C   UNL     1       5.654   3.519  16.738  0.00  0.00    +0.000 A 
ATOM     14  C   UNL     1       4.650   4.324  17.233  0.00  0.00    +0.000 A 
ATOM     15  C   UNL     1       3.595   4.053  18.223  0.00  0.00    +0.000 A 
ATOM     16  C   UNL     1       3.511   3.075  19.198  0.00  0.00    +0.000 A 
ATOM     17  C   UNL     1       2.372   3.055  20.009  0.00  0.00    +0.000 A 
ATOM     18  C   UNL     1       1.307   3.948  19.790  0.00  0.00    +0.000 A 
ATOM     19  C   UNL     1       1.422   4.973  18.853  0.00  0.00    +0.000 A 
ATOM     20  C   UNL     1       2.611   5.064  18.158  0.00  0.00    +0.000 A 
ENDBRANCH   4   7
BRANCH   1  21
ATOM     21  C   UNL     1      -0.783  10.553  20.497  0.00  0.00    +0.000 C 
BRANCH  21  22
ATOM     22  O   UNL     1      -0.500  10.614  21.893  0.00  0.00    +0.000 OA
ATOM     23  H   UNL     1      -1.301  10.295  22.343  0.00  0.00    +0.000 HD
ENDBRANCH  21  22
BRANCH  21  24
ATOM     24  C   UNL     1      -0.909  11.988  19.894  0.00  0.00    +0.000 C 
BRANCH  24  25
ATOM     25  N   UNL     1      -2.259  12.379  19.373  0.00  0.00    +0.000 NA
ATOM     26  C   UNL     1      -2.817  11.336  18.494  0.00  0.00    +0.000 C 
ATOM     27  C   UNL     1      -4.220  11.673  17.990  0.00  0.00    +0.000 C 
ATOM     28  C   UNL     1      -5.172  11.957  19.137  0.00  0.00    +0.000 C 
ATOM     29  C   UNL     1      -4.576  13.018  20.051  0.00  0.00    +0.000 C 
ATOM     30  C   UNL     1      -3.169  12.626  20.511  0.00  0.00    +0.000 C 
ENDBRANCH  24  25
ENDBRANCH  21  24
ENDBRANCH   1  21
TORSDOF 5
ENDMDL
MODEL 7
REMARK VINA RESULT:      -8.6      1.617      1.825
REMARK  Name = 
REMARK  5 active torsions:
REMARK  status: ('A' for Active; 'I' for Inactive)
REMARK    1  A    between atoms: O_1  and  C_2
REMARK    2  A    between atoms: C_2  and  C_3
REMARK    3  A    between atoms: C_2  and  C_10
REMARK    4  A    between atoms: C_3  and  N_4
REMARK    5  A    between atoms: C_13  and  C_14
REMARK                            x       y       z     vdW  Elec       q    Type
REMARK                         _______ _______ _______ _____ _____    ______ ____
ROOT
ATOM      1  C   UNL     1       0.716   9.168  20.502  0.00  0.00    +0.000 A 
ATOM      2  C   UNL     1       1.373   8.028  21.014  0.00  0.00    +0.000 A 
ATOM      3  C   UNL     1       2.263   7.287  20.232  0.00  0.00    +0.000 A 
ATOM      4  C   UNL     1       2.511   7.682  18.920  0.00  0.00    +0.000 A 
ATOM      5  C   UNL     1       1.870   8.810  18.402  0.00  0.00    +0.000 A 
ATOM      6  C   UNL     1       0.976   9.541  19.181  0.00  0.00    +0.000 A 
ENDROOT
BRANCH   4   7
ATOM      7  C   UNL     1       3.514   7.021  18.094  0.00  0.00    +0.000 C 
ATOM      8  C   UNL     1       3.363   5.874  17.407  0.00  0.00    +0.000 C 
ATOM      9  C   UNL     1       4.473   5.372  16.579  0.00  0.00    +0.000 A 
ATOM     10  C   UNL     1       5.297   6.011  15.648  0.00  0.00    +0.000 A 
ATOM     11  C   UNL     1       6.205   5.223  14.968  0.00  0.00    +0.000 A 
ATOM     12  C   UNL     1       6.306   3.844  15.235  0.00  0.00    +0.000 A 
ATOM     13  C   UNL     1       5.478   3.219  16.186  0.00  0.00    +0.000 A 
ATOM     14  C   UNL     1       4.552   4.000  16.845  0.00  0.00    +0.000 A 
ATOM     15  C   UNL     1       3.489   3.640  17.797  0.00  0.00    +0.000 A 
ATOM     16  C   UNL     1       3.332   2.511  18.581  0.00  0.00    +0.000 A 
ATOM     17  C   UNL     1       2.204   2.436  19.404  0.00  0.00    +0.000 A 
ATOM     18  C   UNL     1       1.217   3.438  19.378  0.00  0.00    +0.000 A 
ATOM     19  C   UNL     1       1.409   4.604  18.639  0.00  0.00    +0.000 A 
ATOM     20  C   UNL     1       2.593   4.723  17.941  0.00  0.00    +0.000 A 
ENDBRANCH   4   7
BRANCH   1  21
ATOM     21  C   UNL     1      -0.288   9.949  21.333  0.00  0.00    +0.000 C 
BRANCH  21  22
ATOM     22  O   UNL     1       0.178   9.966  22.680  0.00  0.00    +0.000 OA
ATOM     23  H   UNL     1       0.412   9.047  22.895  0.00  0.00    +0.000 HD
ENDBRANCH  21  22
BRANCH  21  24
ATOM     24  C   UNL     1      -0.518  11.402  20.808  0.00  0.00    +0.000 C 
BRANCH  24  25
ATOM     25  N   UNL     1       0.267  12.488  21.479  0.00  0.00    +0.000 NA
ATOM     26  C   UNL     1       1.327  13.007  20.598  0.00  0.00    +0.000 C 
ATOM     27  C   UNL     1       2.111  14.158  21.227  0.00  0.00    +0.000 C 
ATOM     28  C   UNL     1       1.194  15.285  21.665  0.00  0.00    +0.000 C 
ATOM     29  C   UNL     1       0.089  14.735  22.555  0.00  0.00    +0.000 C 
ATOM     30  C   UNL     1      -0.649  13.579  21.873  0.00  0.00    +0.000 C 
ENDBRANCH  24  25
ENDBRANCH  21  24
ENDBRANCH   1  21
TORSDOF 5
ENDMDL
MODEL 8
REMARK VINA RESULT:      -8.4      0.776      1.402
REMARK  Name = 
REMARK  5 active torsions:
REMARK  status: ('A' for Active; 'I' for Inactive)
REMARK    1  A    between atoms: O_1  and  C_2
REMARK    2  A    between atoms: C_2  and  C_3
REMARK    3  A    between atoms: C_2  and  C_10
REMARK    4  A    between atoms: C_3  and  N_4
REMARK    5  A    between atoms: C_13  and  C_14
REMARK                            x       y       z     vdW  Elec       q    Type
REMARK                         _______ _______ _______ _____ _____    ______ ____
ROOT
ATOM      1  C   UNL     1       0.581   8.784  20.537  0.00  0.00    +0.000 A 
ATOM      2  C   UNL     1       0.836   9.306  19.250  0.00  0.00    +0.000 A 
ATOM      3  C   UNL     1       1.846   8.783  18.439  0.00  0.00    +0.000 A 
ATOM      4  C   UNL     1       2.616   7.722  18.907  0.00  0.00    +0.000 A 
ATOM      5  C   UNL     1       2.372   7.193  20.177  0.00  0.00    +0.000 A 
ATOM      6  C   UNL     1       1.370   7.724  20.988  0.00  0.00    +0.000 A 
ENDROOT
BRANCH   4   7
ATOM      7  C   UNL     1       3.604   7.057  18.064  0.00  0.00    +0.000 C 
ATOM      8  C   UNL     1       3.428   5.923  17.360  0.00  0.00    +0.000 C 
ATOM      9  C   UNL     1       4.524   5.416  16.517  0.00  0.00    +0.000 A 
ATOM     10  C   UNL     1       5.354   6.056  15.591  0.00  0.00    +0.000 A 
ATOM     11  C   UNL     1       6.244   5.263  14.893  0.00  0.00    +0.000 A 
ATOM     12  C   UNL     1       6.323   3.878  15.138  0.00  0.00    +0.000 A 
ATOM     13  C   UNL     1       5.491   3.253  16.085  0.00  0.00    +0.000 A 
ATOM     14  C   UNL     1       4.582   4.038  16.762  0.00  0.00    +0.000 A 
ATOM     15  C   UNL     1       3.519   3.681  17.715  0.00  0.00    +0.000 A 
ATOM     16  C   UNL     1       3.348   2.543  18.482  0.00  0.00    +0.000 A 
ATOM     17  C   UNL     1       2.224   2.475  19.311  0.00  0.00    +0.000 A 
ATOM     18  C   UNL     1       1.253   3.494  19.308  0.00  0.00    +0.000 A 
ATOM     19  C   UNL     1       1.460   4.667  18.585  0.00  0.00    +0.000 A 
ATOM     20  C   UNL     1       2.642   4.777  17.881  0.00  0.00    +0.000 A 
ENDBRANCH   4   7
BRANCH   1  21
ATOM     21  C   UNL     1      -0.485   9.381  21.442  0.00  0.00    +0.000 C 
BRANCH  21  22
ATOM     22  O   UNL     1      -0.749   8.442  22.482  0.00  0.00    +0.000 OA
ATOM     23  H   UNL     1      -1.242   8.930  23.164  0.00  0.00    +0.000 HD
ENDBRANCH  21  22
BRANCH  21  24
ATOM     24  C   UNL     1      -0.078  10.766  22.036  0.00  0.00    +0.000 C 
BRANCH  24  25
ATOM     25  N   UNL     1      -1.162  11.797  22.135  0.00  0.00    +0.000 NA
ATOM     26  C   UNL     1      -2.051  11.533  23.279  0.00  0.00    +0.000 C 
ATOM     27  C   UNL     1      -3.135  12.597  23.446  0.00  0.00    +0.000 C 
ATOM     28  C   UNL     1      -2.539  13.988  23.556  0.00  0.00    +0.000 C 
ATOM     29  C   UNL     1      -1.603  14.242  22.382  0.00  0.00    +0.000 C 
ATOM     30  C   UNL     1      -0.551  13.136  22.262  0.00  0.00    +0.000 C 
ENDBRANCH  24  25
ENDBRANCH  21  24
ENDBRANCH   1  21
TORSDOF 5
ENDMDL
MODEL 9
REMARK VINA RESULT:      -8.4      2.944      9.279
REMARK  Name = 
REMARK  5 active torsions:
REMARK  status: ('A' for Active; 'I' for Inactive)
REMARK    1  A    between atoms: O_1  and  C_2
REMARK    2  A    between atoms: C_2  and  C_3
REMARK    3  A    between atoms: C_2  and  C_10
REMARK    4  A    between atoms: C_3  and  N_4
REMARK    5  A    between atoms: C_13  and  C_14
REMARK                            x       y       z     vdW  Elec       q    Type
REMARK                         _______ _______ _______ _____ _____    ______ ____
ROOT
ATOM      1  C   UNL     1       2.891   7.274  18.239  0.00  0.00    +0.000 A 
ATOM      2  C   UNL     1       2.609   8.493  17.586  0.00  0.00    +0.000 A 
ATOM      3  C   UNL     1       1.858   9.495  18.205  0.00  0.00    +0.000 A 
ATOM      4  C   UNL     1       1.381   9.290  19.497  0.00  0.00    +0.000 A 
ATOM      5  C   UNL     1       1.656   8.090  20.157  0.00  0.00    +0.000 A 
ATOM      6  C   UNL     1       2.396   7.088  19.532  0.00  0.00    +0.000 A 
ENDROOT
BRANCH   4   7
ATOM      7  C   UNL     1       0.694  10.341  20.239  0.00  0.00    +0.000 C 
ATOM      8  C   UNL     1      -0.633  10.560  20.283  0.00  0.00    +0.000 C 
ATOM      9  C   UNL     1      -1.163  11.643  21.129  0.00  0.00    +0.000 A 
ATOM     10  C   UNL     1      -0.895  11.999  22.454  0.00  0.00    +0.000 A 
ATOM     11  C   UNL     1      -1.636  13.035  22.988  0.00  0.00    +0.000 A 
ATOM     12  C   UNL     1      -2.593  13.715  22.208  0.00  0.00    +0.000 A 
ATOM     13  C   UNL     1      -2.839  13.353  20.871  0.00  0.00    +0.000 A 
ATOM     14  C   UNL     1      -2.120  12.300  20.346  0.00  0.00    +0.000 A 
ATOM     15  C   UNL     1      -2.214  11.620  19.044  0.00  0.00    +0.000 A 
ATOM     16  C   UNL     1      -2.772  12.043  17.851  0.00  0.00    +0.000 A 
ATOM     17  C   UNL     1      -2.719  11.172  16.758  0.00  0.00    +0.000 A 
ATOM     18  C   UNL     1      -2.188   9.875  16.886  0.00  0.00    +0.000 A 
ATOM     19  C   UNL     1      -1.568   9.477  18.069  0.00  0.00    +0.000 A 
ATOM     20  C   UNL     1      -1.505  10.399  19.093  0.00  0.00    +0.000 A 
ENDBRANCH   4   7
BRANCH   1  21
ATOM     21  C   UNL     1       3.666   6.162  17.551  0.00  0.00    +0.000 C 
BRANCH  21  22
ATOM     22  O   UNL     1       4.591   6.766  16.650  0.00  0.00    +0.000 OA
ATOM     23  H   UNL     1       5.431   6.291  16.769  0.00  0.00    +0.000 HD
ENDBRANCH  21  22
BRANCH  21  24
ATOM     24  C   UNL     1       4.405   5.220  18.554  0.00  0.00    +0.000 C 
BRANCH  24  25
ATOM     25  N   UNL     1       3.788   3.874  18.787  0.00  0.00    +0.000 NA
ATOM     26  C   UNL     1       3.024   3.844  20.046  0.00  0.00    +0.000 C 
ATOM     27  C   UNL     1       2.331   2.504  20.288  0.00  0.00    +0.000 C 
ATOM     28  C   UNL     1       1.437   2.119  19.123  0.00  0.00    +0.000 C 
ATOM     29  C   UNL     1       2.229   2.176  17.825  0.00  0.00    +0.000 C 
ATOM     30  C   UNL     1       2.907   3.538  17.649  0.00  0.00    +0.000 C 
ENDBRANCH  24  25
ENDBRANCH  21  24
ENDBRANCH   1  21
TORSDOF 5
ENDMDL
