MODEL 1
REMARK VINA RESULT:     -10.0      0.000      0.000
REMARK  Name = 
REMARK  6 active torsions:
REMARK  status: ('A' for Active; 'I' for Inactive)
REMARK    1  A    between atoms: C_2  and  C_3
REMARK    2  A    between atoms: C_3  and  S_4
REMARK    3  A    between atoms: S_4  and  C_5
REMARK    4  A    between atoms: C_15  and  C_16
REMARK    5  A    between atoms: C_16  and  C_17
REMARK    6  A    between atoms: N_26  and  C_27
REMARK                            x       y       z     vdW  Elec       q    Type
REMARK                         _______ _______ _______ _____ _____    ______ ____
ROOT
ATOM      1  C   UNL     1       7.068   5.741  16.684  0.00  0.00    +0.000 C 
ATOM      2  N   UNL     1       7.712   5.901  15.569  0.00  0.00    +0.000 NA
ATOM      3  C   UNL     1       7.307   5.127  14.452  0.00  0.00    +0.000 A 
ATOM      4  C   UNL     1       7.844   5.350  13.187  0.00  0.00    +0.000 A 
ATOM      5  C   UNL     1       7.376   4.628  12.073  0.00  0.00    +0.000 A 
ATOM      6  C   UNL     1       6.382   3.657  12.216  0.00  0.00    +0.000 A 
ATOM      7  C   UNL     1       5.860   3.410  13.469  0.00  0.00    +0.000 A 
ATOM      8  C   UNL     1       6.324   4.157  14.555  0.00  0.00    +0.000 A 
ATOM      9  C   UNL     1       5.617   4.070  15.807  0.00  0.00    +0.000 C 
ATOM     10  N   UNL     1       4.583   3.300  15.928  0.00  0.00    +0.000 NA
ATOM     11  C   UNL     1       3.941   3.757  17.174  0.00  0.00    +0.000 C 
ATOM     12  C   UNL     1       5.059   4.576  17.867  0.00  0.00    +0.000 C 
ATOM     13  O   UNL     1       5.051   4.948  19.020  0.00  0.00    +0.000 OA
ATOM     14  N   UNL     1       5.981   4.855  16.846  0.00  0.00    +0.000 N 
ENDROOT
BRANCH   1  15
ATOM     15  S   UNL     1       7.585   6.674  18.077  0.00  0.00    +0.000 S 
BRANCH  15  16
ATOM     16  C   UNL     1       7.593   8.387  17.452  0.00  0.00    +0.000 C 
BRANCH  16  18
ATOM     17  O   UNL     1       8.976   8.841  19.350  0.00  0.00    +0.000 OA
ATOM     18  C   UNL     1       8.510   9.262  18.292  0.00  0.00    +0.000 C 
ATOM     19  N   UNL     1       8.737  10.525  17.768  0.00  0.00    +0.000 N 
ATOM     20  H   UNL     1       8.120  10.837  17.021  0.00  0.00    +0.000 HD
BRANCH  19  21
ATOM     21  C   UNL     1       9.525  11.534  18.378  0.00  0.00    +0.000 A 
ATOM     22  C   UNL     1      10.663  11.270  19.146  0.00  0.00    +0.000 A 
ATOM     23  C   UNL     1      11.316  12.301  19.831  0.00  0.00    +0.000 A 
ATOM     24  C   UNL     1      10.851  13.612  19.737  0.00  0.00    +0.000 A 
ATOM     25  C   UNL     1       9.762  13.899  18.917  0.00  0.00    +0.000 A 
ATOM     26  C   UNL     1       9.121  12.866  18.235  0.00  0.00    +0.000 A 
ATOM     27  F   UNL     1       8.062  13.159  17.462  0.00  0.00    +0.000 F 
ENDBRANCH  19  21
ENDBRANCH  16  18
ENDBRANCH  15  16
ENDBRANCH   1  15
BRANCH  11  28
ATOM     28  C   UNL     1       3.263   2.531  17.791  0.00  0.00    +0.000 C 
BRANCH  28  29
ATOM     29  C   UNL     1       2.550   2.692  19.118  0.00  0.00    +0.000 A 
ATOM     30  C   UNL     1       1.233   3.144  19.232  0.00  0.00    +0.000 A 
ATOM     31  C   UNL     1       0.645   3.304  20.490  0.00  0.00    +0.000 A 
ATOM     32  C   UNL     1       1.362   3.019  21.649  0.00  0.00    +0.000 A 
ATOM     33  C   UNL     1       2.668   2.550  21.554  0.00  0.00    +0.000 A 
ATOM     34  C   UNL     1       3.256   2.387  20.299  0.00  0.00    +0.000 A 
ENDBRANCH  28  29
ENDBRANCH  11  28
TORSDOF 6
ENDMDL
MODEL 2
REMARK VINA RESULT:      -9.8      0.830      1.278
REMARK  Name = 
REMARK  6 active torsions:
REMARK  status: ('A' for Active; 'I' for Inactive)
REMARK    1  A    between atoms: C_2  and  C_3
REMARK    2  A    between atoms: C_3  and  S_4
REMARK    3  A    between atoms: S_4  and  C_5
REMARK    4  A    between atoms: C_15  and  C_16
REMARK    5  A    between atoms: C_16  and  C_17
REMARK    6  A    between atoms: N_26  and  C_27
REMARK                            x       y       z     vdW  Elec       q    Type
REMARK                         _______ _______ _______ _____ _____    ______ ____
ROOT
ATOM      1  C   UNL     1       7.022   5.819  16.676  0.00  0.00    +0.000 C 
ATOM      2  N   UNL     1       7.716   5.928  15.584  0.00  0.00    +0.000 NA
ATOM      3  C   UNL     1       7.306   5.167  14.459  0.00  0.00    +0.000 A 
ATOM      4  C   UNL     1       7.901   5.344  13.214  0.00  0.00    +0.000 A 
ATOM      5  C   UNL     1       7.432   4.639  12.089  0.00  0.00    +0.000 A 
ATOM      6  C   UNL     1       6.377   3.730  12.204  0.00  0.00    +0.000 A 
ATOM      7  C   UNL     1       5.795   3.529  13.438  0.00  0.00    +0.000 A 
ATOM      8  C   UNL     1       6.263   4.259  14.535  0.00  0.00    +0.000 A 
ATOM      9  C   UNL     1       5.506   4.228  15.760  0.00  0.00    +0.000 C 
ATOM     10  N   UNL     1       4.424   3.524  15.849  0.00  0.00    +0.000 NA
ATOM     11  C   UNL     1       3.765   4.031  17.066  0.00  0.00    +0.000 C 
ATOM     12  C   UNL     1       4.904   4.790  17.793  0.00  0.00    +0.000 C 
ATOM     13  O   UNL     1       4.876   5.175  18.941  0.00  0.00    +0.000 OA
ATOM     14  N   UNL     1       5.878   5.002  16.804  0.00  0.00    +0.000 N 
ENDROOT
BRANCH   1  15
ATOM     15  S   UNL     1       7.542   6.735  18.079  0.00  0.00    +0.000 S 
BRANCH  15  16
ATOM     16  C   UNL     1       7.600   8.450  17.460  0.00  0.00    +0.000 C 
BRANCH  16  18
ATOM     17  O   UNL     1       9.111   8.807  19.279  0.00  0.00    +0.000 OA
ATOM     18  C   UNL     1       8.521   9.301  18.319  0.00  0.00    +0.000 C 
ATOM     19  N   UNL     1       8.604  10.628  17.929  0.00  0.00    +0.000 N 
ATOM     20  H   UNL     1       7.901  10.968  17.276  0.00  0.00    +0.000 HD
BRANCH  19  21
ATOM     21  C   UNL     1       9.367  11.628  18.586  0.00  0.00    +0.000 A 
ATOM     22  C   UNL     1       8.886  12.391  19.654  0.00  0.00    +0.000 A 
ATOM     23  C   UNL     1       9.641  13.452  20.168  0.00  0.00    +0.000 A 
ATOM     24  C   UNL     1      10.894  13.747  19.635  0.00  0.00    +0.000 A 
ATOM     25  C   UNL     1      11.415  12.948  18.620  0.00  0.00    +0.000 A 
ATOM     26  C   UNL     1      10.658  11.891  18.116  0.00  0.00    +0.000 A 
ATOM     27  F   UNL     1      11.170  11.141  17.126  0.00  0.00    +0.000 F 
ENDBRANCH  19  21
ENDBRANCH  16  18
ENDBRANCH  15  16
ENDBRANCH   1  15
BRANCH  11  28
ATOM     28  C   UNL     1       2.992   2.856  17.668  0.00  0.00    +0.000 C 
BRANCH  28  29
ATOM     29  C   UNL     1       2.521   2.961  19.104  0.00  0.00    +0.000 A 
ATOM     30  C   UNL     1       3.204   2.390  20.180  0.00  0.00    +0.000 A 
ATOM     31  C   UNL     1       2.695   2.495  21.478  0.00  0.00    +0.000 A 
ATOM     32  C   UNL     1       1.500   3.167  21.719  0.00  0.00    +0.000 A 
ATOM     33  C   UNL     1       0.816   3.758  20.662  0.00  0.00    +0.000 A 
ATOM     34  C   UNL     1       1.324   3.657  19.366  0.00  0.00    +0.000 A 
ENDBRANCH  28  29
ENDBRANCH  11  28
TORSDOF 6
ENDMDL
MODEL 3
REMARK VINA RESULT:      -9.2      5.025      8.166
REMARK  Name = 
REMARK  6 active torsions:
REMARK  status: ('A' for Active; 'I' for Inactive)
REMARK    1  A    between atoms: C_2  and  C_3
REMARK    2  A    between atoms: C_3  and  S_4
REMARK    3  A    between atoms: S_4  and  C_5
REMARK    4  A    between atoms: C_15  and  C_16
REMARK    5  A    between atoms: C_16  and  C_17
REMARK    6  A    between atoms: N_26  and  C_27
REMARK                            x       y       z     vdW  Elec       q    Type
REMARK                         _______ _______ _______ _____ _____    ______ ____
ROOT
ATOM      1  C   UNL     1       3.108   6.918  18.360  0.00  0.00    +0.000 C 
ATOM      2  N   UNL     1       2.147   6.481  19.115  0.00  0.00    +0.000 NA
ATOM      3  C   UNL     1       2.276   5.182  19.668  0.00  0.00    +0.000 A 
ATOM      4  C   UNL     1       1.366   4.703  20.606  0.00  0.00    +0.000 A 
ATOM      5  C   UNL     1       1.549   3.442  21.204  0.00  0.00    +0.000 A 
ATOM      6  C   UNL     1       2.634   2.635  20.852  0.00  0.00    +0.000 A 
ATOM      7  C   UNL     1       3.530   3.089  19.906  0.00  0.00    +0.000 A 
ATOM      8  C   UNL     1       3.338   4.354  19.344  0.00  0.00    +0.000 A 
ATOM      9  C   UNL     1       4.393   4.922  18.544  0.00  0.00    +0.000 C 
ATOM     10  N   UNL     1       5.489   4.265  18.334  0.00  0.00    +0.000 NA
ATOM     11  C   UNL     1       6.424   5.283  17.823  0.00  0.00    +0.000 C 
ATOM     12  C   UNL     1       5.488   6.445  17.406  0.00  0.00    +0.000 C 
ATOM     13  O   UNL     1       5.802   7.397  16.727  0.00  0.00    +0.000 OA
ATOM     14  N   UNL     1       4.279   6.183  18.071  0.00  0.00    +0.000 N 
ENDROOT
BRANCH   1  15
ATOM     15  S   UNL     1       2.941   8.513  17.650  0.00  0.00    +0.000 S 
BRANCH  15  16
ATOM     16  C   UNL     1       1.154   8.851  17.798  0.00  0.00    +0.000 C 
BRANCH  16  18
ATOM     17  O   UNL     1       1.672  10.860  18.987  0.00  0.00    +0.000 OA
ATOM     18  C   UNL     1       0.893   9.918  18.849  0.00  0.00    +0.000 C 
ATOM     19  N   UNL     1      -0.251   9.712  19.603  0.00  0.00    +0.000 N 
ATOM     20  H   UNL     1      -0.681   8.791  19.557  0.00  0.00    +0.000 HD
BRANCH  19  21
ATOM     21  C   UNL     1      -0.692  10.545  20.664  0.00  0.00    +0.000 A 
ATOM     22  C   UNL     1      -1.217  11.827  20.475  0.00  0.00    +0.000 A 
ATOM     23  C   UNL     1      -1.507  12.647  21.572  0.00  0.00    +0.000 A 
ATOM     24  C   UNL     1      -1.296  12.186  22.870  0.00  0.00    +0.000 A 
ATOM     25  C   UNL     1      -0.842  10.884  23.072  0.00  0.00    +0.000 A 
ATOM     26  C   UNL     1      -0.561  10.073  21.974  0.00  0.00    +0.000 A 
ATOM     27  F   UNL     1      -0.109   8.826  22.188  0.00  0.00    +0.000 F 
ENDBRANCH  19  21
ENDBRANCH  16  18
ENDBRANCH  15  16
ENDBRANCH   1  15
BRANCH  11  28
ATOM     28  C   UNL     1       7.377   4.560  16.868  0.00  0.00    +0.000 C 
BRANCH  28  29
ATOM     29  C   UNL     1       6.981   4.436  15.410  0.00  0.00    +0.000 A 
ATOM     30  C   UNL     1       5.891   3.679  14.973  0.00  0.00    +0.000 A 
ATOM     31  C   UNL     1       5.601   3.578  13.610  0.00  0.00    +0.000 A 
ATOM     32  C   UNL     1       6.393   4.226  12.666  0.00  0.00    +0.000 A 
ATOM     33  C   UNL     1       7.471   4.999  13.084  0.00  0.00    +0.000 A 
ATOM     34  C   UNL     1       7.761   5.104  14.446  0.00  0.00    +0.000 A 
ENDBRANCH  28  29
ENDBRANCH  11  28
TORSDOF 6
ENDMDL
MODEL 4
REMARK VINA RESULT:      -9.2      1.233      1.582
REMARK  Name = 
REMARK  6 active torsions:
REMARK  status: ('A' for Active; 'I' for Inactive)
REMARK    1  A    between atoms: C_2  and  C_3
REMARK    2  A    between atoms: C_3  and  S_4
REMARK    3  A    between atoms: S_4  and  C_5
REMARK    4  A    between atoms: C_15  and  C_16
REMARK    5  A    between atoms: C_16  and  C_17
REMARK    6  A    between atoms: N_26  and  C_27
REMARK                            x       y       z     vdW  Elec       q    Type
REMARK                         _______ _______ _______ _____ _____    ______ ____
ROOT
ATOM      1  C   UNL     1       6.792   5.933  16.678  0.00  0.00    +0.000 C 
ATOM      2  N   UNL     1       7.506   6.056  15.601  0.00  0.00    +0.000 NA
ATOM      3  C   UNL     1       7.204   5.208  14.505  0.00  0.00    +0.000 A 
ATOM      4  C   UNL     1       7.819   5.382  13.268  0.00  0.00    +0.000 A 
ATOM      5  C   UNL     1       7.453   4.584  12.168  0.00  0.00    +0.000 A 
ATOM      6  C   UNL     1       6.483   3.586  12.299  0.00  0.00    +0.000 A 
ATOM      7  C   UNL     1       5.884   3.389  13.526  0.00  0.00    +0.000 A 
ATOM      8  C   UNL     1       6.248   4.211  14.597  0.00  0.00    +0.000 A 
ATOM      9  C   UNL     1       5.459   4.166  15.802  0.00  0.00    +0.000 C 
ATOM     10  N   UNL     1       4.444   3.368  15.896  0.00  0.00    +0.000 NA
ATOM     11  C   UNL     1       3.704   3.868  17.069  0.00  0.00    +0.000 C 
ATOM     12  C   UNL     1       4.744   4.763  17.788  0.00  0.00    +0.000 C 
ATOM     13  O   UNL     1       4.645   5.197  18.914  0.00  0.00    +0.000 OA
ATOM     14  N   UNL     1       5.725   5.019  16.816  0.00  0.00    +0.000 N 
ENDROOT
BRANCH   1  15
ATOM     15  S   UNL     1       7.181   6.959  18.047  0.00  0.00    +0.000 S 
BRANCH  15  16
ATOM     16  C   UNL     1       8.423   8.109  17.369  0.00  0.00    +0.000 C 
BRANCH  16  18
ATOM     17  O   UNL     1       7.621  10.313  17.833  0.00  0.00    +0.000 OA
ATOM     18  C   UNL     1       8.415   9.423  18.133  0.00  0.00    +0.000 C 
ATOM     19  N   UNL     1       9.361   9.506  19.142  0.00  0.00    +0.000 N 
ATOM     20  H   UNL     1      10.105   8.811  19.142  0.00  0.00    +0.000 HD
BRANCH  19  21
ATOM     21  C   UNL     1       9.576  10.636  19.972  0.00  0.00    +0.000 A 
ATOM     22  C   UNL     1       8.868  10.874  21.154  0.00  0.00    +0.000 A 
ATOM     23  C   UNL     1       9.033  12.075  21.853  0.00  0.00    +0.000 A 
ATOM     24  C   UNL     1       9.924  13.042  21.391  0.00  0.00    +0.000 A 
ATOM     25  C   UNL     1      10.688  12.785  20.255  0.00  0.00    +0.000 A 
ATOM     26  C   UNL     1      10.521  11.585  19.567  0.00  0.00    +0.000 A 
ATOM     27  F   UNL     1      11.254  11.362  18.464  0.00  0.00    +0.000 F 
ENDBRANCH  19  21
ENDBRANCH  16  18
ENDBRANCH  15  16
ENDBRANCH   1  15
BRANCH  11  28
ATOM     28  C   UNL     1       3.025   2.654  17.707  0.00  0.00    +0.000 C 
BRANCH  28  29
ATOM     29  C   UNL     1       2.505   2.780  19.124  0.00  0.00    +0.000 A 
ATOM     30  C   UNL     1       3.244   2.409  20.250  0.00  0.00    +0.000 A 
ATOM     31  C   UNL     1       2.691   2.519  21.529  0.00  0.00    +0.000 A 
ATOM     32  C   UNL     1       1.395   2.997  21.702  0.00  0.00    +0.000 A 
ATOM     33  C   UNL     1       0.651   3.389  20.595  0.00  0.00    +0.000 A 
ATOM     34  C   UNL     1       1.202   3.283  19.317  0.00  0.00    +0.000 A 
ENDBRANCH  28  29
ENDBRANCH  11  28
TORSDOF 6
ENDMDL
MODEL 5
REMARK VINA RESULT:      -9.2      5.029      8.545
REMARK  Name = 
REMARK  6 active torsions:
REMARK  status: ('A' for Active; 'I' for Inactive)
REMARK    1  A    between atoms: C_2  and  C_3
REMARK    2  A    between atoms: C_3  and  S_4
REMARK    3  A    between atoms: S_4  and  C_5
REMARK    4  A    between atoms: C_15  and  C_16
REMARK    5  A    between atoms: C_16  and  C_17
REMARK    6  A    between atoms: N_26  and  C_27
REMARK                            x       y       z     vdW  Elec       q    Type
REMARK                         _______ _______ _______ _____ _____    ______ ____
ROOT
ATOM      1  C   UNL     1       2.850   6.600  18.512  0.00  0.00    +0.000 C 
ATOM      2  N   UNL     1       1.926   6.100  19.273  0.00  0.00    +0.000 NA
ATOM      3  C   UNL     1       2.181   4.851  19.895  0.00  0.00    +0.000 A 
ATOM      4  C   UNL     1       1.307   4.325  20.842  0.00  0.00    +0.000 A 
ATOM      5  C   UNL     1       1.611   3.123  21.509  0.00  0.00    +0.000 A 
ATOM      6  C   UNL     1       2.783   2.421  21.217  0.00  0.00    +0.000 A 
ATOM      7  C   UNL     1       3.645   2.920  20.262  0.00  0.00    +0.000 A 
ATOM      8  C   UNL     1       3.332   4.128  19.632  0.00  0.00    +0.000 A 
ATOM      9  C   UNL     1       4.337   4.765  18.820  0.00  0.00    +0.000 C 
ATOM     10  N   UNL     1       5.501   4.220  18.662  0.00  0.00    +0.000 NA
ATOM     11  C   UNL     1       6.332   5.306  18.113  0.00  0.00    +0.000 C 
ATOM     12  C   UNL     1       5.286   6.338  17.622  0.00  0.00    +0.000 C 
ATOM     13  O   UNL     1       5.512   7.283  16.899  0.00  0.00    +0.000 OA
ATOM     14  N   UNL     1       4.098   5.981  18.280  0.00  0.00    +0.000 N 
ENDROOT
BRANCH   1  15
ATOM     15  S   UNL     1       2.528   8.130  17.717  0.00  0.00    +0.000 S 
BRANCH  15  16
ATOM     16  C   UNL     1       2.162   9.253  19.106  0.00  0.00    +0.000 C 
BRANCH  16  18
ATOM     17  O   UNL     1       0.046   9.171  20.217  0.00  0.00    +0.000 OA
ATOM     18  C   UNL     1       0.667   9.511  19.211  0.00  0.00    +0.000 C 
ATOM     19  N   UNL     1       0.112  10.124  18.099  0.00  0.00    +0.000 N 
ATOM     20  H   UNL     1       0.670  10.143  17.249  0.00  0.00    +0.000 HD
BRANCH  19  21
ATOM     21  C   UNL     1      -1.262  10.438  17.940  0.00  0.00    +0.000 A 
ATOM     22  C   UNL     1      -2.098   9.809  17.012  0.00  0.00    +0.000 A 
ATOM     23  C   UNL     1      -3.408  10.259  16.812  0.00  0.00    +0.000 A 
ATOM     24  C   UNL     1      -3.905  11.329  17.554  0.00  0.00    +0.000 A 
ATOM     25  C   UNL     1      -3.106  11.917  18.532  0.00  0.00    +0.000 A 
ATOM     26  C   UNL     1      -1.804  11.459  18.728  0.00  0.00    +0.000 A 
ATOM     27  F   UNL     1      -1.043  12.049  19.664  0.00  0.00    +0.000 F 
ENDBRANCH  19  21
ENDBRANCH  16  18
ENDBRANCH  15  16
ENDBRANCH   1  15
BRANCH  11  28
ATOM     28  C   UNL     1       7.377   4.643  17.212  0.00  0.00    +0.000 C 
BRANCH  28  29
ATOM     29  C   UNL     1       7.063   4.486  15.738  0.00  0.00    +0.000 A 
ATOM     30  C   UNL     1       7.768   5.146  14.728  0.00  0.00    +0.000 A 
ATOM     31  C   UNL     1       7.404   4.984  13.388  0.00  0.00    +0.000 A 
ATOM     32  C   UNL     1       6.333   4.166  13.038  0.00  0.00    +0.000 A 
ATOM     33  C   UNL     1       5.632   3.487  14.028  0.00  0.00    +0.000 A 
ATOM     34  C   UNL     1       5.995   3.644  15.367  0.00  0.00    +0.000 A 
ENDBRANCH  28  29
ENDBRANCH  11  28
TORSDOF 6
ENDMDL
MODEL 6
REMARK VINA RESULT:      -9.1      5.117      8.565
REMARK  Name = 
REMARK  6 active torsions:
REMARK  status: ('A' for Active; 'I' for Inactive)
REMARK    1  A    between atoms: C_2  and  C_3
REMARK    2  A    between atoms: C_3  and  S_4
REMARK    3  A    between atoms: S_4  and  C_5
REMARK    4  A    between atoms: C_15  and  C_16
REMARK    5  A    between atoms: C_16  and  C_17
REMARK    6  A    between atoms: N_26  and  C_27
REMARK                            x       y       z     vdW  Elec       q    Type
REMARK                         _______ _______ _______ _____ _____    ______ ____
ROOT
ATOM      1  C   UNL     1       2.739   6.515  18.555  0.00  0.00    +0.000 C 
ATOM      2  N   UNL     1       1.833   5.988  19.320  0.00  0.00    +0.000 NA
ATOM      3  C   UNL     1       2.134   4.755  19.953  0.00  0.00    +0.000 A 
ATOM      4  C   UNL     1       1.279   4.206  20.905  0.00  0.00    +0.000 A 
ATOM      5  C   UNL     1       1.627   3.022  21.582  0.00  0.00    +0.000 A 
ATOM      6  C   UNL     1       2.825   2.360  21.297  0.00  0.00    +0.000 A 
ATOM      7  C   UNL     1       3.668   2.883  20.338  0.00  0.00    +0.000 A 
ATOM      8  C   UNL     1       3.311   4.072  19.697  0.00  0.00    +0.000 A 
ATOM      9  C   UNL     1       4.292   4.739  18.879  0.00  0.00    +0.000 C 
ATOM     10  N   UNL     1       5.475   4.236  18.726  0.00  0.00    +0.000 NA
ATOM     11  C   UNL     1       6.267   5.347  18.167  0.00  0.00    +0.000 C 
ATOM     12  C   UNL     1       5.183   6.335  17.667  0.00  0.00    +0.000 C 
ATOM     13  O   UNL     1       5.374   7.282  16.936  0.00  0.00    +0.000 OA
ATOM     14  N   UNL     1       4.009   5.941  18.328  0.00  0.00    +0.000 N 
ENDROOT
BRANCH   1  15
ATOM     15  S   UNL     1       2.361   8.024  17.746  0.00  0.00    +0.000 S 
BRANCH  15  16
ATOM     16  C   UNL     1       2.170   9.201  19.126  0.00  0.00    +0.000 C 
BRANCH  16  18
ATOM     17  O   UNL     1       0.099   9.160  20.322  0.00  0.00    +0.000 OA
ATOM     18  C   UNL     1       0.706   9.560  19.329  0.00  0.00    +0.000 C 
ATOM     19  N   UNL     1       0.159  10.332  18.317  0.00  0.00    +0.000 N 
ATOM     20  H   UNL     1       0.683  10.401  17.447  0.00  0.00    +0.000 HD
BRANCH  19  21
ATOM     21  C   UNL     1      -1.190  10.766  18.258  0.00  0.00    +0.000 A 
ATOM     22  C   UNL     1      -1.723  11.754  19.091  0.00  0.00    +0.000 A 
ATOM     23  C   UNL     1      -3.094  12.039  19.073  0.00  0.00    +0.000 A 
ATOM     24  C   UNL     1      -3.943  11.355  18.205  0.00  0.00    +0.000 A 
ATOM     25  C   UNL     1      -3.412  10.420  17.319  0.00  0.00    +0.000 A 
ATOM     26  C   UNL     1      -2.046  10.146  17.341  0.00  0.00    +0.000 A 
ATOM     27  F   UNL     1      -1.555   9.230  16.490  0.00  0.00    +0.000 F 
ENDBRANCH  19  21
ENDBRANCH  16  18
ENDBRANCH  15  16
ENDBRANCH   1  15
BRANCH  11  28
ATOM     28  C   UNL     1       7.335   4.715  17.272  0.00  0.00    +0.000 C 
BRANCH  28  29
ATOM     29  C   UNL     1       7.023   4.522  15.802  0.00  0.00    +0.000 A 
ATOM     30  C   UNL     1       7.721   5.168  14.779  0.00  0.00    +0.000 A 
ATOM     31  C   UNL     1       7.360   4.973  13.443  0.00  0.00    +0.000 A 
ATOM     32  C   UNL     1       6.298   4.136  13.110  0.00  0.00    +0.000 A 
ATOM     33  C   UNL     1       5.604   3.471  14.115  0.00  0.00    +0.000 A 
ATOM     34  C   UNL     1       5.965   3.661  15.450  0.00  0.00    +0.000 A 
ENDBRANCH  28  29
ENDBRANCH  11  28
TORSDOF 6
ENDMDL
MODEL 7
REMARK VINA RESULT:      -9.1      5.245      8.713
REMARK  Name = 
REMARK  6 active torsions:
REMARK  status: ('A' for Active; 'I' for Inactive)
REMARK    1  A    between atoms: C_2  and  C_3
REMARK    2  A    between atoms: C_3  and  S_4
REMARK    3  A    between atoms: S_4  and  C_5
REMARK    4  A    between atoms: C_15  and  C_16
REMARK    5  A    between atoms: C_16  and  C_17
REMARK    6  A    between atoms: N_26  and  C_27
REMARK                            x       y       z     vdW  Elec       q    Type
REMARK                         _______ _______ _______ _____ _____    ______ ____
ROOT
ATOM      1  C   UNL     1       2.912   6.706  18.609  0.00  0.00    +0.000 C 
ATOM      2  N   UNL     1       1.977   6.206  19.358  0.00  0.00    +0.000 NA
ATOM      3  C   UNL     1       2.193   4.923  19.920  0.00  0.00    +0.000 A 
ATOM      4  C   UNL     1       1.310   4.387  20.853  0.00  0.00    +0.000 A 
ATOM      5  C   UNL     1       1.577   3.146  21.462  0.00  0.00    +0.000 A 
ATOM      6  C   UNL     1       2.720   2.416  21.126  0.00  0.00    +0.000 A 
ATOM      7  C   UNL     1       3.590   2.926  20.185  0.00  0.00    +0.000 A 
ATOM      8  C   UNL     1       3.314   4.171  19.612  0.00  0.00    +0.000 A 
ATOM      9  C   UNL     1       4.334   4.808  18.818  0.00  0.00    +0.000 C 
ATOM     10  N   UNL     1       5.476   4.230  18.623  0.00  0.00    +0.000 NA
ATOM     11  C   UNL     1       6.341   5.308  18.112  0.00  0.00    +0.000 C 
ATOM     12  C   UNL     1       5.328   6.398  17.680  0.00  0.00    +0.000 C 
ATOM     13  O   UNL     1       5.580   7.366  16.997  0.00  0.00    +0.000 OA
ATOM     14  N   UNL     1       4.134   6.055  18.335  0.00  0.00    +0.000 N 
ENDROOT
BRANCH   1  15
ATOM     15  S   UNL     1       2.638   8.281  17.886  0.00  0.00    +0.000 S 
BRANCH  15  16
ATOM     16  C   UNL     1       1.573   9.120  19.105  0.00  0.00    +0.000 C 
BRANCH  16  18
ATOM     17  O   UNL     1       0.837  11.141  18.060  0.00  0.00    +0.000 OA
ATOM     18  C   UNL     1       0.545   9.998  18.409  0.00  0.00    +0.000 C 
ATOM     19  N   UNL     1      -0.694   9.403  18.235  0.00  0.00    +0.000 N 
ATOM     20  H   UNL     1      -0.884   8.556  18.766  0.00  0.00    +0.000 HD
BRANCH  19  21
ATOM     21  C   UNL     1      -1.825  10.025  17.646  0.00  0.00    +0.000 A 
ATOM     22  C   UNL     1      -2.265   9.760  16.346  0.00  0.00    +0.000 A 
ATOM     23  C   UNL     1      -3.304  10.507  15.779  0.00  0.00    +0.000 A 
ATOM     24  C   UNL     1      -3.930  11.512  16.514  0.00  0.00    +0.000 A 
ATOM     25  C   UNL     1      -3.550  11.736  17.835  0.00  0.00    +0.000 A 
ATOM     26  C   UNL     1      -2.517  10.985  18.393  0.00  0.00    +0.000 A 
ATOM     27  F   UNL     1      -2.153  11.226  19.663  0.00  0.00    +0.000 F 
ENDBRANCH  19  21
ENDBRANCH  16  18
ENDBRANCH  15  16
ENDBRANCH   1  15
BRANCH  11  28
ATOM     28  C   UNL     1       7.351   4.649  17.171  0.00  0.00    +0.000 C 
BRANCH  28  29
ATOM     29  C   UNL     1       6.975   4.478  15.713  0.00  0.00    +0.000 A 
ATOM     30  C   UNL     1       5.945   3.640  15.280  0.00  0.00    +0.000 A 
ATOM     31  C   UNL     1       5.672   3.501  13.916  0.00  0.00    +0.000 A 
ATOM     32  C   UNL     1       6.422   4.191  12.968  0.00  0.00    +0.000 A 
ATOM     33  C   UNL     1       7.439   5.045  13.383  0.00  0.00    +0.000 A 
ATOM     34  C   UNL     1       7.712   5.188  14.744  0.00  0.00    +0.000 A 
ENDBRANCH  28  29
ENDBRANCH  11  28
TORSDOF 6
ENDMDL
MODEL 8
REMARK VINA RESULT:      -9.0      5.011      8.297
REMARK  Name = 
REMARK  6 active torsions:
REMARK  status: ('A' for Active; 'I' for Inactive)
REMARK    1  A    between atoms: C_2  and  C_3
REMARK    2  A    between atoms: C_3  and  S_4
REMARK    3  A    between atoms: S_4  and  C_5
REMARK    4  A    between atoms: C_15  and  C_16
REMARK    5  A    between atoms: C_16  and  C_17
REMARK    6  A    between atoms: N_26  and  C_27
REMARK                            x       y       z     vdW  Elec       q    Type
REMARK                         _______ _______ _______ _____ _____    ______ ____
ROOT
ATOM      1  C   UNL     1       3.123   6.703  18.338  0.00  0.00    +0.000 C 
ATOM      2  N   UNL     1       2.480   6.469  19.441  0.00  0.00    +0.000 NA
ATOM      3  C   UNL     1       2.495   5.145  19.950  0.00  0.00    +0.000 A 
ATOM      4  C   UNL     1       1.962   4.847  21.201  0.00  0.00    +0.000 A 
ATOM      5  C   UNL     1       2.053   3.545  21.727  0.00  0.00    +0.000 A 
ATOM      6  C   UNL     1       2.660   2.519  20.997  0.00  0.00    +0.000 A 
ATOM      7  C   UNL     1       3.171   2.798  19.746  0.00  0.00    +0.000 A 
ATOM      8  C   UNL     1       3.088   4.104  19.256  0.00  0.00    +0.000 A 
ATOM      9  C   UNL     1       3.828   4.445  18.067  0.00  0.00    +0.000 C 
ATOM     10  N   UNL     1       4.539   3.554  17.454  0.00  0.00    +0.000 NA
ATOM     11  C   UNL     1       5.404   4.341  16.557  0.00  0.00    +0.000 C 
ATOM     12  C   UNL     1       4.701   5.721  16.511  0.00  0.00    +0.000 C 
ATOM     13  O   UNL     1       4.937   6.608  15.720  0.00  0.00    +0.000 OA
ATOM     14  N   UNL     1       3.847   5.723  17.626  0.00  0.00    +0.000 N 
ENDROOT
BRANCH   1  15
ATOM     15  S   UNL     1       3.082   8.332  17.689  0.00  0.00    +0.000 S 
BRANCH  15  16
ATOM     16  C   UNL     1       1.304   8.739  17.694  0.00  0.00    +0.000 C 
BRANCH  16  18
ATOM     17  O   UNL     1       1.768  10.876  18.663  0.00  0.00    +0.000 OA
ATOM     18  C   UNL     1       1.021   9.899  18.636  0.00  0.00    +0.000 C 
ATOM     19  N   UNL     1      -0.104   9.733  19.428  0.00  0.00    +0.000 N 
ATOM     20  H   UNL     1      -0.501   8.797  19.485  0.00  0.00    +0.000 HD
BRANCH  19  21
ATOM     21  C   UNL     1      -0.558  10.653  20.407  0.00  0.00    +0.000 A 
ATOM     22  C   UNL     1      -0.218  10.575  21.761  0.00  0.00    +0.000 A 
ATOM     23  C   UNL     1      -0.809  11.435  22.695  0.00  0.00    +0.000 A 
ATOM     24  C   UNL     1      -1.729  12.396  22.283  0.00  0.00    +0.000 A 
ATOM     25  C   UNL     1      -2.021  12.532  20.927  0.00  0.00    +0.000 A 
ATOM     26  C   UNL     1      -1.425  11.675  20.003  0.00  0.00    +0.000 A 
ATOM     27  F   UNL     1      -1.731  11.810  18.703  0.00  0.00    +0.000 F 
ENDBRANCH  19  21
ENDBRANCH  16  18
ENDBRANCH  15  16
ENDBRANCH   1  15
BRANCH  11  28
ATOM     28  C   UNL     1       5.668   3.468  15.328  0.00  0.00    +0.000 C 
BRANCH  28  29
ATOM     29  C   UNL     1       6.450   4.063  14.175  0.00  0.00    +0.000 A 
ATOM     30  C   UNL     1       7.413   5.062  14.335  0.00  0.00    +0.000 A 
ATOM     31  C   UNL     1       8.074   5.593  13.223  0.00  0.00    +0.000 A 
ATOM     32  C   UNL     1       7.782   5.138  11.940  0.00  0.00    +0.000 A 
ATOM     33  C   UNL     1       6.840   4.130  11.764  0.00  0.00    +0.000 A 
ATOM     34  C   UNL     1       6.181   3.596  12.873  0.00  0.00    +0.000 A 
ENDBRANCH  28  29
ENDBRANCH  11  28
TORSDOF 6
ENDMDL
MODEL 9
REMARK VINA RESULT:      -9.0      4.729      7.377
REMARK  Name = 
REMARK  6 active torsions:
REMARK  status: ('A' for Active; 'I' for Inactive)
REMARK    1  A    between atoms: C_2  and  C_3
REMARK    2  A    between atoms: C_3  and  S_4
REMARK    3  A    between atoms: S_4  and  C_5
REMARK    4  A    between atoms: C_15  and  C_16
REMARK    5  A    between atoms: C_16  and  C_17
REMARK    6  A    between atoms: N_26  and  C_27
REMARK                            x       y       z     vdW  Elec       q    Type
REMARK                         _______ _______ _______ _____ _____    ______ ____
ROOT
ATOM      1  C   UNL     1       2.988   6.816  18.497  0.00  0.00    +0.000 C 
ATOM      2  N   UNL     1       2.010   6.354  19.215  0.00  0.00    +0.000 NA
ATOM      3  C   UNL     1       2.152   5.059  19.775  0.00  0.00    +0.000 A 
ATOM      4  C   UNL     1       1.219   4.558  20.679  0.00  0.00    +0.000 A 
ATOM      5  C   UNL     1       1.413   3.303  21.286  0.00  0.00    +0.000 A 
ATOM      6  C   UNL     1       2.531   2.524  20.978  0.00  0.00    +0.000 A 
ATOM      7  C   UNL     1       3.451   3.001  20.067  0.00  0.00    +0.000 A 
ATOM      8  C   UNL     1       3.247   4.260  19.495  0.00  0.00    +0.000 A 
ATOM      9  C   UNL     1       4.317   4.855  18.735  0.00  0.00    +0.000 C 
ATOM     10  N   UNL     1       5.437   4.227  18.569  0.00  0.00    +0.000 NA
ATOM     11  C   UNL     1       6.364   5.269  18.092  0.00  0.00    +0.000 C 
ATOM     12  C   UNL     1       5.414   6.405  17.637  0.00  0.00    +0.000 C 
ATOM     13  O   UNL     1       5.729   7.365  16.969  0.00  0.00    +0.000 OA
ATOM     14  N   UNL     1       4.187   6.112  18.255  0.00  0.00    +0.000 N 
ENDROOT
BRANCH   1  15
ATOM     15  S   UNL     1       2.805   8.405  17.778  0.00  0.00    +0.000 S 
BRANCH  15  16
ATOM     16  C   UNL     1       1.124   8.901  18.281  0.00  0.00    +0.000 C 
BRANCH  16  18
ATOM     17  O   UNL     1       0.861  10.403  20.123  0.00  0.00    +0.000 OA
ATOM     18  C   UNL     1       1.140  10.275  18.932  0.00  0.00    +0.000 C 
ATOM     19  N   UNL     1       1.470  11.312  18.074  0.00  0.00    +0.000 N 
ATOM     20  H   UNL     1       1.449  11.116  17.075  0.00  0.00    +0.000 HD
BRANCH  19  21
ATOM     21  C   UNL     1       1.519  12.684  18.430  0.00  0.00    +0.000 A 
ATOM     22  C   UNL     1       2.693  13.346  18.804  0.00  0.00    +0.000 A 
ATOM     23  C   UNL     1       2.649  14.663  19.274  0.00  0.00    +0.000 A 
ATOM     24  C   UNL     1       1.436  15.342  19.354  0.00  0.00    +0.000 A 
ATOM     25  C   UNL     1       0.269  14.719  18.915  0.00  0.00    +0.000 A 
ATOM     26  C   UNL     1       0.322  13.408  18.445  0.00  0.00    +0.000 A 
ATOM     27  F   UNL     1      -0.815  12.818  18.041  0.00  0.00    +0.000 F 
ENDBRANCH  19  21
ENDBRANCH  16  18
ENDBRANCH  15  16
ENDBRANCH   1  15
BRANCH  11  28
ATOM     28  C   UNL     1       7.372   4.570  17.175  0.00  0.00    +0.000 C 
BRANCH  28  29
ATOM     29  C   UNL     1       7.048   4.459  15.699  0.00  0.00    +0.000 A 
ATOM     30  C   UNL     1       7.774   5.116  14.703  0.00  0.00    +0.000 A 
ATOM     31  C   UNL     1       7.402   4.999  13.361  0.00  0.00    +0.000 A 
ATOM     32  C   UNL     1       6.300   4.229  12.995  0.00  0.00    +0.000 A 
ATOM     33  C   UNL     1       5.577   3.553  13.972  0.00  0.00    +0.000 A 
ATOM     34  C   UNL     1       5.950   3.666  15.313  0.00  0.00    +0.000 A 
ENDBRANCH  28  29
ENDBRANCH  11  28
TORSDOF 6
ENDMDL
