MODEL 1
REMARK VINA RESULT:      -7.0      0.000      0.000
REMARK  Name = 
REMARK  7 active torsions:
REMARK  status: ('A' for Active; 'I' for Inactive)
REMARK    1  A    between atoms: C_1  and  C_2
REMARK    2  A    between atoms: C_2  and  C_3
REMARK    3  A    between atoms: C_2  and  S_4
REMARK    4  A    between atoms: S_4  and  C_5
REMARK    5  A    between atoms: C_7  and  C_8
REMARK    6  A    between atoms: N_18  and  C_19
REMARK    7  A    between atoms: N_22  and  C_23
REMARK                            x       y       z     vdW  Elec       q    Type
REMARK                         _______ _______ _______ _____ _____    ______ ____
ROOT
ATOM      1  C   UNL     1       4.060   6.235  17.529  0.00  0.00    +0.000 A 
ATOM      2  N   UNL     1       3.486   7.432  17.774  0.00  0.00    +0.000 NA
ATOM      3  C   UNL     1       2.410   7.449  18.565  0.00  0.00    +0.000 A 
ATOM      4  N   UNL     1       1.859   6.363  19.119  0.00  0.00    +0.000 NA
ATOM      5  C   UNL     1       2.434   5.172  18.848  0.00  0.00    +0.000 A 
ATOM      6  C   UNL     1       3.553   5.051  18.051  0.00  0.00    +0.000 A 
ATOM      7  C   UNL     1       4.137   3.713  17.863  0.00  0.00    +0.000 A 
ATOM      8  O   UNL     1       5.214   3.573  17.298  0.00  0.00    +0.000 OA
ATOM      9  N   UNL     1       3.427   2.640  18.386  0.00  0.00    +0.000 N 
ATOM     10  C   UNL     1       3.939   1.298  18.162  0.00  0.00    +0.000 C 
ATOM     11  C   UNL     1       2.314   2.749  19.209  0.00  0.00    +0.000 A 
ATOM     12  O   UNL     1       1.787   1.755  19.711  0.00  0.00    +0.000 OA
ATOM     13  N   UNL     1       1.845   4.026  19.434  0.00  0.00    +0.000 N 
ATOM     14  C   UNL     1       0.686   4.222  20.296  0.00  0.00    +0.000 C 
ENDROOT
BRANCH   3  15
ATOM     15  C   UNL     1       1.857   8.770  18.870  0.00  0.00    +0.000 A 
ATOM     16  C   UNL     1       1.871   9.907  18.076  0.00  0.00    +0.000 A 
ATOM     17  C   UNL     1       1.275  11.037  18.707  0.00  0.00    +0.000 A 
ATOM     18  C   UNL     1       0.814  10.733  19.967  0.00  0.00    +0.000 A 
ATOM     19  S   UNL     1       1.087   9.095  20.372  0.00  0.00    +0.000 S 
ENDBRANCH   3  15
BRANCH   1  20
ATOM     20  S   UNL     1       5.523   6.384  16.504  0.00  0.00    +0.000 S 
BRANCH  20  22
ATOM     21  C   UNL     1       7.654   5.523  18.060  0.00  0.00    +0.000 C 
ATOM     22  C   UNL     1       6.773   6.744  17.802  0.00  0.00    +0.000 C 
ATOM     23  C   UNL     1       7.649   7.923  17.379  0.00  0.00    +0.000 C 
ENDBRANCH  20  22
ENDBRANCH   1  20
TORSDOF 3
ENDMDL
MODEL 2
REMARK VINA RESULT:      -6.3      6.756      9.907
REMARK  Name = 
REMARK  7 active torsions:
REMARK  status: ('A' for Active; 'I' for Inactive)
REMARK    1  A    between atoms: C_1  and  C_2
REMARK    2  A    between atoms: C_2  and  C_3
REMARK    3  A    between atoms: C_2  and  S_4
REMARK    4  A    between atoms: S_4  and  C_5
REMARK    5  A    between atoms: C_7  and  C_8
REMARK    6  A    between atoms: N_18  and  C_19
REMARK    7  A    between atoms: N_22  and  C_23
REMARK                            x       y       z     vdW  Elec       q    Type
REMARK                         _______ _______ _______ _____ _____    ______ ____
ROOT
ATOM      1  C   UNL     1      -0.985  11.651  20.588  0.00  0.00    +0.000 A 
ATOM      2  N   UNL     1      -1.353  11.129  19.399  0.00  0.00    +0.000 NA
ATOM      3  C   UNL     1      -2.527  11.516  18.893  0.00  0.00    +0.000 A 
ATOM      4  N   UNL     1      -3.364  12.374  19.489  0.00  0.00    +0.000 NA
ATOM      5  C   UNL     1      -2.989  12.872  20.686  0.00  0.00    +0.000 A 
ATOM      6  C   UNL     1      -1.792  12.541  21.288  0.00  0.00    +0.000 A 
ATOM      7  C   UNL     1      -1.451  13.181  22.568  0.00  0.00    +0.000 A 
ATOM      8  O   UNL     1      -0.339  13.043  23.061  0.00  0.00    +0.000 OA
ATOM      9  N   UNL     1      -2.433  13.968  23.156  0.00  0.00    +0.000 N 
ATOM     10  C   UNL     1      -2.156  14.562  24.453  0.00  0.00    +0.000 C 
ATOM     11  C   UNL     1      -3.630  14.328  22.552  0.00  0.00    +0.000 A 
ATOM     12  O   UNL     1      -4.418  15.103  23.098  0.00  0.00    +0.000 OA
ATOM     13  N   UNL     1      -3.878  13.776  21.313  0.00  0.00    +0.000 N 
ATOM     14  C   UNL     1      -5.111  14.115  20.611  0.00  0.00    +0.000 C 
ENDROOT
BRANCH   3  15
ATOM     15  C   UNL     1      -2.862  10.989  17.569  0.00  0.00    +0.000 A 
ATOM     16  C   UNL     1      -2.128  10.108  16.789  0.00  0.00    +0.000 A 
ATOM     17  C   UNL     1      -2.735   9.838  15.528  0.00  0.00    +0.000 A 
ATOM     18  C   UNL     1      -3.922  10.516  15.379  0.00  0.00    +0.000 A 
ATOM     19  S   UNL     1      -4.302  11.456  16.755  0.00  0.00    +0.000 S 
ENDBRANCH   3  15
BRANCH   1  20
ATOM     20  S   UNL     1       0.634  11.082  21.104  0.00  0.00    +0.000 S 
BRANCH  20  22
ATOM     21  C   UNL     1       1.286   8.406  21.447  0.00  0.00    +0.000 C 
ATOM     22  C   UNL     1       0.185   9.421  21.751  0.00  0.00    +0.000 C 
ATOM     23  C   UNL     1      -0.044   9.487  23.261  0.00  0.00    +0.000 C 
ENDBRANCH  20  22
ENDBRANCH   1  20
TORSDOF 3
ENDMDL
MODEL 3
REMARK VINA RESULT:      -6.1      2.102      4.359
REMARK  Name = 
REMARK  7 active torsions:
REMARK  status: ('A' for Active; 'I' for Inactive)
REMARK    1  A    between atoms: C_1  and  C_2
REMARK    2  A    between atoms: C_2  and  C_3
REMARK    3  A    between atoms: C_2  and  S_4
REMARK    4  A    between atoms: S_4  and  C_5
REMARK    5  A    between atoms: C_7  and  C_8
REMARK    6  A    between atoms: N_18  and  C_19
REMARK    7  A    between atoms: N_22  and  C_23
REMARK                            x       y       z     vdW  Elec       q    Type
REMARK                         _______ _______ _______ _____ _____    ______ ____
ROOT
ATOM      1  C   UNL     1       2.560   4.839  18.212  0.00  0.00    +0.000 A 
ATOM      2  N   UNL     1       1.947   5.786  18.953  0.00  0.00    +0.000 NA
ATOM      3  C   UNL     1       2.540   6.981  19.038  0.00  0.00    +0.000 A 
ATOM      4  N   UNL     1       3.699   7.296  18.449  0.00  0.00    +0.000 NA
ATOM      5  C   UNL     1       4.308   6.331  17.728  0.00  0.00    +0.000 A 
ATOM      6  C   UNL     1       3.772   5.069  17.572  0.00  0.00    +0.000 A 
ATOM      7  C   UNL     1       4.486   4.106  16.719  0.00  0.00    +0.000 A 
ATOM      8  O   UNL     1       3.977   3.033  16.423  0.00  0.00    +0.000 OA
ATOM      9  N   UNL     1       5.734   4.492  16.246  0.00  0.00    +0.000 N 
ATOM     10  C   UNL     1       6.497   3.540  15.456  0.00  0.00    +0.000 C 
ATOM     11  C   UNL     1       6.274   5.764  16.375  0.00  0.00    +0.000 A 
ATOM     12  O   UNL     1       7.350   6.062  15.853  0.00  0.00    +0.000 OA
ATOM     13  N   UNL     1       5.535   6.668  17.110  0.00  0.00    +0.000 N 
ATOM     14  C   UNL     1       6.032   8.029  17.281  0.00  0.00    +0.000 C 
ENDROOT
BRANCH   3  15
ATOM     15  C   UNL     1       1.813   8.007  19.788  0.00  0.00    +0.000 A 
ATOM     16  C   UNL     1       1.422   7.979  21.118  0.00  0.00    +0.000 A 
ATOM     17  C   UNL     1       0.691   9.136  21.511  0.00  0.00    +0.000 A 
ATOM     18  C   UNL     1       0.546  10.025  20.471  0.00  0.00    +0.000 A 
ATOM     19  S   UNL     1       1.299   9.468  19.042  0.00  0.00    +0.000 S 
ENDBRANCH   3  15
BRANCH   1  20
ATOM     20  S   UNL     1       1.616   3.317  18.147  0.00  0.00    +0.000 S 
BRANCH  20  22
ATOM     21  C   UNL     1       3.572   2.795  20.046  0.00  0.00    +0.000 C 
ATOM     22  C   UNL     1       2.082   2.597  19.773  0.00  0.00    +0.000 C 
ATOM     23  C   UNL     1       1.268   3.248  20.892  0.00  0.00    +0.000 C 
ENDBRANCH  20  22
ENDBRANCH   1  20
TORSDOF 3
ENDMDL
MODEL 4
REMARK VINA RESULT:      -6.1      2.895      5.436
REMARK  Name = 
REMARK  7 active torsions:
REMARK  status: ('A' for Active; 'I' for Inactive)
REMARK    1  A    between atoms: C_1  and  C_2
REMARK    2  A    between atoms: C_2  and  C_3
REMARK    3  A    between atoms: C_2  and  S_4
REMARK    4  A    between atoms: S_4  and  C_5
REMARK    5  A    between atoms: C_7  and  C_8
REMARK    6  A    between atoms: N_18  and  C_19
REMARK    7  A    between atoms: N_22  and  C_23
REMARK                            x       y       z     vdW  Elec       q    Type
REMARK                         _______ _______ _______ _____ _____    ______ ____
ROOT
ATOM      1  C   UNL     1       5.071   6.082  17.132  0.00  0.00    +0.000 A 
ATOM      2  N   UNL     1       5.587   5.712  15.940  0.00  0.00    +0.000 NA
ATOM      3  C   UNL     1       5.228   4.519  15.457  0.00  0.00    +0.000 A 
ATOM      4  N   UNL     1       4.404   3.667  16.077  0.00  0.00    +0.000 NA
ATOM      5  C   UNL     1       3.913   4.044  17.276  0.00  0.00    +0.000 A 
ATOM      6  C   UNL     1       4.216   5.259  17.855  0.00  0.00    +0.000 A 
ATOM      7  C   UNL     1       3.583   5.599  19.139  0.00  0.00    +0.000 A 
ATOM      8  O   UNL     1       3.694   6.722  19.614  0.00  0.00    +0.000 OA
ATOM      9  N   UNL     1       2.835   4.603  19.753  0.00  0.00    +0.000 N 
ATOM     10  C   UNL     1       2.251   4.882  21.055  0.00  0.00    +0.000 C 
ATOM     11  C   UNL     1       2.503   3.387  19.173  0.00  0.00    +0.000 A 
ATOM     12  O   UNL     1       1.760   2.585  19.741  0.00  0.00    +0.000 OA
ATOM     13  N   UNL     1       3.045   3.137  17.929  0.00  0.00    +0.000 N 
ATOM     14  C   UNL     1       2.734   1.884  17.250  0.00  0.00    +0.000 C 
ENDROOT
BRANCH   3  15
ATOM     15  C   UNL     1       5.747   4.181  14.130  0.00  0.00    +0.000 A 
ATOM     16  C   UNL     1       5.138   3.420  13.143  0.00  0.00    +0.000 A 
ATOM     17  C   UNL     1       5.950   3.257  11.983  0.00  0.00    +0.000 A 
ATOM     18  C   UNL     1       7.157   3.902  12.111  0.00  0.00    +0.000 A 
ATOM     19  S   UNL     1       7.299   4.708  13.612  0.00  0.00    +0.000 S 
ENDBRANCH   3  15
BRANCH   1  20
ATOM     20  S   UNL     1       5.598   7.725  17.615  0.00  0.00    +0.000 S 
BRANCH  20  22
ATOM     21  C   UNL     1       8.144   8.795  17.890  0.00  0.00    +0.000 C 
ATOM     22  C   UNL     1       7.420   7.483  17.595  0.00  0.00    +0.000 C 
ATOM     23  C   UNL     1       7.824   6.434  18.631  0.00  0.00    +0.000 C 
ENDBRANCH  20  22
ENDBRANCH   1  20
TORSDOF 3
ENDMDL
MODEL 5
REMARK VINA RESULT:      -6.1      2.862      6.155
REMARK  Name = 
REMARK  7 active torsions:
REMARK  status: ('A' for Active; 'I' for Inactive)
REMARK    1  A    between atoms: C_1  and  C_2
REMARK    2  A    between atoms: C_2  and  C_3
REMARK    3  A    between atoms: C_2  and  S_4
REMARK    4  A    between atoms: S_4  and  C_5
REMARK    5  A    between atoms: C_7  and  C_8
REMARK    6  A    between atoms: N_18  and  C_19
REMARK    7  A    between atoms: N_22  and  C_23
REMARK                            x       y       z     vdW  Elec       q    Type
REMARK                         _______ _______ _______ _____ _____    ______ ____
ROOT
ATOM      1  C   UNL     1       3.448   4.480  19.101  0.00  0.00    +0.000 A 
ATOM      2  N   UNL     1       4.227   4.248  18.023  0.00  0.00    +0.000 NA
ATOM      3  C   UNL     1       4.420   5.261  17.173  0.00  0.00    +0.000 A 
ATOM      4  N   UNL     1       3.887   6.480  17.313  0.00  0.00    +0.000 NA
ATOM      5  C   UNL     1       3.096   6.689  18.387  0.00  0.00    +0.000 A 
ATOM      6  C   UNL     1       2.842   5.710  19.325  0.00  0.00    +0.000 A 
ATOM      7  C   UNL     1       2.011   6.056  20.489  0.00  0.00    +0.000 A 
ATOM      8  O   UNL     1       1.887   5.276  21.424  0.00  0.00    +0.000 OA
ATOM      9  N   UNL     1       1.415   7.311  20.484  0.00  0.00    +0.000 N 
ATOM     10  C   UNL     1       0.533   7.661  21.585  0.00  0.00    +0.000 C 
ATOM     11  C   UNL     1       1.680   8.312  19.560  0.00  0.00    +0.000 A 
ATOM     12  O   UNL     1       1.181   9.434  19.667  0.00  0.00    +0.000 OA
ATOM     13  N   UNL     1       2.533   7.979  18.528  0.00  0.00    +0.000 N 
ATOM     14  C   UNL     1       2.867   8.982  17.523  0.00  0.00    +0.000 C 
ENDROOT
BRANCH   3  15
ATOM     15  C   UNL     1       5.328   4.998  16.056  0.00  0.00    +0.000 A 
ATOM     16  C   UNL     1       5.042   4.376  14.849  0.00  0.00    +0.000 A 
ATOM     17  C   UNL     1       6.181   4.248  14.002  0.00  0.00    +0.000 A 
ATOM     18  C   UNL     1       7.309   4.782  14.581  0.00  0.00    +0.000 A 
ATOM     19  S   UNL     1       6.987   5.442  16.124  0.00  0.00    +0.000 S 
ENDBRANCH   3  15
BRANCH   1  20
ATOM     20  S   UNL     1       3.332   3.047  20.172  0.00  0.00    +0.000 S 
BRANCH  20  22
ATOM     21  C   UNL     1       0.701   2.761  19.337  0.00  0.00    +0.000 C 
ATOM     22  C   UNL     1       2.066   2.080  19.256  0.00  0.00    +0.000 C 
ATOM     23  C   UNL     1       2.474   1.930  17.790  0.00  0.00    +0.000 C 
ENDBRANCH  20  22
ENDBRANCH   1  20
TORSDOF 3
ENDMDL
MODEL 6
REMARK VINA RESULT:      -6.0      3.221      5.922
REMARK  Name = 
REMARK  7 active torsions:
REMARK  status: ('A' for Active; 'I' for Inactive)
REMARK    1  A    between atoms: C_1  and  C_2
REMARK    2  A    between atoms: C_2  and  C_3
REMARK    3  A    between atoms: C_2  and  S_4
REMARK    4  A    between atoms: S_4  and  C_5
REMARK    5  A    between atoms: C_7  and  C_8
REMARK    6  A    between atoms: N_18  and  C_19
REMARK    7  A    between atoms: N_22  and  C_23
REMARK                            x       y       z     vdW  Elec       q    Type
REMARK                         _______ _______ _______ _____ _____    ______ ____
ROOT
ATOM      1  C   UNL     1       2.962   7.419  18.305  0.00  0.00    +0.000 A 
ATOM      2  N   UNL     1       3.134   6.183  18.820  0.00  0.00    +0.000 NA
ATOM      3  C   UNL     1       2.456   5.879  19.930  0.00  0.00    +0.000 A 
ATOM      4  N   UNL     1       1.629   6.716  20.568  0.00  0.00    +0.000 NA
ATOM      5  C   UNL     1       1.484   7.954  20.050  0.00  0.00    +0.000 A 
ATOM      6  C   UNL     1       2.133   8.362  18.903  0.00  0.00    +0.000 A 
ATOM      7  C   UNL     1       1.863   9.714  18.389  0.00  0.00    +0.000 A 
ATOM      8  O   UNL     1       2.289  10.065  17.296  0.00  0.00    +0.000 OA
ATOM      9  N   UNL     1       1.080  10.542  19.183  0.00  0.00    +0.000 N 
ATOM     10  C   UNL     1       0.848  11.906  18.738  0.00  0.00    +0.000 C 
ATOM     11  C   UNL     1       0.402  10.138  20.325  0.00  0.00    +0.000 A 
ATOM     12  O   UNL     1      -0.347  10.905  20.932  0.00  0.00    +0.000 OA
ATOM     13  N   UNL     1       0.612   8.837  20.730  0.00  0.00    +0.000 N 
ATOM     14  C   UNL     1      -0.074   8.336  21.916  0.00  0.00    +0.000 C 
ENDROOT
BRANCH   3  15
ATOM     15  C   UNL     1       2.608   4.508  20.421  0.00  0.00    +0.000 A 
ATOM     16  C   UNL     1       1.903   3.880  21.437  0.00  0.00    +0.000 A 
ATOM     17  C   UNL     1       2.342   2.546  21.680  0.00  0.00    +0.000 A 
ATOM     18  C   UNL     1       3.368   2.186  20.839  0.00  0.00    +0.000 A 
ATOM     19  S   UNL     1       3.784   3.443  19.759  0.00  0.00    +0.000 S 
ENDBRANCH   3  15
BRANCH   1  20
ATOM     20  S   UNL     1       3.889   7.655  16.790  0.00  0.00    +0.000 S 
BRANCH  20  22
ATOM     21  C   UNL     1       5.318   5.512  15.755  0.00  0.00    +0.000 C 
ATOM     22  C   UNL     1       5.179   6.365  17.015  0.00  0.00    +0.000 C 
ATOM     23  C   UNL     1       6.524   7.014  17.341  0.00  0.00    +0.000 C 
ENDBRANCH  20  22
ENDBRANCH   1  20
TORSDOF 3
ENDMDL
MODEL 7
REMARK VINA RESULT:      -5.9      5.071      8.469
REMARK  Name = 
REMARK  7 active torsions:
REMARK  status: ('A' for Active; 'I' for Inactive)
REMARK    1  A    between atoms: C_1  and  C_2
REMARK    2  A    between atoms: C_2  and  C_3
REMARK    3  A    between atoms: C_2  and  S_4
REMARK    4  A    between atoms: S_4  and  C_5
REMARK    5  A    between atoms: C_7  and  C_8
REMARK    6  A    between atoms: N_18  and  C_19
REMARK    7  A    between atoms: N_22  and  C_23
REMARK                            x       y       z     vdW  Elec       q    Type
REMARK                         _______ _______ _______ _____ _____    ______ ____
ROOT
ATOM      1  C   UNL     1      -0.791  10.924  18.570  0.00  0.00    +0.000 A 
ATOM      2  N   UNL     1       0.188  10.044  18.270  0.00  0.00    +0.000 NA
ATOM      3  C   UNL     1       0.787   9.418  19.287  0.00  0.00    +0.000 A 
ATOM      4  N   UNL     1       0.490   9.610  20.577  0.00  0.00    +0.000 NA
ATOM      5  C   UNL     1      -0.478  10.507  20.860  0.00  0.00    +0.000 A 
ATOM      6  C   UNL     1      -1.161  11.199  19.882  0.00  0.00    +0.000 A 
ATOM      7  C   UNL     1      -2.238  12.113  20.293  0.00  0.00    +0.000 A 
ATOM      8  O   UNL     1      -2.975  12.627  19.462  0.00  0.00    +0.000 OA
ATOM      9  N   UNL     1      -2.392  12.327  21.657  0.00  0.00    +0.000 N 
ATOM     10  C   UNL     1      -3.402  13.276  22.097  0.00  0.00    +0.000 C 
ATOM     11  C   UNL     1      -1.729  11.622  22.652  0.00  0.00    +0.000 A 
ATOM     12  O   UNL     1      -1.980  11.804  23.844  0.00  0.00    +0.000 OA
ATOM     13  N   UNL     1      -0.786  10.710  22.227  0.00  0.00    +0.000 N 
ATOM     14  C   UNL     1      -0.054   9.923  23.213  0.00  0.00    +0.000 C 
ENDROOT
BRANCH   3  15
ATOM     15  C   UNL     1       1.792   8.417  18.923  0.00  0.00    +0.000 A 
ATOM     16  C   UNL     1       2.590   8.379  17.789  0.00  0.00    +0.000 A 
ATOM     17  C   UNL     1       3.434   7.232  17.737  0.00  0.00    +0.000 A 
ATOM     18  C   UNL     1       3.263   6.423  18.836  0.00  0.00    +0.000 A 
ATOM     19  S   UNL     1       2.106   7.055  19.924  0.00  0.00    +0.000 S 
ENDBRANCH   3  15
BRANCH   1  20
ATOM     20  S   UNL     1      -1.534  11.635  17.103  0.00  0.00    +0.000 S 
BRANCH  20  22
ATOM     21  C   UNL     1      -3.476   9.677  17.419  0.00  0.00    +0.000 C 
ATOM     22  C   UNL     1      -2.398  10.152  16.446  0.00  0.00    +0.000 C 
ATOM     23  C   UNL     1      -3.037  10.468  15.093  0.00  0.00    +0.000 C 
ENDBRANCH  20  22
ENDBRANCH   1  20
TORSDOF 3
ENDMDL
MODEL 8
REMARK VINA RESULT:      -5.8      3.083      6.516
REMARK  Name = 
REMARK  7 active torsions:
REMARK  status: ('A' for Active; 'I' for Inactive)
REMARK    1  A    between atoms: C_1  and  C_2
REMARK    2  A    between atoms: C_2  and  C_3
REMARK    3  A    between atoms: C_2  and  S_4
REMARK    4  A    between atoms: S_4  and  C_5
REMARK    5  A    between atoms: C_7  and  C_8
REMARK    6  A    between atoms: N_18  and  C_19
REMARK    7  A    between atoms: N_22  and  C_23
REMARK                            x       y       z     vdW  Elec       q    Type
REMARK                         _______ _______ _______ _____ _____    ______ ____
ROOT
ATOM      1  C   UNL     1       2.272   6.227  19.864  0.00  0.00    +0.000 A 
ATOM      2  N   UNL     1       3.066   5.688  18.915  0.00  0.00    +0.000 NA
ATOM      3  C   UNL     1       3.453   6.482  17.912  0.00  0.00    +0.000 A 
ATOM      4  N   UNL     1       3.100   7.765  17.781  0.00  0.00    +0.000 NA
ATOM      5  C   UNL     1       2.290   8.283  18.729  0.00  0.00    +0.000 A 
ATOM      6  C   UNL     1       1.843   7.549  19.808  0.00  0.00    +0.000 A 
ATOM      7  C   UNL     1       1.010   8.222  20.816  0.00  0.00    +0.000 A 
ATOM      8  O   UNL     1       0.721   7.662  21.865  0.00  0.00    +0.000 OA
ATOM      9  N   UNL     1       0.607   9.521  20.530  0.00  0.00    +0.000 N 
ATOM     10  C   UNL     1      -0.272  10.193  21.472  0.00  0.00    +0.000 C 
ATOM     11  C   UNL     1       1.067  10.279  19.462  0.00  0.00    +0.000 A 
ATOM     12  O   UNL     1       0.735  11.457  19.320  0.00  0.00    +0.000 OA
ATOM     13  N   UNL     1       1.917   9.640  18.583  0.00  0.00    +0.000 N 
ATOM     14  C   UNL     1       2.450  10.374  17.441  0.00  0.00    +0.000 C 
ENDROOT
BRANCH   3  15
ATOM     15  C   UNL     1       4.373   5.887  16.941  0.00  0.00    +0.000 A 
ATOM     16  C   UNL     1       5.102   6.527  15.949  0.00  0.00    +0.000 A 
ATOM     17  C   UNL     1       5.869   5.630  15.152  0.00  0.00    +0.000 A 
ATOM     18  C   UNL     1       5.713   4.326  15.557  0.00  0.00    +0.000 A 
ATOM     19  S   UNL     1       4.660   4.192  16.897  0.00  0.00    +0.000 S 
ENDBRANCH   3  15
BRANCH   1  20
ATOM     20  S   UNL     1       1.888   5.059  21.168  0.00  0.00    +0.000 S 
BRANCH  20  22
ATOM     21  C   UNL     1       2.822   2.446  21.192  0.00  0.00    +0.000 C 
ATOM     22  C   UNL     1       2.189   3.485  20.268  0.00  0.00    +0.000 C 
ATOM     23  C   UNL     1       0.876   2.936  19.709  0.00  0.00    +0.000 C 
ENDBRANCH  20  22
ENDBRANCH   1  20
TORSDOF 3
ENDMDL
MODEL 9
REMARK VINA RESULT:      -5.8      6.140      8.915
REMARK  Name = 
REMARK  7 active torsions:
REMARK  status: ('A' for Active; 'I' for Inactive)
REMARK    1  A    between atoms: C_1  and  C_2
REMARK    2  A    between atoms: C_2  and  C_3
REMARK    3  A    between atoms: C_2  and  S_4
REMARK    4  A    between atoms: S_4  and  C_5
REMARK    5  A    between atoms: C_7  and  C_8
REMARK    6  A    between atoms: N_18  and  C_19
REMARK    7  A    between atoms: N_22  and  C_23
REMARK                            x       y       z     vdW  Elec       q    Type
REMARK                         _______ _______ _______ _____ _____    ______ ____
ROOT
ATOM      1  C   UNL     1      -0.863  11.610  20.392  0.00  0.00    +0.000 A 
ATOM      2  N   UNL     1      -1.063  12.318  21.525  0.00  0.00    +0.000 NA
ATOM      3  C   UNL     1      -2.258  12.892  21.689  0.00  0.00    +0.000 A 
ATOM      4  N   UNL     1      -3.262  12.821  20.807  0.00  0.00    +0.000 NA
ATOM      5  C   UNL     1      -3.038  12.126  19.672  0.00  0.00    +0.000 A 
ATOM      6  C   UNL     1      -1.842  11.490  19.412  0.00  0.00    +0.000 A 
ATOM      7  C   UNL     1      -1.719  10.710  18.170  0.00  0.00    +0.000 A 
ATOM      8  O   UNL     1      -0.741  10.002  17.970  0.00  0.00    +0.000 OA
ATOM      9  N   UNL     1      -2.774  10.792  17.271  0.00  0.00    +0.000 N 
ATOM     10  C   UNL     1      -2.658  10.089  16.004  0.00  0.00    +0.000 C 
ATOM     11  C   UNL     1      -3.991  11.408  17.528  0.00  0.00    +0.000 A 
ATOM     12  O   UNL     1      -4.917  11.366  16.716  0.00  0.00    +0.000 OA
ATOM     13  N   UNL     1      -4.101  12.057  18.740  0.00  0.00    +0.000 N 
ATOM     14  C   UNL     1      -5.354  12.720  19.087  0.00  0.00    +0.000 C 
ENDROOT
BRANCH   3  15
ATOM     15  C   UNL     1      -2.467  13.589  22.959  0.00  0.00    +0.000 A 
ATOM     16  C   UNL     1      -3.601  13.591  23.758  0.00  0.00    +0.000 A 
ATOM     17  C   UNL     1      -3.471  14.416  24.912  0.00  0.00    +0.000 A 
ATOM     18  C   UNL     1      -2.237  15.021  24.970  0.00  0.00    +0.000 A 
ATOM     19  S   UNL     1      -1.244  14.581  23.649  0.00  0.00    +0.000 S 
ENDBRANCH   3  15
BRANCH   1  20
ATOM     20  S   UNL     1       0.761  10.855  20.345  0.00  0.00    +0.000 S 
BRANCH  20  22
ATOM     21  C   UNL     1       1.397   8.184  20.755  0.00  0.00    +0.000 C 
ATOM     22  C   UNL     1       0.378   9.250  21.155  0.00  0.00    +0.000 C 
ATOM     23  C   UNL     1       0.380   9.411  22.675  0.00  0.00    +0.000 C 
ENDBRANCH  20  22
ENDBRANCH   1  20
TORSDOF 3
ENDMDL
