MODEL 1
REMARK VINA RESULT:      -9.3      0.000      0.000
REMARK  Name = 
REMARK  9 active torsions:
REMARK  status: ('A' for Active; 'I' for Inactive)
REMARK    1  A    between atoms: C_1  and  O_2
REMARK    2  A    between atoms: O_2  and  C_3
REMARK    3  A    between atoms: C_6  and  C_7
REMARK    4  A    between atoms: C_9  and  C_10
REMARK    5  A    between atoms: N_13  and  C_14
REMARK    6  A    between atoms: C_14  and  C_15
REMARK    7  A    between atoms: C_21  and  C_22
REMARK    8  A    between atoms: C_27  and  O_28
REMARK    9  A    between atoms: O_28  and  C_29
REMARK                            x       y       z     vdW  Elec       q    Type
REMARK                         _______ _______ _______ _____ _____    ______ ____
ROOT
ATOM      1  C   UNL     1       4.580   4.250  19.123  0.00  0.00    +0.000 C 
ATOM      2  C   UNL     1       4.006   5.552  19.610  0.00  0.00    +0.000 C 
ATOM      3  C   UNL     1       2.684   5.780  19.654  0.00  0.00    +0.000 C 
ATOM      4  N   UNL     1       1.820   4.745  19.408  0.00  0.00    +0.000 N 
ATOM      5  C   UNL     1       2.210   3.474  19.134  0.00  0.00    +0.000 C 
ATOM      6  S   UNL     1       1.098   2.261  18.901  0.00  0.00    +0.000 S 
ATOM      7  N   UNL     1       3.543   3.235  19.059  0.00  0.00    +0.000 N 
ATOM      8  H   UNL     1       0.824   4.917  19.472  0.00  0.00    +0.000 HD
ATOM      9  H   UNL     1       3.825   2.295  18.812  0.00  0.00    +0.000 HD
ENDROOT
BRANCH   1  13
ATOM     10  C   UNL     1       6.477   4.560  15.203  0.00  0.00    +0.000 A 
ATOM     11  C   UNL     1       5.107   4.371  15.316  0.00  0.00    +0.000 A 
ATOM     12  C   UNL     1       4.518   4.278  16.572  0.00  0.00    +0.000 A 
ATOM     13  C   UNL     1       5.267   4.384  17.760  0.00  0.00    +0.000 A 
ATOM     14  C   UNL     1       6.656   4.571  17.639  0.00  0.00    +0.000 A 
ATOM     15  C   UNL     1       7.246   4.657  16.364  0.00  0.00    +0.000 A 
BRANCH  10  17
ATOM     16  C   UNL     1       6.324   3.768  12.969  0.00  0.00    +0.000 C 
ATOM     17  O   UNL     1       6.933   4.635  13.917  0.00  0.00    +0.000 OA
ENDBRANCH  10  17
BRANCH  14  18
ATOM     18  O   UNL     1       7.361   4.657  18.815  0.00  0.00    +0.000 OA
ATOM     19  C   UNL     1       7.839   5.946  19.190  0.00  0.00    +0.000 C 
ENDBRANCH  14  18
ENDBRANCH   1  13
BRANCH   3  20
ATOM     20  C   UNL     1       2.121   7.081  19.769  0.00  0.00    +0.000 A 
ATOM     21  N   UNL     1       1.441   7.515  20.865  0.00  0.00    +0.000 NA
ATOM     22  N   UNL     1       1.050   8.763  20.625  0.00  0.00    +0.000 NA
ATOM     23  N   UNL     1       1.525   9.123  19.410  0.00  0.00    +0.000 N 
ATOM     24  C   UNL     1       2.187   8.078  18.815  0.00  0.00    +0.000 A 
ATOM     25  C   UNL     1       2.785   8.113  17.460  0.00  0.00    +0.000 C 
BRANCH  23  26
ATOM     26  C   UNL     1       1.140  10.399  18.829  0.00  0.00    +0.000 C 
BRANCH  26  27
ATOM     27  C   UNL     1      -0.346  10.557  18.621  0.00  0.00    +0.000 A 
ATOM     28  C   UNL     1      -1.072  11.532  19.332  0.00  0.00    +0.000 A 
ATOM     29  C   UNL     1      -2.419  11.772  19.043  0.00  0.00    +0.000 A 
ATOM     30  C   UNL     1      -3.061  11.038  18.047  0.00  0.00    +0.000 A 
ATOM     31  C   UNL     1      -2.363  10.047  17.356  0.00  0.00    +0.000 A 
ATOM     32  C   UNL     1      -1.018   9.808  17.644  0.00  0.00    +0.000 A 
ENDBRANCH  26  27
ENDBRANCH  23  26
ENDBRANCH   3  20
TORSDOF 6
ENDMDL
MODEL 2
REMARK VINA RESULT:      -8.5      0.883      1.289
REMARK  Name = 
REMARK  9 active torsions:
REMARK  status: ('A' for Active; 'I' for Inactive)
REMARK    1  A    between atoms: C_1  and  O_2
REMARK    2  A    between atoms: O_2  and  C_3
REMARK    3  A    between atoms: C_6  and  C_7
REMARK    4  A    between atoms: C_9  and  C_10
REMARK    5  A    between atoms: N_13  and  C_14
REMARK    6  A    between atoms: C_14  and  C_15
REMARK    7  A    between atoms: C_21  and  C_22
REMARK    8  A    between atoms: C_27  and  O_28
REMARK    9  A    between atoms: O_28  and  C_29
REMARK                            x       y       z     vdW  Elec       q    Type
REMARK                         _______ _______ _______ _____ _____    ______ ____
ROOT
ATOM      1  C   UNL     1       4.683   4.702  18.753  0.00  0.00    +0.000 C 
ATOM      2  C   UNL     1       4.134   6.077  19.022  0.00  0.00    +0.000 C 
ATOM      3  C   UNL     1       2.819   6.341  18.994  0.00  0.00    +0.000 C 
ATOM      4  N   UNL     1       1.932   5.302  18.881  0.00  0.00    +0.000 N 
ATOM      5  C   UNL     1       2.291   3.995  18.813  0.00  0.00    +0.000 C 
ATOM      6  S   UNL     1       1.151   2.789  18.733  0.00  0.00    +0.000 S 
ATOM      7  N   UNL     1       3.618   3.715  18.813  0.00  0.00    +0.000 N 
ATOM      8  H   UNL     1       0.939   5.507  18.890  0.00  0.00    +0.000 HD
ATOM      9  H   UNL     1       3.880   2.742  18.718  0.00  0.00    +0.000 HD
ENDROOT
BRANCH   1  13
ATOM     10  C   UNL     1       6.677   4.377  14.883  0.00  0.00    +0.000 A 
ATOM     11  C   UNL     1       5.292   4.366  14.972  0.00  0.00    +0.000 A 
ATOM     12  C   UNL     1       4.672   4.475  16.212  0.00  0.00    +0.000 A 
ATOM     13  C   UNL     1       5.406   4.612  17.406  0.00  0.00    +0.000 A 
ATOM     14  C   UNL     1       6.810   4.617  17.311  0.00  0.00    +0.000 A 
ATOM     15  C   UNL     1       7.430   4.499  16.053  0.00  0.00    +0.000 A 
BRANCH  10  17
ATOM     16  C   UNL     1       6.340   3.591  12.667  0.00  0.00    +0.000 C 
ATOM     17  O   UNL     1       7.163   4.263  13.612  0.00  0.00    +0.000 OA
ENDBRANCH  10  17
BRANCH  14  18
ATOM     18  O   UNL     1       7.498   4.739  18.494  0.00  0.00    +0.000 OA
ATOM     19  C   UNL     1       7.889   6.052  18.883  0.00  0.00    +0.000 C 
ENDBRANCH  14  18
ENDBRANCH   1  13
BRANCH   3  20
ATOM     20  C   UNL     1       2.291   7.658  18.896  0.00  0.00    +0.000 A 
ATOM     21  N   UNL     1       2.443   8.454  17.803  0.00  0.00    +0.000 NA
ATOM     22  N   UNL     1       1.838   9.609  18.061  0.00  0.00    +0.000 NA
ATOM     23  N   UNL     1       1.270   9.518  19.286  0.00  0.00    +0.000 N 
ATOM     24  C   UNL     1       1.554   8.308  19.868  0.00  0.00    +0.000 A 
ATOM     25  C   UNL     1       1.132   7.899  21.228  0.00  0.00    +0.000 C 
BRANCH  23  26
ATOM     26  C   UNL     1       0.647  10.687  19.887  0.00  0.00    +0.000 C 
BRANCH  26  27
ATOM     27  C   UNL     1      -0.779  10.917  19.449  0.00  0.00    +0.000 A 
ATOM     28  C   UNL     1      -1.543  11.959  20.008  0.00  0.00    +0.000 A 
ATOM     29  C   UNL     1      -2.814  12.260  19.509  0.00  0.00    +0.000 A 
ATOM     30  C   UNL     1      -3.342  11.520  18.451  0.00  0.00    +0.000 A 
ATOM     31  C   UNL     1      -2.609  10.465  17.909  0.00  0.00    +0.000 A 
ATOM     32  C   UNL     1      -1.340  10.165  18.407  0.00  0.00    +0.000 A 
ENDBRANCH  26  27
ENDBRANCH  23  26
ENDBRANCH   3  20
TORSDOF 6
ENDMDL
MODEL 3
REMARK VINA RESULT:      -8.5      1.370      2.271
REMARK  Name = 
REMARK  9 active torsions:
REMARK  status: ('A' for Active; 'I' for Inactive)
REMARK    1  A    between atoms: C_1  and  O_2
REMARK    2  A    between atoms: O_2  and  C_3
REMARK    3  A    between atoms: C_6  and  C_7
REMARK    4  A    between atoms: C_9  and  C_10
REMARK    5  A    between atoms: N_13  and  C_14
REMARK    6  A    between atoms: C_14  and  C_15
REMARK    7  A    between atoms: C_21  and  C_22
REMARK    8  A    between atoms: C_27  and  O_28
REMARK    9  A    between atoms: O_28  and  C_29
REMARK                            x       y       z     vdW  Elec       q    Type
REMARK                         _______ _______ _______ _____ _____    ______ ____
ROOT
ATOM      1  C   UNL     1       4.839   4.397  19.151  0.00  0.00    +0.000 C 
ATOM      2  C   UNL     1       4.184   5.682  19.577  0.00  0.00    +0.000 C 
ATOM      3  C   UNL     1       2.851   5.807  19.679  0.00  0.00    +0.000 C 
ATOM      4  N   UNL     1       2.066   4.691  19.555  0.00  0.00    +0.000 N 
ATOM      5  C   UNL     1       2.545   3.438  19.350  0.00  0.00    +0.000 C 
ATOM      6  S   UNL     1       1.527   2.127  19.265  0.00  0.00    +0.000 S 
ATOM      7  N   UNL     1       3.887   3.301  19.217  0.00  0.00    +0.000 N 
ATOM      8  H   UNL     1       1.062   4.788  19.663  0.00  0.00    +0.000 HD
ATOM      9  H   UNL     1       4.234   2.371  19.020  0.00  0.00    +0.000 HD
ENDROOT
BRANCH   1  13
ATOM     10  C   UNL     1       6.496   4.570  15.115  0.00  0.00    +0.000 A 
ATOM     11  C   UNL     1       5.134   4.402  15.317  0.00  0.00    +0.000 A 
ATOM     12  C   UNL     1       4.621   4.352  16.609  0.00  0.00    +0.000 A 
ATOM     13  C   UNL     1       5.442   4.483  17.745  0.00  0.00    +0.000 A 
ATOM     14  C   UNL     1       6.824   4.649  17.535  0.00  0.00    +0.000 A 
ATOM     15  C   UNL     1       7.336   4.690  16.224  0.00  0.00    +0.000 A 
BRANCH  10  17
ATOM     16  C   UNL     1       6.230   3.685  12.927  0.00  0.00    +0.000 C 
ATOM     17  O   UNL     1       6.874   4.602  13.802  0.00  0.00    +0.000 OA
ENDBRANCH  10  17
BRANCH  14  18
ATOM     18  O   UNL     1       7.600   4.760  18.663  0.00  0.00    +0.000 OA
ATOM     19  C   UNL     1       7.972   6.075  19.065  0.00  0.00    +0.000 C 
ENDBRANCH  14  18
ENDBRANCH   1  13
BRANCH   3  20
ATOM     20  C   UNL     1       2.189   7.064  19.735  0.00  0.00    +0.000 A 
ATOM     21  N   UNL     1       1.534   7.524  20.835  0.00  0.00    +0.000 NA
ATOM     22  N   UNL     1       1.028   8.716  20.530  0.00  0.00    +0.000 NA
ATOM     23  N   UNL     1       1.407   9.020  19.267  0.00  0.00    +0.000 N 
ATOM     24  C   UNL     1       2.122   7.989  18.710  0.00  0.00    +0.000 A 
ATOM     25  C   UNL     1       2.644   7.969  17.324  0.00  0.00    +0.000 C 
BRANCH  23  26
ATOM     26  C   UNL     1       0.887  10.214  18.620  0.00  0.00    +0.000 C 
BRANCH  26  27
ATOM     27  C   UNL     1       1.603  11.484  19.008  0.00  0.00    +0.000 A 
ATOM     28  C   UNL     1       2.435  12.150  18.089  0.00  0.00    +0.000 A 
ATOM     29  C   UNL     1       2.990  13.396  18.398  0.00  0.00    +0.000 A 
ATOM     30  C   UNL     1       2.727  13.990  19.632  0.00  0.00    +0.000 A 
ATOM     31  C   UNL     1       1.930  13.327  20.565  0.00  0.00    +0.000 A 
ATOM     32  C   UNL     1       1.376  12.084  20.256  0.00  0.00    +0.000 A 
ENDBRANCH  26  27
ENDBRANCH  23  26
ENDBRANCH   3  20
TORSDOF 6
ENDMDL
MODEL 4
REMARK VINA RESULT:      -8.4      0.949      1.453
REMARK  Name = 
REMARK  9 active torsions:
REMARK  status: ('A' for Active; 'I' for Inactive)
REMARK    1  A    between atoms: C_1  and  O_2
REMARK    2  A    between atoms: O_2  and  C_3
REMARK    3  A    between atoms: C_6  and  C_7
REMARK    4  A    between atoms: C_9  and  C_10
REMARK    5  A    between atoms: N_13  and  C_14
REMARK    6  A    between atoms: C_14  and  C_15
REMARK    7  A    between atoms: C_21  and  C_22
REMARK    8  A    between atoms: C_27  and  O_28
REMARK    9  A    between atoms: O_28  and  C_29
REMARK                            x       y       z     vdW  Elec       q    Type
REMARK                         _______ _______ _______ _____ _____    ______ ____
ROOT
ATOM      1  C   UNL     1       4.717   4.246  19.103  0.00  0.00    +0.000 C 
ATOM      2  C   UNL     1       4.102   5.531  19.584  0.00  0.00    +0.000 C 
ATOM      3  C   UNL     1       2.773   5.712  19.643  0.00  0.00    +0.000 C 
ATOM      4  N   UNL     1       1.945   4.643  19.419  0.00  0.00    +0.000 N 
ATOM      5  C   UNL     1       2.377   3.384  19.155  0.00  0.00    +0.000 C 
ATOM      6  S   UNL     1       1.307   2.129  18.950  0.00  0.00    +0.000 S 
ATOM      7  N   UNL     1       3.717   3.193  19.065  0.00  0.00    +0.000 N 
ATOM      8  H   UNL     1       0.944   4.780  19.495  0.00  0.00    +0.000 HD
ATOM      9  H   UNL     1       4.030   2.261  18.824  0.00  0.00    +0.000 HD
ENDROOT
BRANCH   1  13
ATOM     10  C   UNL     1       6.551   4.578  15.155  0.00  0.00    +0.000 A 
ATOM     11  C   UNL     1       5.191   4.338  15.289  0.00  0.00    +0.000 A 
ATOM     12  C   UNL     1       4.622   4.238  16.554  0.00  0.00    +0.000 A 
ATOM     13  C   UNL     1       5.381   4.388  17.730  0.00  0.00    +0.000 A 
ATOM     14  C   UNL     1       6.760   4.628  17.589  0.00  0.00    +0.000 A 
ATOM     15  C   UNL     1       7.331   4.719  16.306  0.00  0.00    +0.000 A 
BRANCH  10  17
ATOM     16  C   UNL     1       6.334   3.820  12.915  0.00  0.00    +0.000 C 
ATOM     17  O   UNL     1       6.988   4.654  13.863  0.00  0.00    +0.000 OA
ENDBRANCH  10  17
BRANCH  14  18
ATOM     18  O   UNL     1       7.476   4.756  18.755  0.00  0.00    +0.000 OA
ATOM     19  C   UNL     1       7.854   6.075  19.139  0.00  0.00    +0.000 C 
ENDBRANCH  14  18
ENDBRANCH   1  13
BRANCH   3  20
ATOM     20  C   UNL     1       2.165   6.993  19.751  0.00  0.00    +0.000 A 
ATOM     21  N   UNL     1       1.458   7.403  20.839  0.00  0.00    +0.000 NA
ATOM     22  N   UNL     1       1.028   8.637  20.594  0.00  0.00    +0.000 NA
ATOM     23  N   UNL     1       1.504   9.013  19.385  0.00  0.00    +0.000 N 
ATOM     24  C   UNL     1       2.209   7.992  18.797  0.00  0.00    +0.000 A 
ATOM     25  C   UNL     1       2.821   8.047  17.450  0.00  0.00    +0.000 C 
BRANCH  23  26
ATOM     26  C   UNL     1       1.083  10.276  18.798  0.00  0.00    +0.000 C 
BRANCH  26  27
ATOM     27  C   UNL     1       0.334  11.176  19.750  0.00  0.00    +0.000 A 
ATOM     28  C   UNL     1       1.027  12.066  20.593  0.00  0.00    +0.000 A 
ATOM     29  C   UNL     1       0.334  12.996  21.374  0.00  0.00    +0.000 A 
ATOM     30  C   UNL     1      -1.059  13.044  21.331  0.00  0.00    +0.000 A 
ATOM     31  C   UNL     1      -1.759  12.147  20.524  0.00  0.00    +0.000 A 
ATOM     32  C   UNL     1      -1.068  11.220  19.743  0.00  0.00    +0.000 A 
ENDBRANCH  26  27
ENDBRANCH  23  26
ENDBRANCH   3  20
TORSDOF 6
ENDMDL
MODEL 5
REMARK VINA RESULT:      -8.2      4.874      8.956
REMARK  Name = 
REMARK  9 active torsions:
REMARK  status: ('A' for Active; 'I' for Inactive)
REMARK    1  A    between atoms: C_1  and  O_2
REMARK    2  A    between atoms: O_2  and  C_3
REMARK    3  A    between atoms: C_6  and  C_7
REMARK    4  A    between atoms: C_9  and  C_10
REMARK    5  A    between atoms: N_13  and  C_14
REMARK    6  A    between atoms: C_14  and  C_15
REMARK    7  A    between atoms: C_21  and  C_22
REMARK    8  A    between atoms: C_27  and  O_28
REMARK    9  A    between atoms: O_28  and  C_29
REMARK                            x       y       z     vdW  Elec       q    Type
REMARK                         _______ _______ _______ _____ _____    ______ ____
ROOT
ATOM      1  C   UNL     1      -1.667  10.857  18.957  0.00  0.00    +0.000 C 
ATOM      2  C   UNL     1      -0.650   9.763  19.126  0.00  0.00    +0.000 C 
ATOM      3  C   UNL     1       0.667   9.981  18.987  0.00  0.00    +0.000 C 
ATOM      4  N   UNL     1       1.119  11.267  18.852  0.00  0.00    +0.000 N 
ATOM      5  C   UNL     1       0.319  12.364  18.866  0.00  0.00    +0.000 C 
ATOM      6  S   UNL     1       0.952  13.896  18.750  0.00  0.00    +0.000 S 
ATOM      7  N   UNL     1      -1.016  12.156  18.978  0.00  0.00    +0.000 N 
ATOM      8  H   UNL     1       2.118  11.427  18.777  0.00  0.00    +0.000 HD
ATOM      9  H   UNL     1      -1.610  12.975  18.943  0.00  0.00    +0.000 HD
ENDROOT
BRANCH   1  13
ATOM     10  C   UNL     1      -3.924  10.426  15.245  0.00  0.00    +0.000 A 
ATOM     11  C   UNL     1      -2.692   9.808  15.403  0.00  0.00    +0.000 A 
ATOM     12  C   UNL     1      -1.987   9.952  16.593  0.00  0.00    +0.000 A 
ATOM     13  C   UNL     1      -2.488  10.704  17.673  0.00  0.00    +0.000 A 
ATOM     14  C   UNL     1      -3.737  11.332  17.506  0.00  0.00    +0.000 A 
ATOM     15  C   UNL     1      -4.441  11.187  16.296  0.00  0.00    +0.000 A 
BRANCH  10  17
ATOM     16  C   UNL     1      -3.662   9.820  12.964  0.00  0.00    +0.000 C 
ATOM     17  O   UNL     1      -4.515  10.208  14.033  0.00  0.00    +0.000 OA
ENDBRANCH  10  17
BRANCH  14  18
ATOM     18  O   UNL     1      -4.193  12.068  18.573  0.00  0.00    +0.000 OA
ATOM     19  C   UNL     1      -5.531  11.829  18.999  0.00  0.00    +0.000 C 
ENDBRANCH  14  18
ENDBRANCH   1  13
BRANCH   3  20
ATOM     20  C   UNL     1       1.614   8.937  18.795  0.00  0.00    +0.000 A 
ATOM     21  N   UNL     1       2.320   8.759  17.646  0.00  0.00    +0.000 NA
ATOM     22  N   UNL     1       3.094   7.691  17.812  0.00  0.00    +0.000 NA
ATOM     23  N   UNL     1       2.910   7.235  19.072  0.00  0.00    +0.000 N 
ATOM     24  C   UNL     1       1.958   7.976  19.727  0.00  0.00    +0.000 A 
ATOM     25  C   UNL     1       1.476   7.715  21.103  0.00  0.00    +0.000 C 
BRANCH  23  26
ATOM     26  C   UNL     1       3.536   5.991  19.493  0.00  0.00    +0.000 C 
BRANCH  26  27
ATOM     27  C   UNL     1       2.617   4.795  19.448  0.00  0.00    +0.000 A 
ATOM     28  C   UNL     1       2.102   4.239  20.635  0.00  0.00    +0.000 A 
ATOM     29  C   UNL     1       1.145   3.221  20.590  0.00  0.00    +0.000 A 
ATOM     30  C   UNL     1       0.696   2.738  19.362  0.00  0.00    +0.000 A 
ATOM     31  C   UNL     1       1.220   3.258  18.179  0.00  0.00    +0.000 A 
ATOM     32  C   UNL     1       2.175   4.275  18.223  0.00  0.00    +0.000 A 
ENDBRANCH  26  27
ENDBRANCH  23  26
ENDBRANCH   3  20
TORSDOF 6
ENDMDL
MODEL 6
REMARK VINA RESULT:      -8.1      4.962      9.113
REMARK  Name = 
REMARK  9 active torsions:
REMARK  status: ('A' for Active; 'I' for Inactive)
REMARK    1  A    between atoms: C_1  and  O_2
REMARK    2  A    between atoms: O_2  and  C_3
REMARK    3  A    between atoms: C_6  and  C_7
REMARK    4  A    between atoms: C_9  and  C_10
REMARK    5  A    between atoms: N_13  and  C_14
REMARK    6  A    between atoms: C_14  and  C_15
REMARK    7  A    between atoms: C_21  and  C_22
REMARK    8  A    between atoms: C_27  and  O_28
REMARK    9  A    between atoms: O_28  and  C_29
REMARK                            x       y       z     vdW  Elec       q    Type
REMARK                         _______ _______ _______ _____ _____    ______ ____
ROOT
ATOM      1  C   UNL     1      -2.142  11.767  19.199  0.00  0.00    +0.000 C 
ATOM      2  C   UNL     1      -1.362  10.669  19.868  0.00  0.00    +0.000 C 
ATOM      3  C   UNL     1      -0.022  10.683  19.938  0.00  0.00    +0.000 C 
ATOM      4  N   UNL     1       0.655  11.806  19.539  0.00  0.00    +0.000 N 
ATOM      5  C   UNL     1       0.058  12.937  19.084  0.00  0.00    +0.000 C 
ATOM      6  S   UNL     1       0.949  14.277  18.670  0.00  0.00    +0.000 S 
ATOM      7  N   UNL     1      -1.294  12.927  18.982  0.00  0.00    +0.000 N 
ATOM      8  H   UNL     1       1.665  11.820  19.622  0.00  0.00    +0.000 HD
ATOM      9  H   UNL     1      -1.730  13.757  18.601  0.00  0.00    +0.000 HD
ENDROOT
BRANCH   1  13
ATOM     10  C   UNL     1      -3.839  10.517  15.376  0.00  0.00    +0.000 A 
ATOM     11  C   UNL     1      -2.517  10.238  15.691  0.00  0.00    +0.000 A 
ATOM     12  C   UNL     1      -1.993  10.640  16.915  0.00  0.00    +0.000 A 
ATOM     13  C   UNL     1      -2.767  11.320  17.873  0.00  0.00    +0.000 A 
ATOM     14  C   UNL     1      -4.106  11.605  17.547  0.00  0.00    +0.000 A 
ATOM     15  C   UNL     1      -4.628  11.202  16.303  0.00  0.00    +0.000 A 
BRANCH  10  17
ATOM     16  C   UNL     1      -3.205   9.773  13.211  0.00  0.00    +0.000 C 
ATOM     17  O   UNL     1      -4.234  10.071  14.146  0.00  0.00    +0.000 OA
ENDBRANCH  10  17
BRANCH  14  18
ATOM     18  O   UNL     1      -4.832  12.282  18.497  0.00  0.00    +0.000 OA
ATOM     19  C   UNL     1      -6.098  12.799  18.096  0.00  0.00    +0.000 C 
ENDBRANCH  14  18
ENDBRANCH   1  13
BRANCH   3  20
ATOM     20  C   UNL     1       0.755   9.530  20.240  0.00  0.00    +0.000 A 
ATOM     21  N   UNL     1       0.951   9.061  21.502  0.00  0.00    +0.000 NA
ATOM     22  N   UNL     1       1.729   7.987  21.413  0.00  0.00    +0.000 NA
ATOM     23  N   UNL     1       1.975   7.757  20.102  0.00  0.00    +0.000 N 
ATOM     24  C   UNL     1       1.401   8.728  19.319  0.00  0.00    +0.000 A 
ATOM     25  C   UNL     1       1.519   8.809  17.845  0.00  0.00    +0.000 C 
BRANCH  23  26
ATOM     26  C   UNL     1       2.911   6.714  19.711  0.00  0.00    +0.000 C 
BRANCH  26  27
ATOM     27  C   UNL     1       2.282   5.352  19.554  0.00  0.00    +0.000 A 
ATOM     28  C   UNL     1       1.815   4.642  20.677  0.00  0.00    +0.000 A 
ATOM     29  C   UNL     1       1.111   3.444  20.524  0.00  0.00    +0.000 A 
ATOM     30  C   UNL     1       0.870   2.935  19.249  0.00  0.00    +0.000 A 
ATOM     31  C   UNL     1       1.353   3.611  18.129  0.00  0.00    +0.000 A 
ATOM     32  C   UNL     1       2.056   4.807  18.282  0.00  0.00    +0.000 A 
ENDBRANCH  26  27
ENDBRANCH  23  26
ENDBRANCH   3  20
TORSDOF 6
ENDMDL
MODEL 7
REMARK VINA RESULT:      -8.0      5.196     10.084
REMARK  Name = 
REMARK  9 active torsions:
REMARK  status: ('A' for Active; 'I' for Inactive)
REMARK    1  A    between atoms: C_1  and  O_2
REMARK    2  A    between atoms: O_2  and  C_3
REMARK    3  A    between atoms: C_6  and  C_7
REMARK    4  A    between atoms: C_9  and  C_10
REMARK    5  A    between atoms: N_13  and  C_14
REMARK    6  A    between atoms: C_14  and  C_15
REMARK    7  A    between atoms: C_21  and  C_22
REMARK    8  A    between atoms: C_27  and  O_28
REMARK    9  A    between atoms: O_28  and  C_29
REMARK                            x       y       z     vdW  Elec       q    Type
REMARK                         _______ _______ _______ _____ _____    ______ ____
ROOT
ATOM      1  C   UNL     1      -1.367  12.621  19.245  0.00  0.00    +0.000 C 
ATOM      2  C   UNL     1      -0.140  11.761  19.118  0.00  0.00    +0.000 C 
ATOM      3  C   UNL     1      -0.111  10.663  18.347  0.00  0.00    +0.000 C 
ATOM      4  N   UNL     1      -1.170  10.403  17.517  0.00  0.00    +0.000 N 
ATOM      5  C   UNL     1      -2.263  11.200  17.401  0.00  0.00    +0.000 C 
ATOM      6  S   UNL     1      -3.482  10.842  16.330  0.00  0.00    +0.000 S 
ATOM      7  N   UNL     1      -2.318  12.298  18.195  0.00  0.00    +0.000 N 
ATOM      8  H   UNL     1      -1.128   9.589  16.915  0.00  0.00    +0.000 HD
ATOM      9  H   UNL     1      -3.156  12.863  18.136  0.00  0.00    +0.000 HD
ENDROOT
BRANCH   1  13
ATOM     10  C   UNL     1      -3.232  12.166  23.166  0.00  0.00    +0.000 A 
ATOM     11  C   UNL     1      -1.926  11.751  22.948  0.00  0.00    +0.000 A 
ATOM     12  C   UNL     1      -1.345  11.906  21.694  0.00  0.00    +0.000 A 
ATOM     13  C   UNL     1      -2.036  12.492  20.617  0.00  0.00    +0.000 A 
ATOM     14  C   UNL     1      -3.362  12.907  20.842  0.00  0.00    +0.000 A 
ATOM     15  C   UNL     1      -3.945  12.740  22.111  0.00  0.00    +0.000 A 
BRANCH  10  17
ATOM     16  C   UNL     1      -5.043  12.295  24.696  0.00  0.00    +0.000 C 
ATOM     17  O   UNL     1      -3.687  11.958  24.437  0.00  0.00    +0.000 OA
ENDBRANCH  10  17
BRANCH  14  18
ATOM     18  O   UNL     1      -4.014  13.463  19.768  0.00  0.00    +0.000 OA
ATOM     19  C   UNL     1      -5.279  14.069  20.022  0.00  0.00    +0.000 C 
ENDBRANCH  14  18
ENDBRANCH   1  13
BRANCH   3  20
ATOM     20  C   UNL     1       0.882   9.652  18.467  0.00  0.00    +0.000 A 
ATOM     21  N   UNL     1       1.785   9.360  17.491  0.00  0.00    +0.000 NA
ATOM     22  N   UNL     1       2.546   8.364  17.934  0.00  0.00    +0.000 NA
ATOM     23  N   UNL     1       2.155   8.070  19.196  0.00  0.00    +0.000 N 
ATOM     24  C   UNL     1       1.082   8.842  19.568  0.00  0.00    +0.000 A 
ATOM     25  C   UNL     1       0.373   8.742  20.864  0.00  0.00    +0.000 C 
BRANCH  23  26
ATOM     26  C   UNL     1       2.730   6.927  19.887  0.00  0.00    +0.000 C 
BRANCH  26  27
ATOM     27  C   UNL     1       2.058   5.614  19.567  0.00  0.00    +0.000 A 
ATOM     28  C   UNL     1       2.113   5.077  18.267  0.00  0.00    +0.000 A 
ATOM     29  C   UNL     1       1.611   3.799  18.000  0.00  0.00    +0.000 A 
ATOM     30  C   UNL     1       1.041   3.045  19.026  0.00  0.00    +0.000 A 
ATOM     31  C   UNL     1       0.952   3.577  20.311  0.00  0.00    +0.000 A 
ATOM     32  C   UNL     1       1.454   4.853  20.578  0.00  0.00    +0.000 A 
ENDBRANCH  26  27
ENDBRANCH  23  26
ENDBRANCH   3  20
TORSDOF 6
ENDMDL
MODEL 8
REMARK VINA RESULT:      -7.9      4.713      8.983
REMARK  Name = 
REMARK  9 active torsions:
REMARK  status: ('A' for Active; 'I' for Inactive)
REMARK    1  A    between atoms: C_1  and  O_2
REMARK    2  A    between atoms: O_2  and  C_3
REMARK    3  A    between atoms: C_6  and  C_7
REMARK    4  A    between atoms: C_9  and  C_10
REMARK    5  A    between atoms: N_13  and  C_14
REMARK    6  A    between atoms: C_14  and  C_15
REMARK    7  A    between atoms: C_21  and  C_22
REMARK    8  A    between atoms: C_27  and  O_28
REMARK    9  A    between atoms: O_28  and  C_29
REMARK                            x       y       z     vdW  Elec       q    Type
REMARK                         _______ _______ _______ _____ _____    ______ ____
ROOT
ATOM      1  C   UNL     1      -1.505  11.163  19.709  0.00  0.00    +0.000 C 
ATOM      2  C   UNL     1      -0.740   9.935  20.119  0.00  0.00    +0.000 C 
ATOM      3  C   UNL     1       0.599   9.868  20.049  0.00  0.00    +0.000 C 
ATOM      4  N   UNL     1       1.308  11.004  19.756  0.00  0.00    +0.000 N 
ATOM      5  C   UNL     1       0.748  12.221  19.543  0.00  0.00    +0.000 C 
ATOM      6  S   UNL     1       1.683  13.562  19.246  0.00  0.00    +0.000 S 
ATOM      7  N   UNL     1      -0.606  12.297  19.583  0.00  0.00    +0.000 N 
ATOM      8  H   UNL     1       2.320  10.952  19.735  0.00  0.00    +0.000 HD
ATOM      9  H   UNL     1      -1.019  13.199  19.380  0.00  0.00    +0.000 HD
ENDROOT
BRANCH   1  13
ATOM     10  C   UNL     1      -3.635  10.596  15.941  0.00  0.00    +0.000 A 
ATOM     11  C   UNL     1      -2.423   9.962  16.174  0.00  0.00    +0.000 A 
ATOM     12  C   UNL     1      -1.759  10.150  17.381  0.00  0.00    +0.000 A 
ATOM     13  C   UNL     1      -2.283  10.963  18.404  0.00  0.00    +0.000 A 
ATOM     14  C   UNL     1      -3.510  11.608  18.161  0.00  0.00    +0.000 A 
ATOM     15  C   UNL     1      -4.172  11.418  16.934  0.00  0.00    +0.000 A 
BRANCH  10  17
ATOM     16  C   UNL     1      -3.292   9.952  13.680  0.00  0.00    +0.000 C 
ATOM     17  O   UNL     1      -4.186  10.332  14.719  0.00  0.00    +0.000 OA
ENDBRANCH  10  17
BRANCH  14  18
ATOM     18  O   UNL     1      -3.988  12.405  19.173  0.00  0.00    +0.000 OA
ATOM     19  C   UNL     1      -5.336  12.191  19.582  0.00  0.00    +0.000 C 
ENDBRANCH  14  18
ENDBRANCH   1  13
BRANCH   3  20
ATOM     20  C   UNL     1       1.321   8.644  20.090  0.00  0.00    +0.000 A 
ATOM     21  N   UNL     1       1.362   7.827  21.178  0.00  0.00    +0.000 NA
ATOM     22  N   UNL     1       2.133   6.788  20.869  0.00  0.00    +0.000 NA
ATOM     23  N   UNL     1       2.528   6.929  19.583  0.00  0.00    +0.000 N 
ATOM     24  C   UNL     1       2.062   8.107  19.054  0.00  0.00    +0.000 A 
ATOM     25  C   UNL     1       2.353   8.599  17.688  0.00  0.00    +0.000 C 
BRANCH  23  26
ATOM     26  C   UNL     1       3.491   6.000  19.013  0.00  0.00    +0.000 C 
BRANCH  26  27
ATOM     27  C   UNL     1       2.979   4.587  18.883  0.00  0.00    +0.000 A 
ATOM     28  C   UNL     1       3.692   3.510  19.443  0.00  0.00    +0.000 A 
ATOM     29  C   UNL     1       3.154   2.220  19.443  0.00  0.00    +0.000 A 
ATOM     30  C   UNL     1       1.900   1.986  18.879  0.00  0.00    +0.000 A 
ATOM     31  C   UNL     1       1.197   3.038  18.293  0.00  0.00    +0.000 A 
ATOM     32  C   UNL     1       1.734   4.327  18.293  0.00  0.00    +0.000 A 
ENDBRANCH  26  27
ENDBRANCH  23  26
ENDBRANCH   3  20
TORSDOF 6
ENDMDL
MODEL 9
REMARK VINA RESULT:      -7.8      5.098      9.909
REMARK  Name = 
REMARK  9 active torsions:
REMARK  status: ('A' for Active; 'I' for Inactive)
REMARK    1  A    between atoms: C_1  and  O_2
REMARK    2  A    between atoms: O_2  and  C_3
REMARK    3  A    between atoms: C_6  and  C_7
REMARK    4  A    between atoms: C_9  and  C_10
REMARK    5  A    between atoms: N_13  and  C_14
REMARK    6  A    between atoms: C_14  and  C_15
REMARK    7  A    between atoms: C_21  and  C_22
REMARK    8  A    between atoms: C_27  and  O_28
REMARK    9  A    between atoms: O_28  and  C_29
REMARK                            x       y       z     vdW  Elec       q    Type
REMARK                         _______ _______ _______ _____ _____    ______ ____
ROOT
ATOM      1  C   UNL     1      -0.717  12.869  18.874  0.00  0.00    +0.000 C 
ATOM      2  C   UNL     1       0.391  11.854  18.789  0.00  0.00    +0.000 C 
ATOM      3  C   UNL     1       0.222  10.657  18.208  0.00  0.00    +0.000 C 
ATOM      4  N   UNL     1      -0.937  10.406  17.521  0.00  0.00    +0.000 N 
ATOM      5  C   UNL     1      -1.943  11.304  17.367  0.00  0.00    +0.000 C 
ATOM      6  S   UNL     1      -3.295  10.940  16.472  0.00  0.00    +0.000 S 
ATOM      7  N   UNL     1      -1.798  12.509  17.973  0.00  0.00    +0.000 N 
ATOM      8  H   UNL     1      -1.045   9.510  17.059  0.00  0.00    +0.000 HD
ATOM      9  H   UNL     1      -2.571  13.157  17.890  0.00  0.00    +0.000 HD
ENDROOT
BRANCH   1  13
ATOM     10  C   UNL     1      -2.308  13.262  22.920  0.00  0.00    +0.000 A 
ATOM     11  C   UNL     1      -2.031  12.012  22.384  0.00  0.00    +0.000 A 
ATOM     12  C   UNL     1      -1.520  11.904  21.095  0.00  0.00    +0.000 A 
ATOM     13  C   UNL     1      -1.255  13.034  20.298  0.00  0.00    +0.000 A 
ATOM     14  C   UNL     1      -1.543  14.299  20.845  0.00  0.00    +0.000 A 
ATOM     15  C   UNL     1      -2.066  14.400  22.147  0.00  0.00    +0.000 A 
BRANCH  10  17
ATOM     16  C   UNL     1      -4.013  12.511  24.394  0.00  0.00    +0.000 C 
ATOM     17  O   UNL     1      -2.805  13.234  24.192  0.00  0.00    +0.000 OA
ENDBRANCH  10  17
BRANCH  14  18
ATOM     18  O   UNL     1      -1.286  15.381  20.038  0.00  0.00    +0.000 OA
ATOM     19  C   UNL     1      -1.942  16.603  20.367  0.00  0.00    +0.000 C 
ENDBRANCH  14  18
ENDBRANCH   1  13
BRANCH   3  20
ATOM     20  C   UNL     1       1.107   9.561  18.409  0.00  0.00    +0.000 A 
ATOM     21  N   UNL     1       1.997   9.128  17.477  0.00  0.00    +0.000 NA
ATOM     22  N   UNL     1       2.645   8.089  17.994  0.00  0.00    +0.000 NA
ATOM     23  N   UNL     1       2.199   7.905  19.258  0.00  0.00    +0.000 N 
ATOM     24  C   UNL     1       1.200   8.798  19.558  0.00  0.00    +0.000 A 
ATOM     25  C   UNL     1       0.455   8.841  20.837  0.00  0.00    +0.000 C 
BRANCH  23  26
ATOM     26  C   UNL     1       2.641   6.751  20.025  0.00  0.00    +0.000 C 
BRANCH  26  27
ATOM     27  C   UNL     1       2.000   5.452  19.604  0.00  0.00    +0.000 A 
ATOM     28  C   UNL     1       2.166   4.959  18.296  0.00  0.00    +0.000 A 
ATOM     29  C   UNL     1       1.690   3.692  17.944  0.00  0.00    +0.000 A 
ATOM     30  C   UNL     1       1.036   2.904  18.890  0.00  0.00    +0.000 A 
ATOM     31  C   UNL     1       0.837   3.393  20.181  0.00  0.00    +0.000 A 
ATOM     32  C   UNL     1       1.313   4.657  20.533  0.00  0.00    +0.000 A 
ENDBRANCH  26  27
ENDBRANCH  23  26
ENDBRANCH   3  20
TORSDOF 6
ENDMDL
