MODEL 1
REMARK VINA RESULT:      -8.0      0.000      0.000
REMARK  Name = 
REMARK  10 active torsions:
REMARK  status: ('A' for Active; 'I' for Inactive)
REMARK    1  A    between atoms: C_1  and  O_2
REMARK    2  A    between atoms: O_2  and  C_3
REMARK    3  A    between atoms: C_9  and  C_10
REMARK    4  A    between atoms: C_12  and  C_13
REMARK    5  A    between atoms: C_14  and  S_15
REMARK    6  A    between atoms: S_15  and  C_18
REMARK    7  A    between atoms: C_21  and  C_22
REMARK    8  A    between atoms: C_22  and  C_23
REMARK    9  A    between atoms: C_22  and  C_24
REMARK   10  A    between atoms: C_22  and  C_25
REMARK                            x       y       z     vdW  Elec       q    Type
REMARK                         _______ _______ _______ _____ _____    ______ ____
ROOT
ATOM      1  C   UNL     1      -1.320  10.974  18.615  0.00  0.00    +0.000 A 
ATOM      2  N   UNL     1      -0.341  11.856  18.705  0.00  0.00    +0.000 NA
ATOM      3  C   UNL     1       0.514  11.399  19.680  0.00  0.00    +0.000 A 
ATOM      4  C   UNL     1       1.694  12.211  20.057  0.00  0.00    +0.000 C 
ATOM      5  C   UNL     1       0.078  10.184  20.173  0.00  0.00    +0.000 A 
ATOM      6  N   UNL     1      -1.108   9.966  19.521  0.00  0.00    +0.000 N 
ATOM      7  H   UNL     1      -1.742   9.193  19.685  0.00  0.00    +0.000 HD
ENDROOT
BRANCH   1  14
ATOM      8  C   UNL     1      -3.729  11.552  18.031  0.00  0.00    +0.000 A 
ATOM      9  C   UNL     1      -4.740  11.594  17.060  0.00  0.00    +0.000 A 
ATOM     10  C   UNL     1      -4.507  11.120  15.765  0.00  0.00    +0.000 A 
ATOM     11  C   UNL     1      -3.261  10.609  15.430  0.00  0.00    +0.000 A 
ATOM     12 CL   UNL     1      -2.976  10.016  13.842  0.00  0.00    +0.000 Cl
ATOM     13  C   UNL     1      -2.242  10.579  16.375  0.00  0.00    +0.000 A 
ATOM     14  C   UNL     1      -2.455  11.053  17.685  0.00  0.00    +0.000 A 
BRANCH   8  16
ATOM     15  C   UNL     1      -5.091  12.771  19.557  0.00  0.00    +0.000 C 
ATOM     16  O   UNL     1      -3.904  12.019  19.312  0.00  0.00    +0.000 OA
ENDBRANCH   8  16
ENDBRANCH   1  14
BRANCH   5  17
ATOM     17  S   UNL     1       0.674   9.054  21.375  0.00  0.00    +0.000 S 
ATOM     18  O   UNL     1       1.600   9.805  22.191  0.00  0.00    +0.000 OA
ATOM     19  O   UNL     1      -0.530   8.460  21.923  0.00  0.00    +0.000 OA
BRANCH  17  20
ATOM     20  C   UNL     1       1.564   7.794  20.503  0.00  0.00    +0.000 A 
ATOM     21  C   UNL     1       1.598   6.502  21.019  0.00  0.00    +0.000 A 
ATOM     22  C   UNL     1       2.191   5.474  20.276  0.00  0.00    +0.000 A 
ATOM     23  C   UNL     1       2.748   5.703  19.002  0.00  0.00    +0.000 A 
ATOM     24  C   UNL     1       2.718   7.025  18.515  0.00  0.00    +0.000 A 
ATOM     25  C   UNL     1       2.126   8.062  19.253  0.00  0.00    +0.000 A 
BRANCH  23  26
ATOM     26  C   UNL     1       3.327   4.559  18.143  0.00  0.00    +0.000 C 
ATOM     27  C   UNL     1       4.118   3.524  18.978  0.00  0.00    +0.000 C 
ATOM     28  C   UNL     1       2.186   3.798  17.432  0.00  0.00    +0.000 C 
ATOM     29  C   UNL     1       4.291   5.102  17.065  0.00  0.00    +0.000 C 
ENDBRANCH  23  26
ENDBRANCH  17  20
ENDBRANCH   5  17
TORSDOF 5
ENDMDL
MODEL 2
REMARK VINA RESULT:      -7.8      3.097      8.178
REMARK  Name = 
REMARK  10 active torsions:
REMARK  status: ('A' for Active; 'I' for Inactive)
REMARK    1  A    between atoms: C_1  and  O_2
REMARK    2  A    between atoms: O_2  and  C_3
REMARK    3  A    between atoms: C_9  and  C_10
REMARK    4  A    between atoms: C_12  and  C_13
REMARK    5  A    between atoms: C_14  and  S_15
REMARK    6  A    between atoms: S_15  and  C_18
REMARK    7  A    between atoms: C_21  and  C_22
REMARK    8  A    between atoms: C_22  and  C_23
REMARK    9  A    between atoms: C_22  and  C_24
REMARK   10  A    between atoms: C_22  and  C_25
REMARK                            x       y       z     vdW  Elec       q    Type
REMARK                         _______ _______ _______ _____ _____    ______ ____
ROOT
ATOM      1  C   UNL     1       1.579   7.501  20.390  0.00  0.00    +0.000 A 
ATOM      2  N   UNL     1       0.907   7.766  21.496  0.00  0.00    +0.000 NA
ATOM      3  C   UNL     1       0.561   9.096  21.439  0.00  0.00    +0.000 A 
ATOM      4  C   UNL     1      -0.159   9.713  22.576  0.00  0.00    +0.000 C 
ATOM      5  C   UNL     1       0.988   9.654  20.249  0.00  0.00    +0.000 A 
ATOM      6  N   UNL     1       1.672   8.640  19.631  0.00  0.00    +0.000 N 
ATOM      7  H   UNL     1       2.183   8.713  18.759  0.00  0.00    +0.000 HD
ENDROOT
BRANCH   1  14
ATOM      8  C   UNL     1       2.936   5.961  18.886  0.00  0.00    +0.000 A 
ATOM      9  C   UNL     1       3.423   4.669  18.635  0.00  0.00    +0.000 A 
ATOM     10  C   UNL     1       3.095   3.606  19.481  0.00  0.00    +0.000 A 
ATOM     11  C   UNL     1       2.286   3.826  20.587  0.00  0.00    +0.000 A 
ATOM     12 CL   UNL     1       1.873   2.517  21.622  0.00  0.00    +0.000 Cl
ATOM     13  C   UNL     1       1.812   5.103  20.861  0.00  0.00    +0.000 A 
ATOM     14  C   UNL     1       2.131   6.190  20.023  0.00  0.00    +0.000 A 
BRANCH   8  16
ATOM     15  C   UNL     1       4.400   6.918  17.270  0.00  0.00    +0.000 C 
ATOM     16  O   UNL     1       3.242   7.042  18.093  0.00  0.00    +0.000 OA
ENDBRANCH   8  16
ENDBRANCH   1  14
BRANCH   5  17
ATOM     17  S   UNL     1       0.872  11.246  19.521  0.00  0.00    +0.000 S 
ATOM     18  O   UNL     1       1.276  12.176  20.550  0.00  0.00    +0.000 OA
ATOM     19  O   UNL     1       1.597  11.113  18.273  0.00  0.00    +0.000 OA
BRANCH  17  20
ATOM     20  C   UNL     1      -0.837  11.515  19.139  0.00  0.00    +0.000 A 
ATOM     21  C   UNL     1      -1.415  10.830  18.075  0.00  0.00    +0.000 A 
ATOM     22  C   UNL     1      -2.791  10.942  17.843  0.00  0.00    +0.000 A 
ATOM     23  C   UNL     1      -3.624  11.721  18.670  0.00  0.00    +0.000 A 
ATOM     24  C   UNL     1      -3.008  12.421  19.727  0.00  0.00    +0.000 A 
ATOM     25  C   UNL     1      -1.629  12.316  19.966  0.00  0.00    +0.000 A 
BRANCH  23  26
ATOM     26  C   UNL     1      -5.154  11.780  18.471  0.00  0.00    +0.000 C 
ATOM     27  C   UNL     1      -5.836  10.405  18.667  0.00  0.00    +0.000 C 
ATOM     28  C   UNL     1      -5.785  12.754  19.489  0.00  0.00    +0.000 C 
ATOM     29  C   UNL     1      -5.514  12.265  17.049  0.00  0.00    +0.000 C 
ENDBRANCH  23  26
ENDBRANCH  17  20
ENDBRANCH   5  17
TORSDOF 5
ENDMDL
MODEL 3
REMARK VINA RESULT:      -7.7      1.817      2.720
REMARK  Name = 
REMARK  10 active torsions:
REMARK  status: ('A' for Active; 'I' for Inactive)
REMARK    1  A    between atoms: C_1  and  O_2
REMARK    2  A    between atoms: O_2  and  C_3
REMARK    3  A    between atoms: C_9  and  C_10
REMARK    4  A    between atoms: C_12  and  C_13
REMARK    5  A    between atoms: C_14  and  S_15
REMARK    6  A    between atoms: S_15  and  C_18
REMARK    7  A    between atoms: C_21  and  C_22
REMARK    8  A    between atoms: C_22  and  C_23
REMARK    9  A    between atoms: C_22  and  C_24
REMARK   10  A    between atoms: C_22  and  C_25
REMARK                            x       y       z     vdW  Elec       q    Type
REMARK                         _______ _______ _______ _____ _____    ______ ____
ROOT
ATOM      1  C   UNL     1      -1.744  11.315  18.807  0.00  0.00    +0.000 A 
ATOM      2  N   UNL     1      -0.674  12.034  18.519  0.00  0.00    +0.000 NA
ATOM      3  C   UNL     1       0.372  11.485  19.223  0.00  0.00    +0.000 A 
ATOM      4  C   UNL     1       1.711  12.114  19.152  0.00  0.00    +0.000 C 
ATOM      5  C   UNL     1      -0.051  10.374  19.927  0.00  0.00    +0.000 A 
ATOM      6  N   UNL     1      -1.400  10.322  19.688  0.00  0.00    +0.000 N 
ATOM      7  H   UNL     1      -2.052   9.666  20.103  0.00  0.00    +0.000 HD
ENDROOT
BRANCH   1  14
ATOM      8  C   UNL     1      -3.456  11.277  16.925  0.00  0.00    +0.000 A 
ATOM      9  C   UNL     1      -4.777  11.512  16.512  0.00  0.00    +0.000 A 
ATOM     10  C   UNL     1      -5.721  12.029  17.403  0.00  0.00    +0.000 A 
ATOM     11  C   UNL     1      -5.357  12.306  18.714  0.00  0.00    +0.000 A 
ATOM     12 CL   UNL     1      -6.515  12.952  19.808  0.00  0.00    +0.000 Cl
ATOM     13  C   UNL     1      -4.058  12.059  19.144  0.00  0.00    +0.000 A 
ATOM     14  C   UNL     1      -3.091  11.537  18.263  0.00  0.00    +0.000 A 
BRANCH   8  16
ATOM     15  C   UNL     1      -2.942  10.293  14.818  0.00  0.00    +0.000 C 
ATOM     16  O   UNL     1      -2.495  10.756  16.091  0.00  0.00    +0.000 OA
ENDBRANCH   8  16
ENDBRANCH   1  14
BRANCH   5  17
ATOM     17  S   UNL     1       0.730   9.211  20.983  0.00  0.00    +0.000 S 
ATOM     18  O   UNL     1       1.643   9.977  21.799  0.00  0.00    +0.000 OA
ATOM     19  O   UNL     1      -0.374   8.462  21.554  0.00  0.00    +0.000 OA
BRANCH  17  20
ATOM     20  C   UNL     1       1.661   8.116  19.947  0.00  0.00    +0.000 A 
ATOM     21  C   UNL     1       2.091   8.558  18.700  0.00  0.00    +0.000 A 
ATOM     22  C   UNL     1       2.931   7.746  17.928  0.00  0.00    +0.000 A 
ATOM     23  C   UNL     1       3.372   6.488  18.383  0.00  0.00    +0.000 A 
ATOM     24  C   UNL     1       2.903   6.057  19.640  0.00  0.00    +0.000 A 
ATOM     25  C   UNL     1       2.061   6.864  20.420  0.00  0.00    +0.000 A 
BRANCH  23  26
ATOM     26  C   UNL     1       4.366   5.626  17.574  0.00  0.00    +0.000 C 
ATOM     27  C   UNL     1       4.881   6.342  16.303  0.00  0.00    +0.000 C 
ATOM     28  C   UNL     1       5.599   5.284  18.438  0.00  0.00    +0.000 C 
ATOM     29  C   UNL     1       3.714   4.303  17.116  0.00  0.00    +0.000 C 
ENDBRANCH  23  26
ENDBRANCH  17  20
ENDBRANCH   5  17
TORSDOF 5
ENDMDL
MODEL 4
REMARK VINA RESULT:      -7.7      3.056      8.192
REMARK  Name = 
REMARK  10 active torsions:
REMARK  status: ('A' for Active; 'I' for Inactive)
REMARK    1  A    between atoms: C_1  and  O_2
REMARK    2  A    between atoms: O_2  and  C_3
REMARK    3  A    between atoms: C_9  and  C_10
REMARK    4  A    between atoms: C_12  and  C_13
REMARK    5  A    between atoms: C_14  and  S_15
REMARK    6  A    between atoms: S_15  and  C_18
REMARK    7  A    between atoms: C_21  and  C_22
REMARK    8  A    between atoms: C_22  and  C_23
REMARK    9  A    between atoms: C_22  and  C_24
REMARK   10  A    between atoms: C_22  and  C_25
REMARK                            x       y       z     vdW  Elec       q    Type
REMARK                         _______ _______ _______ _____ _____    ______ ____
ROOT
ATOM      1  C   UNL     1       2.193   6.888  19.213  0.00  0.00    +0.000 A 
ATOM      2  N   UNL     1       1.813   7.052  20.467  0.00  0.00    +0.000 NA
ATOM      3  C   UNL     1       1.433   8.367  20.596  0.00  0.00    +0.000 A 
ATOM      4  C   UNL     1       1.006   8.878  21.918  0.00  0.00    +0.000 C 
ATOM      5  C   UNL     1       1.536   9.020  19.382  0.00  0.00    +0.000 A 
ATOM      6  N   UNL     1       2.067   8.077  18.541  0.00  0.00    +0.000 N 
ATOM      7  H   UNL     1       2.342   8.228  17.577  0.00  0.00    +0.000 HD
ENDROOT
BRANCH   1  14
ATOM      8  C   UNL     1       3.704   5.541  17.671  0.00  0.00    +0.000 A 
ATOM      9  C   UNL     1       4.087   4.282  17.182  0.00  0.00    +0.000 A 
ATOM     10  C   UNL     1       3.433   3.122  17.607  0.00  0.00    +0.000 A 
ATOM     11  C   UNL     1       2.398   3.209  18.527  0.00  0.00    +0.000 A 
ATOM     12 CL   UNL     1       1.585   1.784  19.042  0.00  0.00    +0.000 Cl
ATOM     13  C   UNL     1       2.019   4.446  19.037  0.00  0.00    +0.000 A 
ATOM     14  C   UNL     1       2.666   5.628  18.624  0.00  0.00    +0.000 A 
BRANCH   8  16
ATOM     15  C   UNL     1       5.126   6.651  16.117  0.00  0.00    +0.000 C 
ATOM     16  O   UNL     1       4.325   6.708  17.296  0.00  0.00    +0.000 OA
ENDBRANCH   8  16
ENDBRANCH   1  14
BRANCH   5  17
ATOM     17  S   UNL     1       1.204  10.650  18.826  0.00  0.00    +0.000 S 
ATOM     18  O   UNL     1       1.718  11.526  19.854  0.00  0.00    +0.000 OA
ATOM     19  O   UNL     1       1.718  10.668  17.470  0.00  0.00    +0.000 OA
BRANCH  17  20
ATOM     20  C   UNL     1      -0.558  10.821  18.749  0.00  0.00    +0.000 A 
ATOM     21  C   UNL     1      -1.187  11.771  19.549  0.00  0.00    +0.000 A 
ATOM     22  C   UNL     1      -2.561  11.998  19.405  0.00  0.00    +0.000 A 
ATOM     23  C   UNL     1      -3.334  11.302  18.456  0.00  0.00    +0.000 A 
ATOM     24  C   UNL     1      -2.675  10.332  17.675  0.00  0.00    +0.000 A 
ATOM     25  C   UNL     1      -1.298  10.096  17.813  0.00  0.00    +0.000 A 
BRANCH  23  26
ATOM     26  C   UNL     1      -4.831  11.609  18.234  0.00  0.00    +0.000 C 
ATOM     27  C   UNL     1      -5.141  12.059  16.787  0.00  0.00    +0.000 C 
ATOM     28  C   UNL     1      -5.680  10.349  18.514  0.00  0.00    +0.000 C 
ATOM     29  C   UNL     1      -5.315  12.737  19.172  0.00  0.00    +0.000 C 
ENDBRANCH  23  26
ENDBRANCH  17  20
ENDBRANCH   5  17
TORSDOF 5
ENDMDL
MODEL 5
REMARK VINA RESULT:      -7.7      4.303      8.742
REMARK  Name = 
REMARK  10 active torsions:
REMARK  status: ('A' for Active; 'I' for Inactive)
REMARK    1  A    between atoms: C_1  and  O_2
REMARK    2  A    between atoms: O_2  and  C_3
REMARK    3  A    between atoms: C_9  and  C_10
REMARK    4  A    between atoms: C_12  and  C_13
REMARK    5  A    between atoms: C_14  and  S_15
REMARK    6  A    between atoms: S_15  and  C_18
REMARK    7  A    between atoms: C_21  and  C_22
REMARK    8  A    between atoms: C_22  and  C_23
REMARK    9  A    between atoms: C_22  and  C_24
REMARK   10  A    between atoms: C_22  and  C_25
REMARK                            x       y       z     vdW  Elec       q    Type
REMARK                         _______ _______ _______ _____ _____    ______ ____
ROOT
ATOM      1  C   UNL     1       4.077   4.067  17.391  0.00  0.00    +0.000 A 
ATOM      2  N   UNL     1       3.262   3.034  17.281  0.00  0.00    +0.000 NA
ATOM      3  C   UNL     1       2.363   3.128  18.317  0.00  0.00    +0.000 A 
ATOM      4  C   UNL     1       1.343   2.070  18.499  0.00  0.00    +0.000 C 
ATOM      5  C   UNL     1       2.599   4.270  19.058  0.00  0.00    +0.000 A 
ATOM      6  N   UNL     1       3.718   4.815  18.483  0.00  0.00    +0.000 N 
ATOM      7  H   UNL     1       4.218   5.632  18.814  0.00  0.00    +0.000 HD
ENDROOT
BRANCH   1  14
ATOM      8  C   UNL     1       6.315   5.147  16.842  0.00  0.00    +0.000 A 
ATOM      9  C   UNL     1       7.329   5.370  15.898  0.00  0.00    +0.000 A 
ATOM     10  C   UNL     1       7.221   4.861  14.600  0.00  0.00    +0.000 A 
ATOM     11  C   UNL     1       6.104   4.120  14.239  0.00  0.00    +0.000 A 
ATOM     12 CL   UNL     1       5.964   3.503  12.641  0.00  0.00    +0.000 Cl
ATOM     13  C   UNL     1       5.100   3.872  15.169  0.00  0.00    +0.000 A 
ATOM     14  C   UNL     1       5.190   4.374  16.482  0.00  0.00    +0.000 A 
BRANCH   8  16
ATOM     15  C   UNL     1       7.624   6.187  18.538  0.00  0.00    +0.000 C 
ATOM     16  O   UNL     1       6.382   5.613  18.134  0.00  0.00    +0.000 OA
ENDBRANCH   8  16
ENDBRANCH   1  14
BRANCH   5  17
ATOM     17  S   UNL     1       1.847   5.010  20.460  0.00  0.00    +0.000 S 
ATOM     18  O   UNL     1       0.510   4.467  20.518  0.00  0.00    +0.000 OA
ATOM     19  O   UNL     1       2.811   4.802  21.524  0.00  0.00    +0.000 OA
BRANCH  17  20
ATOM     20  C   UNL     1       1.750   6.749  20.137  0.00  0.00    +0.000 A 
ATOM     21  C   UNL     1       2.105   7.231  18.880  0.00  0.00    +0.000 A 
ATOM     22  C   UNL     1       1.914   8.584  18.577  0.00  0.00    +0.000 A 
ATOM     23  C   UNL     1       1.354   9.483  19.506  0.00  0.00    +0.000 A 
ATOM     24  C   UNL     1       1.025   8.972  20.777  0.00  0.00    +0.000 A 
ATOM     25  C   UNL     1       1.213   7.617  21.091  0.00  0.00    +0.000 A 
BRANCH  23  26
ATOM     26  C   UNL     1       1.062  10.956  19.148  0.00  0.00    +0.000 C 
ATOM     27  C   UNL     1       1.107  11.891  20.379  0.00  0.00    +0.000 C 
ATOM     28  C   UNL     1       2.111  11.476  18.140  0.00  0.00    +0.000 C 
ATOM     29  C   UNL     1      -0.337  11.110  18.513  0.00  0.00    +0.000 C 
ENDBRANCH  23  26
ENDBRANCH  17  20
ENDBRANCH   5  17
TORSDOF 5
ENDMDL
MODEL 6
REMARK VINA RESULT:      -7.7      3.233      8.363
REMARK  Name = 
REMARK  10 active torsions:
REMARK  status: ('A' for Active; 'I' for Inactive)
REMARK    1  A    between atoms: C_1  and  O_2
REMARK    2  A    between atoms: O_2  and  C_3
REMARK    3  A    between atoms: C_9  and  C_10
REMARK    4  A    between atoms: C_12  and  C_13
REMARK    5  A    between atoms: C_14  and  S_15
REMARK    6  A    between atoms: S_15  and  C_18
REMARK    7  A    between atoms: C_21  and  C_22
REMARK    8  A    between atoms: C_22  and  C_23
REMARK    9  A    between atoms: C_22  and  C_24
REMARK   10  A    between atoms: C_22  and  C_25
REMARK                            x       y       z     vdW  Elec       q    Type
REMARK                         _______ _______ _______ _____ _____    ______ ____
ROOT
ATOM      1  C   UNL     1       1.924   7.183  20.105  0.00  0.00    +0.000 A 
ATOM      2  N   UNL     1       1.430   7.598  21.258  0.00  0.00    +0.000 NA
ATOM      3  C   UNL     1       1.007   8.892  21.063  0.00  0.00    +0.000 A 
ATOM      4  C   UNL     1       0.451   9.659  22.201  0.00  0.00    +0.000 C 
ATOM      5  C   UNL     1       1.201   9.270  19.748  0.00  0.00    +0.000 A 
ATOM      6  N   UNL     1       1.829   8.192  19.180  0.00  0.00    +0.000 N 
ATOM      7  H   UNL     1       2.185   8.142  18.233  0.00  0.00    +0.000 HD
ENDROOT
BRANCH   1  14
ATOM      8  C   UNL     1       3.278   5.524  18.731  0.00  0.00    +0.000 A 
ATOM      9  C   UNL     1       3.769   4.217  18.588  0.00  0.00    +0.000 A 
ATOM     10  C   UNL     1       3.450   3.230  19.525  0.00  0.00    +0.000 A 
ATOM     11  C   UNL     1       2.647   3.541  20.613  0.00  0.00    +0.000 A 
ATOM     12 CL   UNL     1       2.245   2.325  21.759  0.00  0.00    +0.000 Cl
ATOM     13  C   UNL     1       2.169   4.836  20.779  0.00  0.00    +0.000 A 
ATOM     14  C   UNL     1       2.480   5.847  19.849  0.00  0.00    +0.000 A 
BRANCH   8  16
ATOM     15  C   UNL     1       4.934   6.627  17.421  0.00  0.00    +0.000 C 
ATOM     16  O   UNL     1       3.576   6.534  17.846  0.00  0.00    +0.000 OA
ENDBRANCH   8  16
ENDBRANCH   1  14
BRANCH   5  17
ATOM     17  S   UNL     1       0.880  10.725  18.821  0.00  0.00    +0.000 S 
ATOM     18  O   UNL     1       1.464  11.807  19.579  0.00  0.00    +0.000 OA
ATOM     19  O   UNL     1       1.326  10.392  17.482  0.00  0.00    +0.000 OA
BRANCH  17  20
ATOM     20  C   UNL     1      -0.879  10.933  18.780  0.00  0.00    +0.000 A 
ATOM     21  C   UNL     1      -1.471  11.897  19.590  0.00  0.00    +0.000 A 
ATOM     22  C   UNL     1      -2.843  12.153  19.474  0.00  0.00    +0.000 A 
ATOM     23  C   UNL     1      -3.651  11.471  18.543  0.00  0.00    +0.000 A 
ATOM     24  C   UNL     1      -3.028  10.485  17.751  0.00  0.00    +0.000 A 
ATOM     25  C   UNL     1      -1.654  10.221  17.861  0.00  0.00    +0.000 A 
BRANCH  23  26
ATOM     26  C   UNL     1      -5.145  11.809  18.351  0.00  0.00    +0.000 C 
ATOM     27  C   UNL     1      -5.470  12.290  16.917  0.00  0.00    +0.000 C 
ATOM     28  C   UNL     1      -6.012  10.561  18.624  0.00  0.00    +0.000 C 
ATOM     29  C   UNL     1      -5.592  12.929  19.316  0.00  0.00    +0.000 C 
ENDBRANCH  23  26
ENDBRANCH  17  20
ENDBRANCH   5  17
TORSDOF 5
ENDMDL
MODEL 7
REMARK VINA RESULT:      -7.6      2.906      8.021
REMARK  Name = 
REMARK  10 active torsions:
REMARK  status: ('A' for Active; 'I' for Inactive)
REMARK    1  A    between atoms: C_1  and  O_2
REMARK    2  A    between atoms: O_2  and  C_3
REMARK    3  A    between atoms: C_9  and  C_10
REMARK    4  A    between atoms: C_12  and  C_13
REMARK    5  A    between atoms: C_14  and  S_15
REMARK    6  A    between atoms: S_15  and  C_18
REMARK    7  A    between atoms: C_21  and  C_22
REMARK    8  A    between atoms: C_22  and  C_23
REMARK    9  A    between atoms: C_22  and  C_24
REMARK   10  A    between atoms: C_22  and  C_25
REMARK                            x       y       z     vdW  Elec       q    Type
REMARK                         _______ _______ _______ _____ _____    ______ ____
ROOT
ATOM      1  C   UNL     1       2.001   7.144  19.385  0.00  0.00    +0.000 A 
ATOM      2  N   UNL     1       1.533   7.220  20.618  0.00  0.00    +0.000 NA
ATOM      3  C   UNL     1       1.218   8.541  20.839  0.00  0.00    +0.000 A 
ATOM      4  C   UNL     1       0.717   8.959  22.168  0.00  0.00    +0.000 C 
ATOM      5  C   UNL     1       1.453   9.290  19.702  0.00  0.00    +0.000 A 
ATOM      6  N   UNL     1       1.996   8.393  18.818  0.00  0.00    +0.000 N 
ATOM      7  H   UNL     1       2.354   8.612  17.896  0.00  0.00    +0.000 HD
ENDROOT
BRANCH   1  14
ATOM      8  C   UNL     1       3.546   5.848  17.832  0.00  0.00    +0.000 A 
ATOM      9  C   UNL     1       3.897   4.616  17.259  0.00  0.00    +0.000 A 
ATOM     10  C   UNL     1       3.154   3.464  17.534  0.00  0.00    +0.000 A 
ATOM     11  C   UNL     1       2.062   3.532  18.388  0.00  0.00    +0.000 A 
ATOM     12 CL   UNL     1       1.141   2.118  18.718  0.00  0.00    +0.000 Cl
ATOM     13  C   UNL     1       1.713   4.741  18.980  0.00  0.00    +0.000 A 
ATOM     14  C   UNL     1       2.449   5.914  18.718  0.00  0.00    +0.000 A 
BRANCH   8  16
ATOM     15  C   UNL     1       5.583   6.850  17.113  0.00  0.00    +0.000 C 
ATOM     16  O   UNL     1       4.253   7.005  17.606  0.00  0.00    +0.000 OA
ENDBRANCH   8  16
ENDBRANCH   1  14
BRANCH   5  17
ATOM     17  S   UNL     1       1.258  10.981  19.276  0.00  0.00    +0.000 S 
ATOM     18  O   UNL     1       1.582  11.724  20.471  0.00  0.00    +0.000 OA
ATOM     19  O   UNL     1       2.019  11.121  18.049  0.00  0.00    +0.000 OA
BRANCH  17  20
ATOM     20  C   UNL     1      -0.455  11.222  18.893  0.00  0.00    +0.000 A 
ATOM     21  C   UNL     1      -1.087  10.350  18.012  0.00  0.00    +0.000 A 
ATOM     22  C   UNL     1      -2.467  10.457  17.800  0.00  0.00    +0.000 A 
ATOM     23  C   UNL     1      -3.249  11.420  18.467  0.00  0.00    +0.000 A 
ATOM     24  C   UNL     1      -2.579  12.303  19.337  0.00  0.00    +0.000 A 
ATOM     25  C   UNL     1      -1.196  12.204  19.555  0.00  0.00    +0.000 A 
BRANCH  23  26
ATOM     26  C   UNL     1      -4.783  11.488  18.302  0.00  0.00    +0.000 C 
ATOM     27  C   UNL     1      -5.212  12.006  16.909  0.00  0.00    +0.000 C 
ATOM     28  C   UNL     1      -5.399  10.083  18.479  0.00  0.00    +0.000 C 
ATOM     29  C   UNL     1      -5.416  12.429  19.350  0.00  0.00    +0.000 C 
ENDBRANCH  23  26
ENDBRANCH  17  20
ENDBRANCH   5  17
TORSDOF 5
ENDMDL
MODEL 8
REMARK VINA RESULT:      -7.6      1.695      2.278
REMARK  Name = 
REMARK  10 active torsions:
REMARK  status: ('A' for Active; 'I' for Inactive)
REMARK    1  A    between atoms: C_1  and  O_2
REMARK    2  A    between atoms: O_2  and  C_3
REMARK    3  A    between atoms: C_9  and  C_10
REMARK    4  A    between atoms: C_12  and  C_13
REMARK    5  A    between atoms: C_14  and  S_15
REMARK    6  A    between atoms: S_15  and  C_18
REMARK    7  A    between atoms: C_21  and  C_22
REMARK    8  A    between atoms: C_22  and  C_23
REMARK    9  A    between atoms: C_22  and  C_24
REMARK   10  A    between atoms: C_22  and  C_25
REMARK                            x       y       z     vdW  Elec       q    Type
REMARK                         _______ _______ _______ _____ _____    ______ ____
ROOT
ATOM      1  C   UNL     1      -1.684  11.193  18.787  0.00  0.00    +0.000 A 
ATOM      2  N   UNL     1      -0.563  11.751  18.366  0.00  0.00    +0.000 NA
ATOM      3  C   UNL     1       0.452  11.219  19.127  0.00  0.00    +0.000 A 
ATOM      4  C   UNL     1       1.840  11.695  18.929  0.00  0.00    +0.000 C 
ATOM      5  C   UNL     1      -0.047  10.276  20.006  0.00  0.00    +0.000 A 
ATOM      6  N   UNL     1      -1.402  10.319  19.806  0.00  0.00    +0.000 N 
ATOM      7  H   UNL     1      -2.097   9.802  20.333  0.00  0.00    +0.000 HD
ENDROOT
BRANCH   1  14
ATOM      8  C   UNL     1      -3.400  11.198  16.908  0.00  0.00    +0.000 A 
ATOM      9  C   UNL     1      -4.712  11.477  16.495  0.00  0.00    +0.000 A 
ATOM     10  C   UNL     1      -5.636  12.035  17.383  0.00  0.00    +0.000 A 
ATOM     11  C   UNL     1      -5.259  12.311  18.690  0.00  0.00    +0.000 A 
ATOM     12 CL   UNL     1      -6.392  13.007  19.780  0.00  0.00    +0.000 Cl
ATOM     13  C   UNL     1      -3.970  12.022  19.121  0.00  0.00    +0.000 A 
ATOM     14  C   UNL     1      -3.023  11.458  18.243  0.00  0.00    +0.000 A 
BRANCH   8  16
ATOM     15  C   UNL     1      -2.921  10.198  14.801  0.00  0.00    +0.000 C 
ATOM     16  O   UNL     1      -2.460  10.636  16.077  0.00  0.00    +0.000 OA
ENDBRANCH   8  16
ENDBRANCH   1  14
BRANCH   5  17
ATOM     17  S   UNL     1       0.660   9.221  21.216  0.00  0.00    +0.000 S 
ATOM     18  O   UNL     1       1.579  10.046  21.965  0.00  0.00    +0.000 OA
ATOM     19  O   UNL     1      -0.486   8.583  21.835  0.00  0.00    +0.000 OA
BRANCH  17  20
ATOM     20  C   UNL     1       1.577   7.980  20.345  0.00  0.00    +0.000 A 
ATOM     21  C   UNL     1       1.711   6.712  20.904  0.00  0.00    +0.000 A 
ATOM     22  C   UNL     1       2.326   5.692  20.169  0.00  0.00    +0.000 A 
ATOM     23  C   UNL     1       2.806   5.902  18.861  0.00  0.00    +0.000 A 
ATOM     24  C   UNL     1       2.677   7.201  18.330  0.00  0.00    +0.000 A 
ATOM     25  C   UNL     1       2.062   8.231  19.059  0.00  0.00    +0.000 A 
BRANCH  23  26
ATOM     26  C   UNL     1       3.408   4.759  18.015  0.00  0.00    +0.000 C 
ATOM     27  C   UNL     1       4.263   3.780  18.853  0.00  0.00    +0.000 C 
ATOM     28  C   UNL     1       2.280   3.935  17.357  0.00  0.00    +0.000 C 
ATOM     29  C   UNL     1       4.318   5.313  16.897  0.00  0.00    +0.000 C 
ENDBRANCH  23  26
ENDBRANCH  17  20
ENDBRANCH   5  17
TORSDOF 5
ENDMDL
MODEL 9
REMARK VINA RESULT:      -7.5      2.833      4.659
REMARK  Name = 
REMARK  10 active torsions:
REMARK  status: ('A' for Active; 'I' for Inactive)
REMARK    1  A    between atoms: C_1  and  O_2
REMARK    2  A    between atoms: O_2  and  C_3
REMARK    3  A    between atoms: C_9  and  C_10
REMARK    4  A    between atoms: C_12  and  C_13
REMARK    5  A    between atoms: C_14  and  S_15
REMARK    6  A    between atoms: S_15  and  C_18
REMARK    7  A    between atoms: C_21  and  C_22
REMARK    8  A    between atoms: C_22  and  C_23
REMARK    9  A    between atoms: C_22  and  C_24
REMARK   10  A    between atoms: C_22  and  C_25
REMARK                            x       y       z     vdW  Elec       q    Type
REMARK                         _______ _______ _______ _____ _____    ______ ____
ROOT
ATOM      1  C   UNL     1       0.999  12.546  19.894  0.00  0.00    +0.000 A 
ATOM      2  N   UNL     1       0.043  12.112  19.091  0.00  0.00    +0.000 NA
ATOM      3  C   UNL     1      -0.202  10.805  19.441  0.00  0.00    +0.000 A 
ATOM      4  C   UNL     1      -1.195  10.018  18.675  0.00  0.00    +0.000 C 
ATOM      5  C   UNL     1       0.585  10.436  20.515  0.00  0.00    +0.000 A 
ATOM      6  N   UNL     1       1.370  11.537  20.745  0.00  0.00    +0.000 N 
ATOM      7  H   UNL     1       2.120  11.600  21.424  0.00  0.00    +0.000 HD
ENDROOT
BRANCH   1  14
ATOM      8  C   UNL     1       1.593  14.755  21.007  0.00  0.00    +0.000 A 
ATOM      9  C   UNL     1       2.175  16.027  20.892  0.00  0.00    +0.000 A 
ATOM     10  C   UNL     1       2.701  16.464  19.673  0.00  0.00    +0.000 A 
ATOM     11  C   UNL     1       2.657  15.632  18.563  0.00  0.00    +0.000 A 
ATOM     12 CL   UNL     1       3.294  16.172  17.060  0.00  0.00    +0.000 Cl
ATOM     13  C   UNL     1       2.103  14.361  18.665  0.00  0.00    +0.000 A 
ATOM     14  C   UNL     1       1.569  13.900  19.885  0.00  0.00    +0.000 A 
BRANCH   8  16
ATOM     15  C   UNL     1      -0.202  14.777  22.572  0.00  0.00    +0.000 C 
ATOM     16  O   UNL     1       1.076  14.275  22.187  0.00  0.00    +0.000 OA
ENDBRANCH   8  16
ENDBRANCH   1  14
BRANCH   5  17
ATOM     17  S   UNL     1       0.771   8.974  21.465  0.00  0.00    +0.000 S 
ATOM     18  O   UNL     1       1.709   9.305  22.512  0.00  0.00    +0.000 OA
ATOM     19  O   UNL     1      -0.592   8.567  21.750  0.00  0.00    +0.000 OA
BRANCH  17  20
ATOM     20  C   UNL     1       1.498   7.756  20.403  0.00  0.00    +0.000 A 
ATOM     21  C   UNL     1       2.052   8.152  19.190  0.00  0.00    +0.000 A 
ATOM     22  C   UNL     1       2.737   7.219  18.402  0.00  0.00    +0.000 A 
ATOM     23  C   UNL     1       2.899   5.880  18.808  0.00  0.00    +0.000 A 
ATOM     24  C   UNL     1       2.309   5.502  20.030  0.00  0.00    +0.000 A 
ATOM     25  C   UNL     1       1.620   6.431  20.826  0.00  0.00    +0.000 A 
BRANCH  23  26
ATOM     26  C   UNL     1       3.727   4.868  17.985  0.00  0.00    +0.000 C 
ATOM     27  C   UNL     1       4.519   5.537  16.838  0.00  0.00    +0.000 C 
ATOM     28  C   UNL     1       4.751   4.155  18.895  0.00  0.00    +0.000 C 
ATOM     29  C   UNL     1       2.819   3.796  17.344  0.00  0.00    +0.000 C 
ENDBRANCH  23  26
ENDBRANCH  17  20
ENDBRANCH   5  17
TORSDOF 5
ENDMDL
