MODEL 1
REMARK VINA RESULT:      -7.8      0.000      0.000
REMARK  Name = 
REMARK  6 active torsions:
REMARK  status: ('A' for Active; 'I' for Inactive)
REMARK    1  A    between atoms: C_1  and  C_2
REMARK    2  A    between atoms: C_2  and  C_3
REMARK    3  A    between atoms: C_3  and  N_4
REMARK    4  A    between atoms: N_7  and  C_8
REMARK    5  A    between atoms: C_8  and  C_9
REMARK    6  A    between atoms: C_9  and  C_11
REMARK                            x       y       z     vdW  Elec       q    Type
REMARK                         _______ _______ _______ _____ _____    ______ ____
ROOT
ATOM      1  N   UNL     1       6.891   5.583  17.679  0.00  0.00    +0.000 N 
ATOM      2  C   UNL     1       5.956   4.917  18.406  0.00  0.00    +0.000 A 
ATOM      3  N   UNL     1       5.788   5.058  19.674  0.00  0.00    +0.000 NA
ATOM      4  N   UNL     1       5.200   4.081  17.645  0.00  0.00    +0.000 N 
ATOM      5  C   UNL     1       5.681   4.237  16.392  0.00  0.00    +0.000 A 
ATOM      6  C   UNL     1       5.284   3.615  15.204  0.00  0.00    +0.000 A 
ATOM      7  C   UNL     1       5.973   3.953  14.024  0.00  0.00    +0.000 A 
ATOM      8  C   UNL     1       7.024   4.897  14.050  0.00  0.00    +0.000 A 
ATOM      9  C   UNL     1       7.398   5.512  15.255  0.00  0.00    +0.000 A 
ATOM     10  C   UNL     1       6.704   5.153  16.415  0.00  0.00    +0.000 A 
ATOM     11  H   UNL     1       6.359   5.693  20.246  0.00  0.00    +0.000 HD
ENDROOT
BRANCH   1  12
ATOM     12  C   UNL     1       7.891   6.546  18.148  0.00  0.00    +0.000 C 
BRANCH  12  14
ATOM     13  C   UNL     1       8.444   9.032  18.281  0.00  0.00    +0.000 C 
ATOM     14  C   UNL     1       7.622   7.948  17.581  0.00  0.00    +0.000 C 
ENDBRANCH  12  14
ENDBRANCH   1  12
BRANCH   4  15
ATOM     15  C   UNL     1       4.095   3.231  18.111  0.00  0.00    +0.000 C 
BRANCH  15  16
ATOM     16  C   UNL     1       2.742   3.908  18.034  0.00  0.00    +0.000 C 
ATOM     17  O   UNL     1       1.911   3.407  17.291  0.00  0.00    +0.000 OA
BRANCH  16  18
ATOM     18  C   UNL     1       2.383   5.153  18.781  0.00  0.00    +0.000 A 
ATOM     19  C   UNL     1       2.539   6.439  18.228  0.00  0.00    +0.000 A 
ATOM     20  C   UNL     1       2.220   7.581  18.969  0.00  0.00    +0.000 A 
ATOM     21  C   UNL     1       1.727   7.458  20.270  0.00  0.00    +0.000 A 
ATOM     22 CL   UNL     1       1.333   8.891  21.201  0.00  0.00    +0.000 Cl
ATOM     23  C   UNL     1       1.550   6.191  20.828  0.00  0.00    +0.000 A 
ATOM     24  C   UNL     1       1.876   5.048  20.093  0.00  0.00    +0.000 A 
ENDBRANCH  16  18
ENDBRANCH  15  16
ENDBRANCH   4  15
TORSDOF 5
ENDMDL
MODEL 2
REMARK VINA RESULT:      -7.5      2.506      5.958
REMARK  Name = 
REMARK  6 active torsions:
REMARK  status: ('A' for Active; 'I' for Inactive)
REMARK    1  A    between atoms: C_1  and  C_2
REMARK    2  A    between atoms: C_2  and  C_3
REMARK    3  A    between atoms: C_3  and  N_4
REMARK    4  A    between atoms: N_7  and  C_8
REMARK    5  A    between atoms: C_8  and  C_9
REMARK    6  A    between atoms: C_9  and  C_11
REMARK                            x       y       z     vdW  Elec       q    Type
REMARK                         _______ _______ _______ _____ _____    ______ ____
ROOT
ATOM      1  N   UNL     1       3.072   4.499  19.620  0.00  0.00    +0.000 N 
ATOM      2  C   UNL     1       3.830   4.014  18.600  0.00  0.00    +0.000 A 
ATOM      3  N   UNL     1       4.280   2.811  18.539  0.00  0.00    +0.000 NA
ATOM      4  N   UNL     1       4.060   4.944  17.635  0.00  0.00    +0.000 N 
ATOM      5  C   UNL     1       3.416   6.049  18.068  0.00  0.00    +0.000 A 
ATOM      6  C   UNL     1       3.321   7.313  17.476  0.00  0.00    +0.000 A 
ATOM      7  C   UNL     1       2.590   8.304  18.157  0.00  0.00    +0.000 A 
ATOM      8  C   UNL     1       1.969   8.018  19.393  0.00  0.00    +0.000 A 
ATOM      9  C   UNL     1       2.072   6.739  19.962  0.00  0.00    +0.000 A 
ATOM     10  C   UNL     1       2.812   5.775  19.271  0.00  0.00    +0.000 A 
ATOM     11  H   UNL     1       4.101   2.110  19.269  0.00  0.00    +0.000 HD
ENDROOT
BRANCH   1  12
ATOM     12  C   UNL     1       2.635   3.806  20.835  0.00  0.00    +0.000 C 
BRANCH  12  14
ATOM     13  C   UNL     1       0.770   2.737  19.463  0.00  0.00    +0.000 C 
ATOM     14  C   UNL     1       1.144   3.447  20.766  0.00  0.00    +0.000 C 
ENDBRANCH  12  14
ENDBRANCH   1  12
BRANCH   4  15
ATOM     15  C   UNL     1       4.825   4.747  16.395  0.00  0.00    +0.000 C 
BRANCH  15  16
ATOM     16  C   UNL     1       6.325   4.816  16.597  0.00  0.00    +0.000 C 
ATOM     17  O   UNL     1       6.984   3.867  16.199  0.00  0.00    +0.000 OA
BRANCH  16  18
ATOM     18  C   UNL     1       7.029   5.950  17.271  0.00  0.00    +0.000 A 
ATOM     19  C   UNL     1       7.741   5.789  18.477  0.00  0.00    +0.000 A 
ATOM     20  C   UNL     1       8.361   6.880  19.092  0.00  0.00    +0.000 A 
ATOM     21  C   UNL     1       8.293   8.148  18.510  0.00  0.00    +0.000 A 
ATOM     22 CL   UNL     1       9.067   9.516  19.286  0.00  0.00    +0.000 Cl
ATOM     23  C   UNL     1       7.608   8.322  17.306  0.00  0.00    +0.000 A 
ATOM     24  C   UNL     1       6.978   7.236  16.693  0.00  0.00    +0.000 A 
ENDBRANCH  16  18
ENDBRANCH  15  16
ENDBRANCH   4  15
TORSDOF 5
ENDMDL
MODEL 3
REMARK VINA RESULT:      -7.2      3.271      6.415
REMARK  Name = 
REMARK  6 active torsions:
REMARK  status: ('A' for Active; 'I' for Inactive)
REMARK    1  A    between atoms: C_1  and  C_2
REMARK    2  A    between atoms: C_2  and  C_3
REMARK    3  A    between atoms: C_3  and  N_4
REMARK    4  A    between atoms: N_7  and  C_8
REMARK    5  A    between atoms: C_8  and  C_9
REMARK    6  A    between atoms: C_9  and  C_11
REMARK                            x       y       z     vdW  Elec       q    Type
REMARK                         _______ _______ _______ _____ _____    ______ ____
ROOT
ATOM      1  N   UNL     1       3.257   4.246  18.957  0.00  0.00    +0.000 N 
ATOM      2  C   UNL     1       4.593   4.009  18.866  0.00  0.00    +0.000 A 
ATOM      3  N   UNL     1       5.156   2.899  19.192  0.00  0.00    +0.000 NA
ATOM      4  N   UNL     1       5.281   5.077  18.383  0.00  0.00    +0.000 N 
ATOM      5  C   UNL     1       4.335   6.016  18.159  0.00  0.00    +0.000 A 
ATOM      6  C   UNL     1       4.474   7.318  17.670  0.00  0.00    +0.000 A 
ATOM      7  C   UNL     1       3.310   8.101  17.546  0.00  0.00    +0.000 A 
ATOM      8  C   UNL     1       2.048   7.574  17.899  0.00  0.00    +0.000 A 
ATOM      9  C   UNL     1       1.935   6.260  18.380  0.00  0.00    +0.000 A 
ATOM     10  C   UNL     1       3.107   5.507  18.503  0.00  0.00    +0.000 A 
ATOM     11  H   UNL     1       4.632   2.092  19.553  0.00  0.00    +0.000 HD
ENDROOT
BRANCH   1  12
ATOM     12  C   UNL     1       2.206   3.348  19.444  0.00  0.00    +0.000 C 
BRANCH  12  14
ATOM     13  C   UNL     1       1.912   2.553  21.849  0.00  0.00    +0.000 C 
ATOM     14  C   UNL     1       1.773   3.720  20.869  0.00  0.00    +0.000 C 
ENDBRANCH  12  14
ENDBRANCH   1  12
BRANCH   4  15
ATOM     15  C   UNL     1       6.730   5.151  18.146  0.00  0.00    +0.000 C 
BRANCH  15  16
ATOM     16  C   UNL     1       7.087   5.666  16.766  0.00  0.00    +0.000 C 
ATOM     17  O   UNL     1       7.683   6.730  16.706  0.00  0.00    +0.000 OA
BRANCH  16  18
ATOM     18  C   UNL     1       6.729   4.968  15.492  0.00  0.00    +0.000 A 
ATOM     19  C   UNL     1       7.455   5.151  14.299  0.00  0.00    +0.000 A 
ATOM     20  C   UNL     1       7.071   4.503  13.121  0.00  0.00    +0.000 A 
ATOM     21  C   UNL     1       5.965   3.651  13.117  0.00  0.00    +0.000 A 
ATOM     22 CL   UNL     1       5.481   2.844  11.637  0.00  0.00    +0.000 Cl
ATOM     23  C   UNL     1       5.244   3.444  14.294  0.00  0.00    +0.000 A 
ATOM     24  C   UNL     1       5.619   4.097  15.471  0.00  0.00    +0.000 A 
ENDBRANCH  16  18
ENDBRANCH  15  16
ENDBRANCH   4  15
TORSDOF 5
ENDMDL
MODEL 4
REMARK VINA RESULT:      -7.1      3.299      6.467
REMARK  Name = 
REMARK  6 active torsions:
REMARK  status: ('A' for Active; 'I' for Inactive)
REMARK    1  A    between atoms: C_1  and  C_2
REMARK    2  A    between atoms: C_2  and  C_3
REMARK    3  A    between atoms: C_3  and  N_4
REMARK    4  A    between atoms: N_7  and  C_8
REMARK    5  A    between atoms: C_8  and  C_9
REMARK    6  A    between atoms: C_9  and  C_11
REMARK                            x       y       z     vdW  Elec       q    Type
REMARK                         _______ _______ _______ _____ _____    ______ ____
ROOT
ATOM      1  N   UNL     1       3.591   4.260  19.468  0.00  0.00    +0.000 N 
ATOM      2  C   UNL     1       4.882   3.958  19.166  0.00  0.00    +0.000 A 
ATOM      3  N   UNL     1       5.480   2.881  19.537  0.00  0.00    +0.000 NA
ATOM      4  N   UNL     1       5.482   4.921  18.417  0.00  0.00    +0.000 N 
ATOM      5  C   UNL     1       4.525   5.858  18.240  0.00  0.00    +0.000 A 
ATOM      6  C   UNL     1       4.588   7.075  17.554  0.00  0.00    +0.000 A 
ATOM      7  C   UNL     1       3.434   7.880  17.537  0.00  0.00    +0.000 A 
ATOM      8  C   UNL     1       2.254   7.459  18.189  0.00  0.00    +0.000 A 
ATOM      9  C   UNL     1       2.214   6.229  18.865  0.00  0.00    +0.000 A 
ATOM     10  C   UNL     1       3.377   5.452  18.875  0.00  0.00    +0.000 A 
ATOM     11  H   UNL     1       5.022   2.153  20.100  0.00  0.00    +0.000 HD
ENDROOT
BRANCH   1  12
ATOM     12  C   UNL     1       2.638   3.482  20.263  0.00  0.00    +0.000 C 
BRANCH  12  14
ATOM     13  C   UNL     1       0.858   2.715  18.606  0.00  0.00    +0.000 C 
ATOM     14  C   UNL     1       2.065   2.309  19.455  0.00  0.00    +0.000 C 
ENDBRANCH  12  14
ENDBRANCH   1  12
BRANCH   4  15
ATOM     15  C   UNL     1       6.861   4.902  17.908  0.00  0.00    +0.000 C 
BRANCH  15  16
ATOM     16  C   UNL     1       7.000   5.512  16.528  0.00  0.00    +0.000 C 
ATOM     17  O   UNL     1       7.517   6.616  16.458  0.00  0.00    +0.000 OA
BRANCH  16  18
ATOM     18  C   UNL     1       6.520   4.859  15.270  0.00  0.00    +0.000 A 
ATOM     19  C   UNL     1       5.258   4.240  15.173  0.00  0.00    +0.000 A 
ATOM     20  C   UNL     1       4.858   3.615  13.989  0.00  0.00    +0.000 A 
ATOM     21  C   UNL     1       5.702   3.608  12.877  0.00  0.00    +0.000 A 
ATOM     22 CL   UNL     1       5.201   2.817  11.395  0.00  0.00    +0.000 Cl
ATOM     23  C   UNL     1       6.949   4.231  12.950  0.00  0.00    +0.000 A 
ATOM     24  C   UNL     1       7.357   4.849  14.135  0.00  0.00    +0.000 A 
ENDBRANCH  16  18
ENDBRANCH  15  16
ENDBRANCH   4  15
TORSDOF 5
ENDMDL
MODEL 5
REMARK VINA RESULT:      -7.1      3.258      6.462
REMARK  Name = 
REMARK  6 active torsions:
REMARK  status: ('A' for Active; 'I' for Inactive)
REMARK    1  A    between atoms: C_1  and  C_2
REMARK    2  A    between atoms: C_2  and  C_3
REMARK    3  A    between atoms: C_3  and  N_4
REMARK    4  A    between atoms: N_7  and  C_8
REMARK    5  A    between atoms: C_8  and  C_9
REMARK    6  A    between atoms: C_9  and  C_11
REMARK                            x       y       z     vdW  Elec       q    Type
REMARK                         _______ _______ _______ _____ _____    ______ ____
ROOT
ATOM      1  N   UNL     1       3.024   3.945  18.930  0.00  0.00    +0.000 N 
ATOM      2  C   UNL     1       4.363   3.712  18.970  0.00  0.00    +0.000 A 
ATOM      3  N   UNL     1       4.894   2.591  19.308  0.00  0.00    +0.000 NA
ATOM      4  N   UNL     1       5.093   4.800  18.605  0.00  0.00    +0.000 N 
ATOM      5  C   UNL     1       4.171   5.746  18.321  0.00  0.00    +0.000 A 
ATOM      6  C   UNL     1       4.354   7.067  17.902  0.00  0.00    +0.000 A 
ATOM      7  C   UNL     1       3.206   7.854  17.688  0.00  0.00    +0.000 A 
ATOM      8  C   UNL     1       1.917   7.313  17.885  0.00  0.00    +0.000 A 
ATOM      9  C   UNL     1       1.760   5.980  18.299  0.00  0.00    +0.000 A 
ATOM     10  C   UNL     1       2.916   5.223  18.514  0.00  0.00    +0.000 A 
ATOM     11  H   UNL     1       4.339   1.769  19.580  0.00  0.00    +0.000 HD
ENDROOT
BRANCH   1  12
ATOM     12  C   UNL     1       1.932   3.028  19.268  0.00  0.00    +0.000 C 
BRANCH  12  14
ATOM     13  C   UNL     1       1.989   2.766  21.804  0.00  0.00    +0.000 C 
ATOM     14  C   UNL     1       1.282   3.405  20.607  0.00  0.00    +0.000 C 
ENDBRANCH  12  14
ENDBRANCH   1  12
BRANCH   4  15
ATOM     15  C   UNL     1       6.558   4.884  18.524  0.00  0.00    +0.000 C 
BRANCH  15  16
ATOM     16  C   UNL     1       7.055   5.447  17.208  0.00  0.00    +0.000 C 
ATOM     17  O   UNL     1       7.756   6.446  17.259  0.00  0.00    +0.000 OA
BRANCH  16  18
ATOM     18  C   UNL     1       6.717   4.872  15.869  0.00  0.00    +0.000 A 
ATOM     19  C   UNL     1       5.651   3.970  15.681  0.00  0.00    +0.000 A 
ATOM     20  C   UNL     1       5.384   3.431  14.419  0.00  0.00    +0.000 A 
ATOM     21  C   UNL     1       6.166   3.794  13.320  0.00  0.00    +0.000 A 
ATOM     22 CL   UNL     1       5.834   3.113  11.739  0.00  0.00    +0.000 Cl
ATOM     23  C   UNL     1       7.215   4.700  13.485  0.00  0.00    +0.000 A 
ATOM     24  C   UNL     1       7.491   5.233  14.747  0.00  0.00    +0.000 A 
ENDBRANCH  16  18
ENDBRANCH  15  16
ENDBRANCH   4  15
TORSDOF 5
ENDMDL
MODEL 6
REMARK VINA RESULT:      -7.0      0.599      1.226
REMARK  Name = 
REMARK  6 active torsions:
REMARK  status: ('A' for Active; 'I' for Inactive)
REMARK    1  A    between atoms: C_1  and  C_2
REMARK    2  A    between atoms: C_2  and  C_3
REMARK    3  A    between atoms: C_3  and  N_4
REMARK    4  A    between atoms: N_7  and  C_8
REMARK    5  A    between atoms: C_8  and  C_9
REMARK    6  A    between atoms: C_9  and  C_11
REMARK                            x       y       z     vdW  Elec       q    Type
REMARK                         _______ _______ _______ _____ _____    ______ ____
ROOT
ATOM      1  N   UNL     1       6.834   4.948  17.795  0.00  0.00    +0.000 N 
ATOM      2  C   UNL     1       5.768   4.363  18.402  0.00  0.00    +0.000 A 
ATOM      3  N   UNL     1       5.564   4.366  19.672  0.00  0.00    +0.000 NA
ATOM      4  N   UNL     1       4.923   3.771  17.516  0.00  0.00    +0.000 N 
ATOM      5  C   UNL     1       5.482   4.003  16.308  0.00  0.00    +0.000 A 
ATOM      6  C   UNL     1       5.046   3.615  15.038  0.00  0.00    +0.000 A 
ATOM      7  C   UNL     1       5.838   3.980  13.932  0.00  0.00    +0.000 A 
ATOM      8  C   UNL     1       7.027   4.721  14.112  0.00  0.00    +0.000 A 
ATOM      9  C   UNL     1       7.438   5.104  15.398  0.00  0.00    +0.000 A 
ATOM     10  C   UNL     1       6.640   4.722  16.481  0.00  0.00    +0.000 A 
ATOM     11  H   UNL     1       6.203   4.817  20.340  0.00  0.00    +0.000 HD
ENDROOT
BRANCH   1  12
ATOM     12  C   UNL     1       7.954   5.660  18.416  0.00  0.00    +0.000 C 
BRANCH  12  14
ATOM     13  C   UNL     1       6.516   7.584  17.559  0.00  0.00    +0.000 C 
ATOM     14  C   UNL     1       7.858   7.172  18.168  0.00  0.00    +0.000 C 
ENDBRANCH  12  14
ENDBRANCH   1  12
BRANCH   4  15
ATOM     15  C   UNL     1       3.672   3.067  17.835  0.00  0.00    +0.000 C 
BRANCH  15  16
ATOM     16  C   UNL     1       2.450   3.963  17.791  0.00  0.00    +0.000 C 
ATOM     17  O   UNL     1       1.614   3.722  16.934  0.00  0.00    +0.000 OA
BRANCH  16  18
ATOM     18  C   UNL     1       2.231   5.126  18.705  0.00  0.00    +0.000 A 
ATOM     19  C   UNL     1       1.774   4.972  20.029  0.00  0.00    +0.000 A 
ATOM     20  C   UNL     1       1.552   6.086  20.844  0.00  0.00    +0.000 A 
ATOM     21  C   UNL     1       1.796   7.372  20.357  0.00  0.00    +0.000 A 
ATOM     22 CL   UNL     1       1.513   8.769  21.379  0.00  0.00    +0.000 Cl
ATOM     23  C   UNL     1       2.267   7.543  19.054  0.00  0.00    +0.000 A 
ATOM     24  C   UNL     1       2.480   6.432  18.233  0.00  0.00    +0.000 A 
ENDBRANCH  16  18
ENDBRANCH  15  16
ENDBRANCH   4  15
TORSDOF 5
ENDMDL
MODEL 7
REMARK VINA RESULT:      -6.9      2.462      5.923
REMARK  Name = 
REMARK  6 active torsions:
REMARK  status: ('A' for Active; 'I' for Inactive)
REMARK    1  A    between atoms: C_1  and  C_2
REMARK    2  A    between atoms: C_2  and  C_3
REMARK    3  A    between atoms: C_3  and  N_4
REMARK    4  A    between atoms: N_7  and  C_8
REMARK    5  A    between atoms: C_8  and  C_9
REMARK    6  A    between atoms: C_9  and  C_11
REMARK                            x       y       z     vdW  Elec       q    Type
REMARK                         _______ _______ _______ _____ _____    ______ ____
ROOT
ATOM      1  N   UNL     1       3.254   3.582  19.348  0.00  0.00    +0.000 N 
ATOM      2  C   UNL     1       3.916   3.340  18.186  0.00  0.00    +0.000 A 
ATOM      3  N   UNL     1       4.376   2.190  17.839  0.00  0.00    +0.000 NA
ATOM      4  N   UNL     1       4.038   4.452  17.413  0.00  0.00    +0.000 N 
ATOM      5  C   UNL     1       3.422   5.425  18.121  0.00  0.00    +0.000 A 
ATOM      6  C   UNL     1       3.252   6.778  17.810  0.00  0.00    +0.000 A 
ATOM      7  C   UNL     1       2.575   7.585  18.744  0.00  0.00    +0.000 A 
ATOM      8  C   UNL     1       2.082   7.035  19.947  0.00  0.00    +0.000 A 
ATOM      9  C   UNL     1       2.260   5.672  20.231  0.00  0.00    +0.000 A 
ATOM     10  C   UNL     1       2.943   4.893  19.292  0.00  0.00    +0.000 A 
ATOM     11  H   UNL     1       4.279   1.350  18.423  0.00  0.00    +0.000 HD
ENDROOT
BRANCH   1  12
ATOM     12  C   UNL     1       2.948   2.643  20.431  0.00  0.00    +0.000 C 
BRANCH  12  14
ATOM     13  C   UNL     1       1.090   2.620  22.177  0.00  0.00    +0.000 C 
ATOM     14  C   UNL     1       1.437   2.564  20.688  0.00  0.00    +0.000 C 
ENDBRANCH  12  14
ENDBRANCH   1  12
BRANCH   4  15
ATOM     15  C   UNL     1       4.681   4.536  16.094  0.00  0.00    +0.000 C 
BRANCH  15  16
ATOM     16  C   UNL     1       6.181   4.737  16.168  0.00  0.00    +0.000 C 
ATOM     17  O   UNL     1       6.881   3.921  15.587  0.00  0.00    +0.000 OA
BRANCH  16  18
ATOM     18  C   UNL     1       6.842   5.844  16.926  0.00  0.00    +0.000 A 
ATOM     19  C   UNL     1       6.795   7.186  16.501  0.00  0.00    +0.000 A 
ATOM     20  C   UNL     1       7.451   8.188  17.221  0.00  0.00    +0.000 A 
ATOM     21  C   UNL     1       8.153   7.872  18.386  0.00  0.00    +0.000 A 
ATOM     22 CL   UNL     1       8.980   9.130  19.285  0.00  0.00    +0.000 Cl
ATOM     23  C   UNL     1       8.195   6.550  18.833  0.00  0.00    +0.000 A 
ATOM     24  C   UNL     1       7.549   5.543  18.110  0.00  0.00    +0.000 A 
ENDBRANCH  16  18
ENDBRANCH  15  16
ENDBRANCH   4  15
TORSDOF 5
ENDMDL
MODEL 8
REMARK VINA RESULT:      -6.9      2.493      4.661
REMARK  Name = 
REMARK  6 active torsions:
REMARK  status: ('A' for Active; 'I' for Inactive)
REMARK    1  A    between atoms: C_1  and  C_2
REMARK    2  A    between atoms: C_2  and  C_3
REMARK    3  A    between atoms: C_3  and  N_4
REMARK    4  A    between atoms: N_7  and  C_8
REMARK    5  A    between atoms: C_8  and  C_9
REMARK    6  A    between atoms: C_9  and  C_11
REMARK                            x       y       z     vdW  Elec       q    Type
REMARK                         _______ _______ _______ _____ _____    ______ ____
ROOT
ATOM      1  N   UNL     1       4.475   4.589  17.229  0.00  0.00    +0.000 N 
ATOM      2  C   UNL     1       4.401   5.844  17.748  0.00  0.00    +0.000 A 
ATOM      3  N   UNL     1       5.245   6.782  17.501  0.00  0.00    +0.000 NA
ATOM      4  N   UNL     1       3.325   6.009  18.563  0.00  0.00    +0.000 N 
ATOM      5  C   UNL     1       2.700   4.811  18.545  0.00  0.00    +0.000 A 
ATOM      6  C   UNL     1       1.541   4.403  19.212  0.00  0.00    +0.000 A 
ATOM      7  C   UNL     1       1.110   3.075  19.027  0.00  0.00    +0.000 A 
ATOM      8  C   UNL     1       1.827   2.196  18.188  0.00  0.00    +0.000 A 
ATOM      9  C   UNL     1       2.985   2.633  17.524  0.00  0.00    +0.000 A 
ATOM     10  C   UNL     1       3.398   3.953  17.731  0.00  0.00    +0.000 A 
ATOM     11  H   UNL     1       6.056   6.655  16.882  0.00  0.00    +0.000 HD
ENDROOT
BRANCH   1  12
ATOM     12  C   UNL     1       5.493   4.036  16.332  0.00  0.00    +0.000 C 
BRANCH  12  14
ATOM     13  C   UNL     1       6.405   4.112  13.952  0.00  0.00    +0.000 C 
ATOM     14  C   UNL     1       5.229   4.439  14.874  0.00  0.00    +0.000 C 
ENDBRANCH  12  14
ENDBRANCH   1  12
BRANCH   4  15
ATOM     15  C   UNL     1       2.942   7.240  19.269  0.00  0.00    +0.000 C 
BRANCH  15  16
ATOM     16  C   UNL     1       2.206   8.232  18.391  0.00  0.00    +0.000 C 
ATOM     17  O   UNL     1       2.533   8.282  17.215  0.00  0.00    +0.000 OA
BRANCH  16  18
ATOM     18  C   UNL     1       1.141   9.159  18.883  0.00  0.00    +0.000 A 
ATOM     19  C   UNL     1       0.338   9.920  18.011  0.00  0.00    +0.000 A 
ATOM     20  C   UNL     1      -0.629  10.798  18.512  0.00  0.00    +0.000 A 
ATOM     21  C   UNL     1      -0.820  10.921  19.889  0.00  0.00    +0.000 A 
ATOM     22 CL   UNL     1      -2.028  12.027  20.515  0.00  0.00    +0.000 Cl
ATOM     23  C   UNL     1      -0.045  10.161  20.768  0.00  0.00    +0.000 A 
ATOM     24  C   UNL     1       0.928   9.290  20.272  0.00  0.00    +0.000 A 
ENDBRANCH  16  18
ENDBRANCH  15  16
ENDBRANCH   4  15
TORSDOF 5
ENDMDL
MODEL 9
REMARK VINA RESULT:      -6.9      2.309      4.251
REMARK  Name = 
REMARK  6 active torsions:
REMARK  status: ('A' for Active; 'I' for Inactive)
REMARK    1  A    between atoms: C_1  and  C_2
REMARK    2  A    between atoms: C_2  and  C_3
REMARK    3  A    between atoms: C_3  and  N_4
REMARK    4  A    between atoms: N_7  and  C_8
REMARK    5  A    between atoms: C_8  and  C_9
REMARK    6  A    between atoms: C_9  and  C_11
REMARK                            x       y       z     vdW  Elec       q    Type
REMARK                         _______ _______ _______ _____ _____    ______ ____
ROOT
ATOM      1  N   UNL     1       4.949   4.886  17.237  0.00  0.00    +0.000 N 
ATOM      2  C   UNL     1       4.487   6.145  17.457  0.00  0.00    +0.000 A 
ATOM      3  N   UNL     1       5.188   7.212  17.305  0.00  0.00    +0.000 NA
ATOM      4  N   UNL     1       3.187   6.162  17.856  0.00  0.00    +0.000 N 
ATOM      5  C   UNL     1       2.823   4.861  17.878  0.00  0.00    +0.000 A 
ATOM      6  C   UNL     1       1.596   4.287  18.223  0.00  0.00    +0.000 A 
ATOM      7  C   UNL     1       1.490   2.884  18.174  0.00  0.00    +0.000 A 
ATOM      8  C   UNL     1       2.591   2.093  17.780  0.00  0.00    +0.000 A 
ATOM      9  C   UNL     1       3.811   2.695  17.431  0.00  0.00    +0.000 A 
ATOM     10  C   UNL     1       3.893   4.089  17.497  0.00  0.00    +0.000 A 
ATOM     11  H   UNL     1       6.170   7.197  17.000  0.00  0.00    +0.000 HD
ENDROOT
BRANCH   1  12
ATOM     12  C   UNL     1       6.291   4.471  16.818  0.00  0.00    +0.000 C 
BRANCH  12  14
ATOM     13  C   UNL     1       5.940   3.956  14.346  0.00  0.00    +0.000 C 
ATOM     14  C   UNL     1       6.579   4.895  15.371  0.00  0.00    +0.000 C 
ENDBRANCH  12  14
ENDBRANCH   1  12
BRANCH   4  15
ATOM     15  C   UNL     1       2.379   7.352  18.160  0.00  0.00    +0.000 C 
BRANCH  15  16
ATOM     16  C   UNL     1       2.128   7.544  19.643  0.00  0.00    +0.000 C 
ATOM     17  O   UNL     1       2.667   6.756  20.404  0.00  0.00    +0.000 OA
BRANCH  16  18
ATOM     18  C   UNL     1       1.247   8.609  20.212  0.00  0.00    +0.000 A 
ATOM     19  C   UNL     1       0.795   9.705  19.450  0.00  0.00    +0.000 A 
ATOM     20  C   UNL     1      -0.003  10.697  20.027  0.00  0.00    +0.000 A 
ATOM     21  C   UNL     1      -0.377  10.606  21.370  0.00  0.00    +0.000 A 
ATOM     22 CL   UNL     1      -1.374  11.854  22.093  0.00  0.00    +0.000 Cl
ATOM     23  C   UNL     1       0.046   9.518  22.135  0.00  0.00    +0.000 A 
ATOM     24  C   UNL     1       0.853   8.530  21.565  0.00  0.00    +0.000 A 
ENDBRANCH  16  18
ENDBRANCH  15  16
ENDBRANCH   4  15
TORSDOF 5
ENDMDL
