MODEL 1
REMARK VINA RESULT:      -7.4      0.000      0.000
REMARK  Name = 
REMARK  4 active torsions:
REMARK  status: ('A' for Active; 'I' for Inactive)
REMARK    1  A    between atoms: O_1  and  C_2
REMARK    2  A    between atoms: C_4  and  N_5
REMARK    3  A    between atoms: N_5  and  C_6
REMARK    4  A    between atoms: C_6  and  C_7
REMARK                            x       y       z     vdW  Elec       q    Type
REMARK                         _______ _______ _______ _____ _____    ______ ____
ROOT
ATOM      1  C   UNL     1       7.454   5.782  17.970  0.00  0.00    +0.000 C 
ATOM      2  C   UNL     1       6.765   5.545  19.321  0.00  0.00    +0.000 C 
ATOM      3  C   UNL     1       5.414   4.812  19.368  0.00  0.00    +0.000 C 
ATOM      4  C   UNL     1       4.311   5.688  18.743  0.00  0.00    +0.000 C 
ATOM      5  C   UNL     1       4.287   5.947  17.235  0.00  0.00    +0.000 C 
ATOM      6  C   UNL     1       5.416   5.391  16.425  0.00  0.00    +0.000 A 
ATOM      7  S   UNL     1       5.053   4.745  14.873  0.00  0.00    +0.000 S 
ATOM      8  C   UNL     1       6.676   4.334  14.584  0.00  0.00    +0.000 A 
ATOM      9  C   UNL     1       7.485   4.684  15.638  0.00  0.00    +0.000 A 
ATOM     10  C   UNL     1       6.769   5.306  16.721  0.00  0.00    +0.000 A 
ENDROOT
BRANCH   1  11
ATOM     11  O   UNL     1       7.760   7.174  17.852  0.00  0.00    +0.000 OA
ATOM     12  H   UNL     1       8.169   7.450  18.688  0.00  0.00    +0.000 HD
ENDBRANCH   1  11
BRANCH   3  13
ATOM     13  N   UNL     1       5.384   3.429  18.879  0.00  0.00    +0.000 NA
ATOM     14  H   UNL     1       6.321   3.089  18.663  0.00  0.00    +0.000 HD
BRANCH  13  15
ATOM     15  C   UNL     1       4.743   2.493  19.800  0.00  0.00    +0.000 C 
BRANCH  15  16
ATOM     16  C   UNL     1       3.241   2.657  19.802  0.00  0.00    +0.000 A 
ATOM     17  C   UNL     1       2.572   3.043  20.971  0.00  0.00    +0.000 A 
ATOM     18  C   UNL     1       1.185   3.206  20.975  0.00  0.00    +0.000 A 
ATOM     19  C   UNL     1       0.455   2.985  19.808  0.00  0.00    +0.000 A 
ATOM     20  C   UNL     1       1.110   2.601  18.640  0.00  0.00    +0.000 A 
ATOM     21  C   UNL     1       2.497   2.441  18.636  0.00  0.00    +0.000 A 
ENDBRANCH  15  16
ENDBRANCH  13  15
ENDBRANCH   3  13
TORSDOF 4
ENDMDL
MODEL 2
REMARK VINA RESULT:      -7.4      0.066      1.108
REMARK  Name = 
REMARK  4 active torsions:
REMARK  status: ('A' for Active; 'I' for Inactive)
REMARK    1  A    between atoms: O_1  and  C_2
REMARK    2  A    between atoms: C_4  and  N_5
REMARK    3  A    between atoms: N_5  and  C_6
REMARK    4  A    between atoms: C_6  and  C_7
REMARK                            x       y       z     vdW  Elec       q    Type
REMARK                         _______ _______ _______ _____ _____    ______ ____
ROOT
ATOM      1  C   UNL     1       7.406   5.771  17.995  0.00  0.00    +0.000 C 
ATOM      2  C   UNL     1       6.705   5.522  19.337  0.00  0.00    +0.000 C 
ATOM      3  C   UNL     1       5.360   4.778  19.367  0.00  0.00    +0.000 C 
ATOM      4  C   UNL     1       4.257   5.650  18.736  0.00  0.00    +0.000 C 
ATOM      5  C   UNL     1       4.246   5.916  17.229  0.00  0.00    +0.000 C 
ATOM      6  C   UNL     1       5.387   5.373  16.427  0.00  0.00    +0.000 A 
ATOM      7  S   UNL     1       5.044   4.733  14.868  0.00  0.00    +0.000 S 
ATOM      8  C   UNL     1       6.673   4.334  14.594  0.00  0.00    +0.000 A 
ATOM      9  C   UNL     1       7.469   4.686  15.657  0.00  0.00    +0.000 A 
ATOM     10  C   UNL     1       6.737   5.296  16.737  0.00  0.00    +0.000 A 
ENDROOT
BRANCH   1  11
ATOM     11  O   UNL     1       7.703   7.165  17.886  0.00  0.00    +0.000 OA
ATOM     12  H   UNL     1       8.427   7.354  18.506  0.00  0.00    +0.000 HD
ENDBRANCH   1  11
BRANCH   3  13
ATOM     13  N   UNL     1       5.344   3.398  18.871  0.00  0.00    +0.000 NA
ATOM     14  H   UNL     1       6.286   3.068  18.658  0.00  0.00    +0.000 HD
BRANCH  13  15
ATOM     15  C   UNL     1       4.708   2.451  19.783  0.00  0.00    +0.000 C 
BRANCH  15  16
ATOM     16  C   UNL     1       3.208   2.630  19.812  0.00  0.00    +0.000 A 
ATOM     17  C   UNL     1       2.437   2.334  18.681  0.00  0.00    +0.000 A 
ATOM     18  C   UNL     1       1.048   2.488  18.706  0.00  0.00    +0.000 A 
ATOM     19  C   UNL     1       0.420   2.940  19.866  0.00  0.00    +0.000 A 
ATOM     20  C   UNL     1       1.177   3.237  20.997  0.00  0.00    +0.000 A 
ATOM     21  C   UNL     1       2.564   3.081  20.971  0.00  0.00    +0.000 A 
ENDBRANCH  15  16
ENDBRANCH  13  15
ENDBRANCH   3  13
TORSDOF 4
ENDMDL
MODEL 3
REMARK VINA RESULT:      -7.1      3.400      5.468
REMARK  Name = 
REMARK  4 active torsions:
REMARK  status: ('A' for Active; 'I' for Inactive)
REMARK    1  A    between atoms: O_1  and  C_2
REMARK    2  A    between atoms: C_4  and  N_5
REMARK    3  A    between atoms: N_5  and  C_6
REMARK    4  A    between atoms: C_6  and  C_7
REMARK                            x       y       z     vdW  Elec       q    Type
REMARK                         _______ _______ _______ _____ _____    ______ ____
ROOT
ATOM      1  C   UNL     1       4.688   3.012  20.004  0.00  0.00    +0.000 C 
ATOM      2  C   UNL     1       5.419   3.968  19.053  0.00  0.00    +0.000 C 
ATOM      3  C   UNL     1       4.607   4.907  18.145  0.00  0.00    +0.000 C 
ATOM      4  C   UNL     1       3.867   4.094  17.065  0.00  0.00    +0.000 C 
ATOM      5  C   UNL     1       2.687   3.196  17.444  0.00  0.00    +0.000 C 
ATOM      6  C   UNL     1       2.350   3.080  18.897  0.00  0.00    +0.000 A 
ATOM      7  S   UNL     1       0.689   3.018  19.337  0.00  0.00    +0.000 S 
ATOM      8  C   UNL     1       1.057   2.908  20.993  0.00  0.00    +0.000 A 
ATOM      9  C   UNL     1       2.413   2.909  21.214  0.00  0.00    +0.000 A 
ATOM     10  C   UNL     1       3.186   3.006  20.003  0.00  0.00    +0.000 A 
ENDROOT
BRANCH   1  11
ATOM     11  O   UNL     1       5.176   1.686  19.784  0.00  0.00    +0.000 OA
ATOM     12  H   UNL     1       6.007   1.765  19.288  0.00  0.00    +0.000 HD
ENDBRANCH   1  11
BRANCH   3  13
ATOM     13  N   UNL     1       3.744   5.894  18.802  0.00  0.00    +0.000 NA
ATOM     14  H   UNL     1       4.249   6.415  19.519  0.00  0.00    +0.000 HD
BRANCH  13  15
ATOM     15  C   UNL     1       3.126   6.843  17.878  0.00  0.00    +0.000 C 
BRANCH  15  16
ATOM     16  C   UNL     1       2.281   7.859  18.609  0.00  0.00    +0.000 A 
ATOM     17  C   UNL     1       1.961   7.675  19.960  0.00  0.00    +0.000 A 
ATOM     18  C   UNL     1       1.188   8.618  20.643  0.00  0.00    +0.000 A 
ATOM     19  C   UNL     1       0.729   9.754  19.978  0.00  0.00    +0.000 A 
ATOM     20  C   UNL     1       1.041   9.947  18.634  0.00  0.00    +0.000 A 
ATOM     21  C   UNL     1       1.816   9.006  17.953  0.00  0.00    +0.000 A 
ENDBRANCH  15  16
ENDBRANCH  13  15
ENDBRANCH   3  13
TORSDOF 4
ENDMDL
MODEL 4
REMARK VINA RESULT:      -7.1      2.416      6.133
REMARK  Name = 
REMARK  4 active torsions:
REMARK  status: ('A' for Active; 'I' for Inactive)
REMARK    1  A    between atoms: O_1  and  C_2
REMARK    2  A    between atoms: C_4  and  N_5
REMARK    3  A    between atoms: N_5  and  C_6
REMARK    4  A    between atoms: C_6  and  C_7
REMARK                            x       y       z     vdW  Elec       q    Type
REMARK                         _______ _______ _______ _____ _____    ______ ____
ROOT
ATOM      1  C   UNL     1       2.689   6.199  18.239  0.00  0.00    +0.000 C 
ATOM      2  C   UNL     1       3.965   6.791  17.627  0.00  0.00    +0.000 C 
ATOM      3  C   UNL     1       5.109   5.857  17.201  0.00  0.00    +0.000 C 
ATOM      4  C   UNL     1       5.770   5.224  18.441  0.00  0.00    +0.000 C 
ATOM      5  C   UNL     1       5.022   4.176  19.268  0.00  0.00    +0.000 C 
ATOM      6  C   UNL     1       3.612   3.866  18.872  0.00  0.00    +0.000 A 
ATOM      7  S   UNL     1       3.090   2.231  18.966  0.00  0.00    +0.000 S 
ATOM      8  C   UNL     1       1.533   2.620  18.403  0.00  0.00    +0.000 A 
ATOM      9  C   UNL     1       1.404   3.966  18.156  0.00  0.00    +0.000 A 
ATOM     10  C   UNL     1       2.606   4.711  18.427  0.00  0.00    +0.000 A 
ENDROOT
BRANCH   1  11
ATOM     11  O   UNL     1       2.431   6.857  19.483  0.00  0.00    +0.000 OA
ATOM     12  H   UNL     1       1.469   6.965  19.556  0.00  0.00    +0.000 HD
ENDBRANCH   1  11
BRANCH   3  13
ATOM     13  N   UNL     1       4.818   4.874  16.152  0.00  0.00    +0.000 NA
ATOM     14  H   UNL     1       4.505   5.327  15.292  0.00  0.00    +0.000 HD
BRANCH  13  15
ATOM     15  C   UNL     1       5.942   3.995  15.838  0.00  0.00    +0.000 C 
BRANCH  15  16
ATOM     16  C   UNL     1       6.402   4.169  14.410  0.00  0.00    +0.000 A 
ATOM     17  C   UNL     1       7.418   5.081  14.099  0.00  0.00    +0.000 A 
ATOM     18  C   UNL     1       7.854   5.238  12.780  0.00  0.00    +0.000 A 
ATOM     19  C   UNL     1       7.275   4.482  11.762  0.00  0.00    +0.000 A 
ATOM     20  C   UNL     1       6.264   3.571  12.061  0.00  0.00    +0.000 A 
ATOM     21  C   UNL     1       5.831   3.414  13.378  0.00  0.00    +0.000 A 
ENDBRANCH  15  16
ENDBRANCH  13  15
ENDBRANCH   3  13
TORSDOF 4
ENDMDL
MODEL 5
REMARK VINA RESULT:      -7.0      3.464      5.632
REMARK  Name = 
REMARK  4 active torsions:
REMARK  status: ('A' for Active; 'I' for Inactive)
REMARK    1  A    between atoms: O_1  and  C_2
REMARK    2  A    between atoms: C_4  and  N_5
REMARK    3  A    between atoms: N_5  and  C_6
REMARK    4  A    between atoms: C_6  and  C_7
REMARK                            x       y       z     vdW  Elec       q    Type
REMARK                         _______ _______ _______ _____ _____    ______ ____
ROOT
ATOM      1  C   UNL     1       4.668   3.207  19.928  0.00  0.00    +0.000 C 
ATOM      2  C   UNL     1       5.237   4.139  18.851  0.00  0.00    +0.000 C 
ATOM      3  C   UNL     1       4.279   4.882  17.904  0.00  0.00    +0.000 C 
ATOM      4  C   UNL     1       3.595   3.884  16.950  0.00  0.00    +0.000 C 
ATOM      5  C   UNL     1       2.549   2.899  17.477  0.00  0.00    +0.000 C 
ATOM      6  C   UNL     1       2.293   2.894  18.952  0.00  0.00    +0.000 A 
ATOM      7  S   UNL     1       0.672   2.687  19.487  0.00  0.00    +0.000 S 
ATOM      8  C   UNL     1       1.123   2.789  21.123  0.00  0.00    +0.000 A 
ATOM      9  C   UNL     1       2.478   2.968  21.267  0.00  0.00    +0.000 A 
ATOM     10  C   UNL     1       3.179   3.029  20.011  0.00  0.00    +0.000 A 
ENDROOT
BRANCH   1  11
ATOM     11  O   UNL     1       5.301   1.930  19.808  0.00  0.00    +0.000 OA
ATOM     12  H   UNL     1       6.251   2.066  19.952  0.00  0.00    +0.000 HD
ENDBRANCH   1  11
BRANCH   3  13
ATOM     13  N   UNL     1       3.334   5.825  18.510  0.00  0.00    +0.000 NA
ATOM     14  H   UNL     1       3.522   5.956  19.504  0.00  0.00    +0.000 HD
BRANCH  13  15
ATOM     15  C   UNL     1       3.308   7.133  17.859  0.00  0.00    +0.000 C 
BRANCH  15  16
ATOM     16  C   UNL     1       2.319   8.064  18.522  0.00  0.00    +0.000 A 
ATOM     17  C   UNL     1       1.709   9.089  17.788  0.00  0.00    +0.000 A 
ATOM     18  C   UNL     1       0.786   9.945  18.395  0.00  0.00    +0.000 A 
ATOM     19  C   UNL     1       0.466   9.781  19.742  0.00  0.00    +0.000 A 
ATOM     20  C   UNL     1       1.067   8.764  20.481  0.00  0.00    +0.000 A 
ATOM     21  C   UNL     1       1.987   7.907  19.874  0.00  0.00    +0.000 A 
ENDBRANCH  15  16
ENDBRANCH  13  15
ENDBRANCH   3  13
TORSDOF 4
ENDMDL
MODEL 6
REMARK VINA RESULT:      -7.0      2.424      6.133
REMARK  Name = 
REMARK  4 active torsions:
REMARK  status: ('A' for Active; 'I' for Inactive)
REMARK    1  A    between atoms: O_1  and  C_2
REMARK    2  A    between atoms: C_4  and  N_5
REMARK    3  A    between atoms: N_5  and  C_6
REMARK    4  A    between atoms: C_6  and  C_7
REMARK                            x       y       z     vdW  Elec       q    Type
REMARK                         _______ _______ _______ _____ _____    ______ ____
ROOT
ATOM      1  C   UNL     1       2.580   6.199  18.242  0.00  0.00    +0.000 C 
ATOM      2  C   UNL     1       3.820   6.933  17.717  0.00  0.00    +0.000 C 
ATOM      3  C   UNL     1       5.068   6.128  17.314  0.00  0.00    +0.000 C 
ATOM      4  C   UNL     1       5.727   5.511  18.563  0.00  0.00    +0.000 C 
ATOM      5  C   UNL     1       5.045   4.364  19.313  0.00  0.00    +0.000 C 
ATOM      6  C   UNL     1       3.691   3.940  18.836  0.00  0.00    +0.000 A 
ATOM      7  S   UNL     1       3.324   2.260  18.843  0.00  0.00    +0.000 S 
ATOM      8  C   UNL     1       1.766   2.524  18.218  0.00  0.00    +0.000 A 
ATOM      9  C   UNL     1       1.520   3.860  18.014  0.00  0.00    +0.000 A 
ATOM     10  C   UNL     1       2.631   4.704  18.371  0.00  0.00    +0.000 A 
ENDROOT
BRANCH   1  11
ATOM     11  O   UNL     1       2.202   6.779  19.494  0.00  0.00    +0.000 OA
ATOM     12  H   UNL     1       2.700   6.315  20.187  0.00  0.00    +0.000 HD
ENDBRANCH   1  11
BRANCH   3  13
ATOM     13  N   UNL     1       4.920   5.166  16.217  0.00  0.00    +0.000 NA
ATOM     14  H   UNL     1       4.653   5.629  15.348  0.00  0.00    +0.000 HD
BRANCH  13  15
ATOM     15  C   UNL     1       6.116   4.362  15.974  0.00  0.00    +0.000 C 
BRANCH  15  16
ATOM     16  C   UNL     1       6.488   4.348  14.511  0.00  0.00    +0.000 A 
ATOM     17  C   UNL     1       5.828   3.491  13.620  0.00  0.00    +0.000 A 
ATOM     18  C   UNL     1       6.162   3.482  12.263  0.00  0.00    +0.000 A 
ATOM     19  C   UNL     1       7.159   4.332  11.787  0.00  0.00    +0.000 A 
ATOM     20  C   UNL     1       7.821   5.188  12.663  0.00  0.00    +0.000 A 
ATOM     21  C   UNL     1       7.485   5.199  14.018  0.00  0.00    +0.000 A 
ENDBRANCH  15  16
ENDBRANCH  13  15
ENDBRANCH   3  13
TORSDOF 4
ENDMDL
MODEL 7
REMARK VINA RESULT:      -6.9      3.388      5.485
REMARK  Name = 
REMARK  4 active torsions:
REMARK  status: ('A' for Active; 'I' for Inactive)
REMARK    1  A    between atoms: O_1  and  C_2
REMARK    2  A    between atoms: C_4  and  N_5
REMARK    3  A    between atoms: N_5  and  C_6
REMARK    4  A    between atoms: C_6  and  C_7
REMARK                            x       y       z     vdW  Elec       q    Type
REMARK                         _______ _______ _______ _____ _____    ______ ____
ROOT
ATOM      1  C   UNL     1       1.191   3.304  18.666  0.00  0.00    +0.000 C 
ATOM      2  C   UNL     1       0.766   3.564  20.117  0.00  0.00    +0.000 C 
ATOM      3  C   UNL     1       1.804   4.064  21.135  0.00  0.00    +0.000 C 
ATOM      4  C   UNL     1       2.833   2.956  21.434  0.00  0.00    +0.000 C 
ATOM      5  C   UNL     1       3.854   2.541  20.373  0.00  0.00    +0.000 C 
ATOM      6  C   UNL     1       3.750   3.188  19.027  0.00  0.00    +0.000 A 
ATOM      7  S   UNL     1       5.209   3.597  18.215  0.00  0.00    +0.000 S 
ATOM      8  C   UNL     1       4.371   4.240  16.883  0.00  0.00    +0.000 A 
ATOM      9  C   UNL     1       3.010   4.141  17.042  0.00  0.00    +0.000 A 
ATOM     10  C   UNL     1       2.627   3.526  18.286  0.00  0.00    +0.000 A 
ENDROOT
BRANCH   1  11
ATOM     11  O   UNL     1       0.796   1.978  18.305  0.00  0.00    +0.000 OA
ATOM     12  H   UNL     1       0.800   1.931  17.335  0.00  0.00    +0.000 HD
ENDBRANCH   1  11
BRANCH   3  13
ATOM     13  N   UNL     1       2.432   5.364  20.871  0.00  0.00    +0.000 NA
ATOM     14  H   UNL     1       2.839   5.398  19.937  0.00  0.00    +0.000 HD
BRANCH  13  15
ATOM     15  C   UNL     1       1.526   6.499  21.032  0.00  0.00    +0.000 C 
BRANCH  15  16
ATOM     16  C   UNL     1       1.717   7.522  19.937  0.00  0.00    +0.000 A 
ATOM     17  C   UNL     1       2.482   7.213  18.806  0.00  0.00    +0.000 A 
ATOM     18  C   UNL     1       2.653   8.153  17.785  0.00  0.00    +0.000 A 
ATOM     19  C   UNL     1       2.058   9.409  17.890  0.00  0.00    +0.000 A 
ATOM     20  C   UNL     1       1.294   9.726  19.011  0.00  0.00    +0.000 A 
ATOM     21  C   UNL     1       1.122   8.786  20.029  0.00  0.00    +0.000 A 
ENDBRANCH  15  16
ENDBRANCH  13  15
ENDBRANCH   3  13
TORSDOF 4
ENDMDL
MODEL 8
REMARK VINA RESULT:      -6.9      1.902      3.307
REMARK  Name = 
REMARK  4 active torsions:
REMARK  status: ('A' for Active; 'I' for Inactive)
REMARK    1  A    between atoms: O_1  and  C_2
REMARK    2  A    between atoms: C_4  and  N_5
REMARK    3  A    between atoms: N_5  and  C_6
REMARK    4  A    between atoms: C_6  and  C_7
REMARK                            x       y       z     vdW  Elec       q    Type
REMARK                         _______ _______ _______ _____ _____    ______ ____
ROOT
ATOM      1  C   UNL     1       5.075   6.562  16.326  0.00  0.00    +0.000 C 
ATOM      2  C   UNL     1       5.582   5.140  16.054  0.00  0.00    +0.000 C 
ATOM      3  C   UNL     1       5.079   3.974  16.921  0.00  0.00    +0.000 C 
ATOM      4  C   UNL     1       5.630   4.101  18.355  0.00  0.00    +0.000 C 
ATOM      5  C   UNL     1       5.123   5.207  19.285  0.00  0.00    +0.000 C 
ATOM      6  C   UNL     1       4.152   6.193  18.715  0.00  0.00    +0.000 A 
ATOM      7  S   UNL     1       2.867   6.731  19.722  0.00  0.00    +0.000 S 
ATOM      8  C   UNL     1       2.234   7.731  18.501  0.00  0.00    +0.000 A 
ATOM      9  C   UNL     1       2.984   7.667  17.352  0.00  0.00    +0.000 A 
ATOM     10  C   UNL     1       4.110   6.777  17.457  0.00  0.00    +0.000 A 
ENDROOT
BRANCH   1  11
ATOM     11  O   UNL     1       6.203   7.428  16.483  0.00  0.00    +0.000 OA
ATOM     12  H   UNL     1       6.004   8.027  17.221  0.00  0.00    +0.000 HD
ENDBRANCH   1  11
BRANCH   3  13
ATOM     13  N   UNL     1       3.641   3.686  16.890  0.00  0.00    +0.000 NA
ATOM     14  H   UNL     1       3.288   3.649  15.934  0.00  0.00    +0.000 HD
BRANCH  13  15
ATOM     15  C   UNL     1       3.273   2.450  17.577  0.00  0.00    +0.000 C 
BRANCH  15  16
ATOM     16  C   UNL     1       2.591   2.730  18.896  0.00  0.00    +0.000 A 
ATOM     17  C   UNL     1       1.335   3.349  18.926  0.00  0.00    +0.000 A 
ATOM     18  C   UNL     1       0.696   3.600  20.143  0.00  0.00    +0.000 A 
ATOM     19  C   UNL     1       1.309   3.232  21.340  0.00  0.00    +0.000 A 
ATOM     20  C   UNL     1       2.557   2.614  21.321  0.00  0.00    +0.000 A 
ATOM     21  C   UNL     1       3.194   2.361  20.105  0.00  0.00    +0.000 A 
ENDBRANCH  15  16
ENDBRANCH  13  15
ENDBRANCH   3  13
TORSDOF 4
ENDMDL
MODEL 9
REMARK VINA RESULT:      -6.9      1.886      3.209
REMARK  Name = 
REMARK  4 active torsions:
REMARK  status: ('A' for Active; 'I' for Inactive)
REMARK    1  A    between atoms: O_1  and  C_2
REMARK    2  A    between atoms: C_4  and  N_5
REMARK    3  A    between atoms: N_5  and  C_6
REMARK    4  A    between atoms: C_6  and  C_7
REMARK                            x       y       z     vdW  Elec       q    Type
REMARK                         _______ _______ _______ _____ _____    ______ ____
ROOT
ATOM      1  C   UNL     1       5.106   6.560  16.339  0.00  0.00    +0.000 C 
ATOM      2  C   UNL     1       5.642   5.142  16.101  0.00  0.00    +0.000 C 
ATOM      3  C   UNL     1       5.141   3.982  16.977  0.00  0.00    +0.000 C 
ATOM      4  C   UNL     1       5.659   4.143  18.420  0.00  0.00    +0.000 C 
ATOM      5  C   UNL     1       5.116   5.255  19.320  0.00  0.00    +0.000 C 
ATOM      6  C   UNL     1       4.141   6.215  18.714  0.00  0.00    +0.000 A 
ATOM      7  S   UNL     1       2.826   6.748  19.685  0.00  0.00    +0.000 S 
ATOM      8  C   UNL     1       2.202   7.716  18.436  0.00  0.00    +0.000 A 
ATOM      9  C   UNL     1       2.976   7.647  17.303  0.00  0.00    +0.000 A 
ATOM     10  C   UNL     1       4.115   6.778  17.446  0.00  0.00    +0.000 A 
ENDROOT
BRANCH   1  11
ATOM     11  O   UNL     1       6.216   7.447  16.503  0.00  0.00    +0.000 OA
ATOM     12  H   UNL     1       5.854   8.334  16.659  0.00  0.00    +0.000 HD
ENDBRANCH   1  11
BRANCH   3  13
ATOM     13  N   UNL     1       3.709   3.670  16.922  0.00  0.00    +0.000 NA
ATOM     14  H   UNL     1       3.374   3.618  15.960  0.00  0.00    +0.000 HD
BRANCH  13  15
ATOM     15  C   UNL     1       3.348   2.434  17.613  0.00  0.00    +0.000 C 
BRANCH  15  16
ATOM     16  C   UNL     1       2.619   2.713  18.906  0.00  0.00    +0.000 A 
ATOM     17  C   UNL     1       3.196   2.368  20.135  0.00  0.00    +0.000 A 
ATOM     18  C   UNL     1       2.530   2.634  21.333  0.00  0.00    +0.000 A 
ATOM     19  C   UNL     1       1.278   3.249  21.312  0.00  0.00    +0.000 A 
ATOM     20  C   UNL     1       0.695   3.596  20.096  0.00  0.00    +0.000 A 
ATOM     21  C   UNL     1       1.363   3.333  18.898  0.00  0.00    +0.000 A 
ENDBRANCH  15  16
ENDBRANCH  13  15
ENDBRANCH   3  13
TORSDOF 4
ENDMDL
