MODEL 1
REMARK VINA RESULT:      -8.5      0.000      0.000
REMARK  Name = 
REMARK  7 active torsions:
REMARK  status: ('A' for Active; 'I' for Inactive)
REMARK    1  A    between atoms: S_2  and  N_4
REMARK    2  A    between atoms: S_2  and  C_22
REMARK    3  A    between atoms: N_4  and  C_5
REMARK    4  A    between atoms: C_5  and  C_6
REMARK    5  A    between atoms: C_6  and  C_7
REMARK    6  A    between atoms: C_7  and  N_8
REMARK    7  A    between atoms: N_11  and  C_12
REMARK                            x       y       z     vdW  Elec       q    Type
REMARK                         _______ _______ _______ _____ _____    ______ ____
ROOT
ATOM      1  C   UNL     1       7.845   8.123  17.590  0.00  0.00    +0.000 C 
ENDROOT
BRANCH   1   2
ATOM      2  N   UNL     1       7.676   6.796  18.191  0.00  0.00    +0.000 NA
ATOM      3  H   UNL     1       8.390   6.496  18.855  0.00  0.00    +0.000 HD
BRANCH   2   5
ATOM      4  O   UNL     1       7.250   6.156  15.790  0.00  0.00    +0.000 OA
ATOM      5  S   UNL     1       7.275   5.556  17.109  0.00  0.00    +0.000 S 
ATOM      6  O   UNL     1       8.081   4.394  17.406  0.00  0.00    +0.000 OA
BRANCH   5   7
ATOM      7  C   UNL     1       5.592   5.199  17.563  0.00  0.00    +0.000 A 
ATOM      8  C   UNL     1       4.658   6.234  17.553  0.00  0.00    +0.000 A 
ATOM      9  C   UNL     1       3.315   5.948  17.794  0.00  0.00    +0.000 A 
ATOM     10  C   UNL     1       2.892   4.633  18.042  0.00  0.00    +0.000 A 
ATOM     11  C   UNL     1       1.533   4.332  18.233  0.00  0.00    +0.000 A 
ATOM     12  C   UNL     1       1.120   3.018  18.454  0.00  0.00    +0.000 A 
ATOM     13  C   UNL     1       2.058   1.993  18.506  0.00  0.00    +0.000 A 
ATOM     14  C   UNL     1       3.415   2.275  18.324  0.00  0.00    +0.000 A 
ATOM     15  C   UNL     1       3.847   3.588  18.077  0.00  0.00    +0.000 A 
ATOM     16  C   UNL     1       5.199   3.883  17.834  0.00  0.00    +0.000 A 
ENDBRANCH   5   7
ENDBRANCH   2   5
ENDBRANCH   1   2
BRANCH   1  17
ATOM     17  C   UNL     1       8.662   9.029  18.499  0.00  0.00    +0.000 C 
BRANCH  17  18
ATOM     18  C   UNL     1       8.506  10.490  18.051  0.00  0.00    +0.000 C 
BRANCH  18  19
ATOM     19  N   UNL     1       9.790  11.208  17.982  0.00  0.00    +0.000 NA
ATOM     20  C   UNL     1       9.617  12.661  17.732  0.00  0.00    +0.000 C 
ATOM     21  C   UNL     1       8.913  13.397  18.885  0.00  0.00    +0.000 C 
ATOM     22  N   UNL     1       9.672  13.197  20.127  0.00  0.00    +0.000 N 
ATOM     23  C   UNL     1       9.983  11.798  20.470  0.00  0.00    +0.000 C 
ATOM     24  C   UNL     1      10.566  11.056  19.238  0.00  0.00    +0.000 C 
BRANCH  22  25
ATOM     25  C   UNL     1      10.078  14.261  20.901  0.00  0.00    +0.000 A 
ATOM     26  C   UNL     1      11.043  15.171  20.439  0.00  0.00    +0.000 A 
ATOM     27  C   UNL     1      11.430  16.281  21.190  0.00  0.00    +0.000 A 
ATOM     28  C   UNL     1      10.868  16.503  22.439  0.00  0.00    +0.000 A 
ATOM     29 CL   UNL     1      11.367  17.911  23.307  0.00  0.00    +0.000 Cl
ATOM     30  C   UNL     1       9.931  15.600  22.942  0.00  0.00    +0.000 A 
ATOM     31 CL   UNL     1       9.195  15.797  24.494  0.00  0.00    +0.000 Cl
ATOM     32  C   UNL     1       9.547  14.491  22.176  0.00  0.00    +0.000 A 
ENDBRANCH  22  25
ENDBRANCH  18  19
ENDBRANCH  17  18
ENDBRANCH   1  17
TORSDOF 7
ENDMDL
MODEL 2
REMARK VINA RESULT:      -8.4      6.214      8.196
REMARK  Name = 
REMARK  7 active torsions:
REMARK  status: ('A' for Active; 'I' for Inactive)
REMARK    1  A    between atoms: S_2  and  N_4
REMARK    2  A    between atoms: S_2  and  C_22
REMARK    3  A    between atoms: N_4  and  C_5
REMARK    4  A    between atoms: C_5  and  C_6
REMARK    5  A    between atoms: C_6  and  C_7
REMARK    6  A    between atoms: C_7  and  N_8
REMARK    7  A    between atoms: N_11  and  C_12
REMARK                            x       y       z     vdW  Elec       q    Type
REMARK                         _______ _______ _______ _____ _____    ______ ____
ROOT
ATOM      1  C   UNL     1       1.046   3.637  20.100  0.00  0.00    +0.000 C 
ENDROOT
BRANCH   1   2
ATOM      2  N   UNL     1       1.711   3.187  18.873  0.00  0.00    +0.000 NA
ATOM      3  H   UNL     1       1.150   2.646  18.216  0.00  0.00    +0.000 HD
BRANCH   2   5
ATOM      4  O   UNL     1       3.489   2.487  20.519  0.00  0.00    +0.000 OA
ATOM      5  S   UNL     1       3.245   2.501  19.091  0.00  0.00    +0.000 S 
ATOM      6  O   UNL     1       3.342   1.305  18.285  0.00  0.00    +0.000 OA
BRANCH   5   7
ATOM      7  C   UNL     1       4.307   3.739  18.381  0.00  0.00    +0.000 A 
ATOM      8  C   UNL     1       3.943   4.326  17.170  0.00  0.00    +0.000 A 
ATOM      9  C   UNL     1       4.703   5.377  16.661  0.00  0.00    +0.000 A 
ATOM     10  C   UNL     1       5.827   5.855  17.353  0.00  0.00    +0.000 A 
ATOM     11  C   UNL     1       6.564   6.949  16.871  0.00  0.00    +0.000 A 
ATOM     12  C   UNL     1       7.665   7.432  17.579  0.00  0.00    +0.000 A 
ATOM     13  C   UNL     1       8.052   6.819  18.766  0.00  0.00    +0.000 A 
ATOM     14  C   UNL     1       7.333   5.727  19.257  0.00  0.00    +0.000 A 
ATOM     15  C   UNL     1       6.209   5.240  18.571  0.00  0.00    +0.000 A 
ATOM     16  C   UNL     1       5.439   4.181  19.078  0.00  0.00    +0.000 A 
ENDBRANCH   5   7
ENDBRANCH   2   5
ENDBRANCH   1   2
BRANCH   1  17
ATOM     17  C   UNL     1       1.635   4.955  20.582  0.00  0.00    +0.000 C 
BRANCH  17  18
ATOM     18  C   UNL     1       1.541   6.004  19.464  0.00  0.00    +0.000 C 
BRANCH  18  19
ATOM     19  N   UNL     1       2.475   7.127  19.653  0.00  0.00    +0.000 NA
ATOM     20  C   UNL     1       2.637   7.946  18.425  0.00  0.00    +0.000 C 
ATOM     21  C   UNL     1       1.351   8.681  18.010  0.00  0.00    +0.000 C 
ATOM     22  N   UNL     1       0.897   9.535  19.116  0.00  0.00    +0.000 N 
ATOM     23  C   UNL     1       0.759   8.871  20.424  0.00  0.00    +0.000 C 
ATOM     24  C   UNL     1       2.025   8.031  20.741  0.00  0.00    +0.000 C 
BRANCH  22  25
ATOM     25  C   UNL     1       0.643  10.875  18.931  0.00  0.00    +0.000 A 
ATOM     26  C   UNL     1      -0.662  11.388  19.020  0.00  0.00    +0.000 A 
ATOM     27  C   UNL     1      -0.930  12.750  18.883  0.00  0.00    +0.000 A 
ATOM     28  C   UNL     1       0.106  13.640  18.640  0.00  0.00    +0.000 A 
ATOM     29 CL   UNL     1      -0.287  15.317  18.510  0.00  0.00    +0.000 Cl
ATOM     30  C   UNL     1       1.410  13.160  18.514  0.00  0.00    +0.000 A 
ATOM     31 CL   UNL     1       2.754  14.200  18.196  0.00  0.00    +0.000 Cl
ATOM     32  C   UNL     1       1.668  11.790  18.656  0.00  0.00    +0.000 A 
ENDBRANCH  22  25
ENDBRANCH  18  19
ENDBRANCH  17  18
ENDBRANCH   1  17
TORSDOF 7
ENDMDL
MODEL 3
REMARK VINA RESULT:      -8.4      6.950      7.911
REMARK  Name = 
REMARK  7 active torsions:
REMARK  status: ('A' for Active; 'I' for Inactive)
REMARK    1  A    between atoms: S_2  and  N_4
REMARK    2  A    between atoms: S_2  and  C_22
REMARK    3  A    between atoms: N_4  and  C_5
REMARK    4  A    between atoms: C_5  and  C_6
REMARK    5  A    between atoms: C_6  and  C_7
REMARK    6  A    between atoms: C_7  and  N_8
REMARK    7  A    between atoms: N_11  and  C_12
REMARK                            x       y       z     vdW  Elec       q    Type
REMARK                         _______ _______ _______ _____ _____    ______ ____
ROOT
ATOM      1  C   UNL     1       5.596   6.973  16.916  0.00  0.00    +0.000 C 
ENDROOT
BRANCH   1   2
ATOM      2  N   UNL     1       5.835   6.203  15.690  0.00  0.00    +0.000 NA
ATOM      3  H   UNL     1       5.141   6.289  14.949  0.00  0.00    +0.000 HD
BRANCH   2   5
ATOM      4  O   UNL     1       5.884   3.868  14.739  0.00  0.00    +0.000 OA
ATOM      5  S   UNL     1       6.294   4.590  15.926  0.00  0.00    +0.000 S 
ATOM      6  O   UNL     1       7.655   4.556  16.412  0.00  0.00    +0.000 OA
BRANCH   5   7
ATOM      7  C   UNL     1       5.217   4.090  17.251  0.00  0.00    +0.000 A 
ATOM      8  C   UNL     1       5.704   4.106  18.558  0.00  0.00    +0.000 A 
ATOM      9  C   UNL     1       4.841   3.829  19.616  0.00  0.00    +0.000 A 
ATOM     10  C   UNL     1       3.487   3.538  19.383  0.00  0.00    +0.000 A 
ATOM     11  C   UNL     1       2.601   3.311  20.449  0.00  0.00    +0.000 A 
ATOM     12  C   UNL     1       1.252   3.047  20.208  0.00  0.00    +0.000 A 
ATOM     13  C   UNL     1       0.777   2.990  18.902  0.00  0.00    +0.000 A 
ATOM     14  C   UNL     1       1.645   3.209  17.830  0.00  0.00    +0.000 A 
ATOM     15  C   UNL     1       3.001   3.498  18.053  0.00  0.00    +0.000 A 
ATOM     16  C   UNL     1       3.877   3.777  16.992  0.00  0.00    +0.000 A 
ENDBRANCH   5   7
ENDBRANCH   2   5
ENDBRANCH   1   2
BRANCH   1  17
ATOM     17  C   UNL     1       4.140   7.404  17.009  0.00  0.00    +0.000 C 
BRANCH  17  18
ATOM     18  C   UNL     1       3.633   7.208  18.446  0.00  0.00    +0.000 C 
BRANCH  18  19
ATOM     19  N   UNL     1       2.177   6.999  18.516  0.00  0.00    +0.000 NA
ATOM     20  C   UNL     1       1.696   6.796  19.906  0.00  0.00    +0.000 C 
ATOM     21  C   UNL     1       1.873   8.036  20.798  0.00  0.00    +0.000 C 
ATOM     22  N   UNL     1       1.170   9.176  20.196  0.00  0.00    +0.000 N 
ATOM     23  C   UNL     1       1.493   9.456  18.786  0.00  0.00    +0.000 C 
ATOM     24  C   UNL     1       1.434   8.152  17.947  0.00  0.00    +0.000 C 
BRANCH  22  25
ATOM     25  C   UNL     1       0.252   9.913  20.909  0.00  0.00    +0.000 A 
ATOM     26  C   UNL     1       0.031   9.676  22.276  0.00  0.00    +0.000 A 
ATOM     27  C   UNL     1      -0.861  10.446  23.024  0.00  0.00    +0.000 A 
ATOM     28  C   UNL     1      -1.569  11.472  22.416  0.00  0.00    +0.000 A 
ATOM     29 CL   UNL     1      -2.635  12.407  23.402  0.00  0.00    +0.000 Cl
ATOM     30  C   UNL     1      -1.398  11.713  21.053  0.00  0.00    +0.000 A 
ATOM     31 CL   UNL     1      -2.254  12.962  20.218  0.00  0.00    +0.000 Cl
ATOM     32  C   UNL     1      -0.497  10.935  20.313  0.00  0.00    +0.000 A 
ENDBRANCH  22  25
ENDBRANCH  18  19
ENDBRANCH  17  18
ENDBRANCH   1  17
TORSDOF 7
ENDMDL
MODEL 4
REMARK VINA RESULT:      -8.3      7.790      9.295
REMARK  Name = 
REMARK  7 active torsions:
REMARK  status: ('A' for Active; 'I' for Inactive)
REMARK    1  A    between atoms: S_2  and  N_4
REMARK    2  A    between atoms: S_2  and  C_22
REMARK    3  A    between atoms: N_4  and  C_5
REMARK    4  A    between atoms: C_5  and  C_6
REMARK    5  A    between atoms: C_6  and  C_7
REMARK    6  A    between atoms: C_7  and  N_8
REMARK    7  A    between atoms: N_11  and  C_12
REMARK                            x       y       z     vdW  Elec       q    Type
REMARK                         _______ _______ _______ _____ _____    ______ ____
ROOT
ATOM      1  C   UNL     1       1.432   6.137  20.389  0.00  0.00    +0.000 C 
ENDROOT
BRANCH   1   2
ATOM      2  N   UNL     1       2.359   5.180  21.004  0.00  0.00    +0.000 NA
ATOM      3  H   UNL     1       3.217   5.560  21.401  0.00  0.00    +0.000 HD
BRANCH   2   5
ATOM      4  O   UNL     1       3.259   2.825  21.008  0.00  0.00    +0.000 OA
ATOM      5  S   UNL     1       2.659   3.780  20.099  0.00  0.00    +0.000 S 
ATOM      6  O   UNL     1       1.484   3.463  19.320  0.00  0.00    +0.000 OA
BRANCH   5   7
ATOM      7  C   UNL     1       3.934   4.327  18.985  0.00  0.00    +0.000 A 
ATOM      8  C   UNL     1       5.012   5.050  19.497  0.00  0.00    +0.000 A 
ATOM      9  C   UNL     1       6.073   5.385  18.659  0.00  0.00    +0.000 A 
ATOM     10  C   UNL     1       6.074   5.001  17.309  0.00  0.00    +0.000 A 
ATOM     11  C   UNL     1       7.167   5.290  16.474  0.00  0.00    +0.000 A 
ATOM     12  C   UNL     1       7.169   4.882  15.140  0.00  0.00    +0.000 A 
ATOM     13  C   UNL     1       6.076   4.197  14.620  0.00  0.00    +0.000 A 
ATOM     14  C   UNL     1       4.979   3.906  15.435  0.00  0.00    +0.000 A 
ATOM     15  C   UNL     1       4.968   4.288  16.786  0.00  0.00    +0.000 A 
ATOM     16  C   UNL     1       3.901   3.955  17.636  0.00  0.00    +0.000 A 
ENDBRANCH   5   7
ENDBRANCH   2   5
ENDBRANCH   1   2
BRANCH   1  17
ATOM     17  C   UNL     1       2.110   7.481  20.168  0.00  0.00    +0.000 C 
BRANCH  17  18
ATOM     18  C   UNL     1       1.520   8.523  21.130  0.00  0.00    +0.000 C 
BRANCH  18  19
ATOM     19  N   UNL     1       0.073   8.723  20.939  0.00  0.00    +0.000 NA
ATOM     20  C   UNL     1      -0.677   8.722  22.220  0.00  0.00    +0.000 C 
ATOM     21  C   UNL     1      -0.319   9.905  23.136  0.00  0.00    +0.000 C 
ATOM     22  N   UNL     1      -0.565  11.165  22.423  0.00  0.00    +0.000 N 
ATOM     23  C   UNL     1       0.061  11.283  21.094  0.00  0.00    +0.000 C 
ATOM     24  C   UNL     1      -0.212  10.009  20.253  0.00  0.00    +0.000 C 
BRANCH  22  25
ATOM     25  C   UNL     1      -1.351  12.157  22.965  0.00  0.00    +0.000 A 
ATOM     26  C   UNL     1      -0.906  13.487  23.030  0.00  0.00    +0.000 A 
ATOM     27  C   UNL     1      -1.709  14.511  23.533  0.00  0.00    +0.000 A 
ATOM     28  C   UNL     1      -2.984  14.226  23.999  0.00  0.00    +0.000 A 
ATOM     29 CL   UNL     1      -3.940  15.542  24.580  0.00  0.00    +0.000 Cl
ATOM     30  C   UNL     1      -3.446  12.910  23.979  0.00  0.00    +0.000 A 
ATOM     31 CL   UNL     1      -5.016  12.470  24.555  0.00  0.00    +0.000 Cl
ATOM     32  C   UNL     1      -2.631  11.891  23.469  0.00  0.00    +0.000 A 
ENDBRANCH  22  25
ENDBRANCH  18  19
ENDBRANCH  17  18
ENDBRANCH   1  17
TORSDOF 7
ENDMDL
MODEL 5
REMARK VINA RESULT:      -8.1      7.989      9.396
REMARK  Name = 
REMARK  7 active torsions:
REMARK  status: ('A' for Active; 'I' for Inactive)
REMARK    1  A    between atoms: S_2  and  N_4
REMARK    2  A    between atoms: S_2  and  C_22
REMARK    3  A    between atoms: N_4  and  C_5
REMARK    4  A    between atoms: C_5  and  C_6
REMARK    5  A    between atoms: C_6  and  C_7
REMARK    6  A    between atoms: C_7  and  N_8
REMARK    7  A    between atoms: N_11  and  C_12
REMARK                            x       y       z     vdW  Elec       q    Type
REMARK                         _______ _______ _______ _____ _____    ______ ____
ROOT
ATOM      1  C   UNL     1       2.418   6.760  19.856  0.00  0.00    +0.000 C 
ENDROOT
BRANCH   1   2
ATOM      2  N   UNL     1       1.392   5.892  20.445  0.00  0.00    +0.000 NA
ATOM      3  H   UNL     1       0.951   6.217  21.305  0.00  0.00    +0.000 HD
BRANCH   2   5
ATOM      4  O   UNL     1       2.561   4.085  21.757  0.00  0.00    +0.000 OA
ATOM      5  S   UNL     1       1.799   4.251  20.537  0.00  0.00    +0.000 S 
ATOM      6  O   UNL     1       0.622   3.459  20.255  0.00  0.00    +0.000 OA
BRANCH   5   7
ATOM      7  C   UNL     1       2.929   4.073  19.174  0.00  0.00    +0.000 A 
ATOM      8  C   UNL     1       2.425   3.728  17.921  0.00  0.00    +0.000 A 
ATOM      9  C   UNL     1       3.280   3.699  16.821  0.00  0.00    +0.000 A 
ATOM     10  C   UNL     1       4.641   4.016  16.959  0.00  0.00    +0.000 A 
ATOM     11  C   UNL     1       5.496   4.040  15.845  0.00  0.00    +0.000 A 
ATOM     12  C   UNL     1       6.841   4.381  15.988  0.00  0.00    +0.000 A 
ATOM     13  C   UNL     1       7.352   4.684  17.245  0.00  0.00    +0.000 A 
ATOM     14  C   UNL     1       6.517   4.661  18.365  0.00  0.00    +0.000 A 
ATOM     15  C   UNL     1       5.155   4.342  18.238  0.00  0.00    +0.000 A 
ATOM     16  C   UNL     1       4.288   4.369  19.342  0.00  0.00    +0.000 A 
ENDBRANCH   5   7
ENDBRANCH   2   5
ENDBRANCH   1   2
BRANCH   1  17
ATOM     17  C   UNL     1       1.900   8.182  19.701  0.00  0.00    +0.000 C 
BRANCH  17  18
ATOM     18  C   UNL     1       1.336   8.677  21.041  0.00  0.00    +0.000 C 
BRANCH  18  19
ATOM     19  N   UNL     1      -0.133   8.775  21.043  0.00  0.00    +0.000 NA
ATOM     20  C   UNL     1      -0.700   8.830  22.415  0.00  0.00    +0.000 C 
ATOM     21  C   UNL     1      -0.304  10.102  23.185  0.00  0.00    +0.000 C 
ATOM     22  N   UNL     1      -0.732  11.285  22.427  0.00  0.00    +0.000 N 
ATOM     23  C   UNL     1      -0.303  11.334  21.019  0.00  0.00    +0.000 C 
ATOM     24  C   UNL     1      -0.599   9.983  20.316  0.00  0.00    +0.000 C 
BRANCH  22  25
ATOM     25  C   UNL     1      -1.505  12.268  23.004  0.00  0.00    +0.000 A 
ATOM     26  C   UNL     1      -1.013  13.571  23.183  0.00  0.00    +0.000 A 
ATOM     27  C   UNL     1      -1.799  14.590  23.722  0.00  0.00    +0.000 A 
ATOM     28  C   UNL     1      -3.104  14.326  24.111  0.00  0.00    +0.000 A 
ATOM     29 CL   UNL     1      -4.036  15.636  24.743  0.00  0.00    +0.000 Cl
ATOM     30  C   UNL     1      -3.614  13.034  23.978  0.00  0.00    +0.000 A 
ATOM     31 CL   UNL     1      -5.224  12.619  24.454  0.00  0.00    +0.000 Cl
ATOM     32  C   UNL     1      -2.816  12.020  23.432  0.00  0.00    +0.000 A 
ENDBRANCH  22  25
ENDBRANCH  18  19
ENDBRANCH  17  18
ENDBRANCH   1  17
TORSDOF 7
ENDMDL
MODEL 6
REMARK VINA RESULT:      -8.1      6.959      7.896
REMARK  Name = 
REMARK  7 active torsions:
REMARK  status: ('A' for Active; 'I' for Inactive)
REMARK    1  A    between atoms: S_2  and  N_4
REMARK    2  A    between atoms: S_2  and  C_22
REMARK    3  A    between atoms: N_4  and  C_5
REMARK    4  A    between atoms: C_5  and  C_6
REMARK    5  A    between atoms: C_6  and  C_7
REMARK    6  A    between atoms: C_7  and  N_8
REMARK    7  A    between atoms: N_11  and  C_12
REMARK                            x       y       z     vdW  Elec       q    Type
REMARK                         _______ _______ _______ _____ _____    ______ ____
ROOT
ATOM      1  C   UNL     1       5.717   6.932  16.872  0.00  0.00    +0.000 C 
ENDROOT
BRANCH   1   2
ATOM      2  N   UNL     1       5.890   5.838  15.910  0.00  0.00    +0.000 NA
ATOM      3  H   UNL     1       5.235   5.802  15.130  0.00  0.00    +0.000 HD
BRANCH   2   5
ATOM      4  O   UNL     1       6.170   3.367  15.488  0.00  0.00    +0.000 OA
ATOM      5  S   UNL     1       6.129   4.306  16.591  0.00  0.00    +0.000 S 
ATOM      6  O   UNL     1       7.192   4.387  17.567  0.00  0.00    +0.000 OA
BRANCH   5   7
ATOM      7  C   UNL     1       4.597   4.043  17.457  0.00  0.00    +0.000 A 
ATOM      8  C   UNL     1       3.427   3.868  16.718  0.00  0.00    +0.000 A 
ATOM      9  C   UNL     1       2.242   3.547  17.376  0.00  0.00    +0.000 A 
ATOM     10  C   UNL     1       2.211   3.394  18.771  0.00  0.00    +0.000 A 
ATOM     11  C   UNL     1       1.031   3.018  19.433  0.00  0.00    +0.000 A 
ATOM     12  C   UNL     1       1.016   2.843  20.817  0.00  0.00    +0.000 A 
ATOM     13  C   UNL     1       2.174   3.059  21.557  0.00  0.00    +0.000 A 
ATOM     14  C   UNL     1       3.355   3.438  20.915  0.00  0.00    +0.000 A 
ATOM     15  C   UNL     1       3.395   3.596  19.521  0.00  0.00    +0.000 A 
ATOM     16  C   UNL     1       4.586   3.921  18.851  0.00  0.00    +0.000 A 
ENDBRANCH   5   7
ENDBRANCH   2   5
ENDBRANCH   1   2
BRANCH   1  17
ATOM     17  C   UNL     1       4.280   7.433  16.868  0.00  0.00    +0.000 C 
BRANCH  17  18
ATOM     18  C   UNL     1       3.717   7.400  18.297  0.00  0.00    +0.000 C 
BRANCH  18  19
ATOM     19  N   UNL     1       2.261   7.183  18.332  0.00  0.00    +0.000 NA
ATOM     20  C   UNL     1       1.763   6.877  19.698  0.00  0.00    +0.000 C 
ATOM     21  C   UNL     1       1.925   8.048  20.681  0.00  0.00    +0.000 C 
ATOM     22  N   UNL     1       1.226   9.228  20.155  0.00  0.00    +0.000 N 
ATOM     23  C   UNL     1       1.566   9.612  18.774  0.00  0.00    +0.000 C 
ATOM     24  C   UNL     1       1.521   8.373  17.841  0.00  0.00    +0.000 C 
BRANCH  22  25
ATOM     25  C   UNL     1       0.296   9.909  20.909  0.00  0.00    +0.000 A 
ATOM     26  C   UNL     1       0.088   9.598  22.262  0.00  0.00    +0.000 A 
ATOM     27  C   UNL     1      -0.816  10.310  23.053  0.00  0.00    +0.000 A 
ATOM     28  C   UNL     1      -1.548  11.351  22.501  0.00  0.00    +0.000 A 
ATOM     29 CL   UNL     1      -2.627  12.213  23.538  0.00  0.00    +0.000 Cl
ATOM     30  C   UNL     1      -1.389  11.665  21.151  0.00  0.00    +0.000 A 
ATOM     31 CL   UNL     1      -2.274  12.937  20.385  0.00  0.00    +0.000 Cl
ATOM     32  C   UNL     1      -0.476  10.945  20.368  0.00  0.00    +0.000 A 
ENDBRANCH  22  25
ENDBRANCH  18  19
ENDBRANCH  17  18
ENDBRANCH   1  17
TORSDOF 7
ENDMDL
MODEL 7
REMARK VINA RESULT:      -8.1      6.358      8.222
REMARK  Name = 
REMARK  7 active torsions:
REMARK  status: ('A' for Active; 'I' for Inactive)
REMARK    1  A    between atoms: S_2  and  N_4
REMARK    2  A    between atoms: S_2  and  C_22
REMARK    3  A    between atoms: N_4  and  C_5
REMARK    4  A    between atoms: C_5  and  C_6
REMARK    5  A    between atoms: C_6  and  C_7
REMARK    6  A    between atoms: C_7  and  N_8
REMARK    7  A    between atoms: N_11  and  C_12
REMARK                            x       y       z     vdW  Elec       q    Type
REMARK                         _______ _______ _______ _____ _____    ______ ____
ROOT
ATOM      1  C   UNL     1       2.290   4.005  20.713  0.00  0.00    +0.000 C 
ENDROOT
BRANCH   1   2
ATOM      2  N   UNL     1       2.242   3.061  19.591  0.00  0.00    +0.000 NA
ATOM      3  H   UNL     1       1.475   2.389  19.586  0.00  0.00    +0.000 HD
BRANCH   2   5
ATOM      4  O   UNL     1       4.371   2.027  20.460  0.00  0.00    +0.000 OA
ATOM      5  S   UNL     1       3.716   2.323  19.202  0.00  0.00    +0.000 S 
ATOM      6  O   UNL     1       3.483   1.307  18.201  0.00  0.00    +0.000 OA
BRANCH   5   7
ATOM      7  C   UNL     1       4.609   3.661  18.440  0.00  0.00    +0.000 A 
ATOM      8  C   UNL     1       4.101   4.231  17.273  0.00  0.00    +0.000 A 
ATOM      9  C   UNL     1       4.725   5.353  16.730  0.00  0.00    +0.000 A 
ATOM     10  C   UNL     1       5.854   5.917  17.344  0.00  0.00    +0.000 A 
ATOM     11  C   UNL     1       6.454   7.078  16.830  0.00  0.00    +0.000 A 
ATOM     12  C   UNL     1       7.561   7.646  17.462  0.00  0.00    +0.000 A 
ATOM     13  C   UNL     1       8.092   7.052  18.602  0.00  0.00    +0.000 A 
ATOM     14  C   UNL     1       7.510   5.894  19.123  0.00  0.00    +0.000 A 
ATOM     15  C   UNL     1       6.382   5.321  18.515  0.00  0.00    +0.000 A 
ATOM     16  C   UNL     1       5.749   4.190  19.056  0.00  0.00    +0.000 A 
ENDBRANCH   5   7
ENDBRANCH   2   5
ENDBRANCH   1   2
BRANCH   1  17
ATOM     17  C   UNL     1       1.287   5.132  20.515  0.00  0.00    +0.000 C 
BRANCH  17  18
ATOM     18  C   UNL     1       1.642   5.925  19.248  0.00  0.00    +0.000 C 
BRANCH  18  19
ATOM     19  N   UNL     1       2.574   7.034  19.510  0.00  0.00    +0.000 NA
ATOM     20  C   UNL     1       2.702   7.956  18.353  0.00  0.00    +0.000 C 
ATOM     21  C   UNL     1       1.402   8.714  18.034  0.00  0.00    +0.000 C 
ATOM     22  N   UNL     1       0.972   9.467  19.219  0.00  0.00    +0.000 N 
ATOM     23  C   UNL     1       0.869   8.693  20.469  0.00  0.00    +0.000 C 
ATOM     24  C   UNL     1       2.148   7.839  20.682  0.00  0.00    +0.000 C 
BRANCH  22  25
ATOM     25  C   UNL     1       0.705  10.817  19.157  0.00  0.00    +0.000 A 
ATOM     26  C   UNL     1       1.628  11.716  18.599  0.00  0.00    +0.000 A 
ATOM     27  C   UNL     1       1.354  13.079  18.484  0.00  0.00    +0.000 A 
ATOM     28  C   UNL     1       0.145  13.583  18.941  0.00  0.00    +0.000 A 
ATOM     29 CL   UNL     1      -0.148  15.274  18.743  0.00  0.00    +0.000 Cl
ATOM     30  C   UNL     1      -0.782  12.723  19.530  0.00  0.00    +0.000 A 
ATOM     31 CL   UNL     1      -2.304  13.274  20.136  0.00  0.00    +0.000 Cl
ATOM     32  C   UNL     1      -0.496  11.355  19.636  0.00  0.00    +0.000 A 
ENDBRANCH  22  25
ENDBRANCH  18  19
ENDBRANCH  17  18
ENDBRANCH   1  17
TORSDOF 7
ENDMDL
MODEL 8
REMARK VINA RESULT:      -8.0      7.490      9.378
REMARK  Name = 
REMARK  7 active torsions:
REMARK  status: ('A' for Active; 'I' for Inactive)
REMARK    1  A    between atoms: S_2  and  N_4
REMARK    2  A    between atoms: S_2  and  C_22
REMARK    3  A    between atoms: N_4  and  C_5
REMARK    4  A    between atoms: C_5  and  C_6
REMARK    5  A    between atoms: C_6  and  C_7
REMARK    6  A    between atoms: C_7  and  N_8
REMARK    7  A    between atoms: N_11  and  C_12
REMARK                            x       y       z     vdW  Elec       q    Type
REMARK                         _______ _______ _______ _____ _____    ______ ____
ROOT
ATOM      1  C   UNL     1       1.444   6.230  20.408  0.00  0.00    +0.000 C 
ENDROOT
BRANCH   1   2
ATOM      2  N   UNL     1       2.164   5.298  21.283  0.00  0.00    +0.000 NA
ATOM      3  H   UNL     1       3.106   5.566  21.567  0.00  0.00    +0.000 HD
BRANCH   2   5
ATOM      4  O   UNL     1       2.788   2.921  21.847  0.00  0.00    +0.000 OA
ATOM      5  S   UNL     1       2.094   3.670  20.819  0.00  0.00    +0.000 S 
ATOM      6  O   UNL     1       0.741   3.353  20.421  0.00  0.00    +0.000 OA
BRANCH   5   7
ATOM      7  C   UNL     1       3.121   3.656  19.366  0.00  0.00    +0.000 A 
ATOM      8  C   UNL     1       2.546   3.325  18.139  0.00  0.00    +0.000 A 
ATOM      9  C   UNL     1       3.308   3.421  16.976  0.00  0.00    +0.000 A 
ATOM     10  C   UNL     1       4.644   3.851  17.025  0.00  0.00    +0.000 A 
ATOM     11  C   UNL     1       5.400   4.001  15.850  0.00  0.00    +0.000 A 
ATOM     12  C   UNL     1       6.719   4.452  15.906  0.00  0.00    +0.000 A 
ATOM     13  C   UNL     1       7.304   4.741  17.135  0.00  0.00    +0.000 A 
ATOM     14  C   UNL     1       6.568   4.593  18.313  0.00  0.00    +0.000 A 
ATOM     15  C   UNL     1       5.232   4.162  18.275  0.00  0.00    +0.000 A 
ATOM     16  C   UNL     1       4.458   4.062  19.443  0.00  0.00    +0.000 A 
ENDBRANCH   5   7
ENDBRANCH   2   5
ENDBRANCH   1   2
BRANCH   1  17
ATOM     17  C   UNL     1       1.918   7.658  20.632  0.00  0.00    +0.000 C 
BRANCH  17  18
ATOM     18  C   UNL     1       0.741   8.527  21.098  0.00  0.00    +0.000 C 
BRANCH  18  19
ATOM     19  N   UNL     1       1.163   9.659  21.941  0.00  0.00    +0.000 NA
ATOM     20  C   UNL     1       0.946  10.972  21.283  0.00  0.00    +0.000 C 
ATOM     21  C   UNL     1      -0.540  11.297  21.051  0.00  0.00    +0.000 C 
ATOM     22  N   UNL     1      -1.253  11.266  22.334  0.00  0.00    +0.000 N 
ATOM     23  C   UNL     1      -1.071  10.044  23.139  0.00  0.00    +0.000 C 
ATOM     24  C   UNL     1       0.433   9.677  23.233  0.00  0.00    +0.000 C 
BRANCH  22  25
ATOM     25  C   UNL     1      -2.021  12.327  22.757  0.00  0.00    +0.000 A 
ATOM     26  C   UNL     1      -3.094  12.143  23.644  0.00  0.00    +0.000 A 
ATOM     27  C   UNL     1      -3.852  13.214  24.119  0.00  0.00    +0.000 A 
ATOM     28  C   UNL     1      -3.561  14.506  23.705  0.00  0.00    +0.000 A 
ATOM     29 CL   UNL     1      -4.516  15.792  24.351  0.00  0.00    +0.000 Cl
ATOM     30  C   UNL     1      -2.522  14.721  22.799  0.00  0.00    +0.000 A 
ATOM     31 CL   UNL     1      -2.106  16.297  22.222  0.00  0.00    +0.000 Cl
ATOM     32  C   UNL     1      -1.766  13.637  22.331  0.00  0.00    +0.000 A 
ENDBRANCH  22  25
ENDBRANCH  18  19
ENDBRANCH  17  18
ENDBRANCH   1  17
TORSDOF 7
ENDMDL
MODEL 9
REMARK VINA RESULT:      -8.0      1.496      1.894
REMARK  Name = 
REMARK  7 active torsions:
REMARK  status: ('A' for Active; 'I' for Inactive)
REMARK    1  A    between atoms: S_2  and  N_4
REMARK    2  A    between atoms: S_2  and  C_22
REMARK    3  A    between atoms: N_4  and  C_5
REMARK    4  A    between atoms: C_5  and  C_6
REMARK    5  A    between atoms: C_6  and  C_7
REMARK    6  A    between atoms: C_7  and  N_8
REMARK    7  A    between atoms: N_11  and  C_12
REMARK                            x       y       z     vdW  Elec       q    Type
REMARK                         _______ _______ _______ _____ _____    ______ ____
ROOT
ATOM      1  C   UNL     1       7.360   7.835  17.840  0.00  0.00    +0.000 C 
ENDROOT
BRANCH   1   2
ATOM      2  N   UNL     1       7.762   6.548  17.263  0.00  0.00    +0.000 NA
ATOM      3  H   UNL     1       7.426   6.338  16.324  0.00  0.00    +0.000 HD
BRANCH   2   5
ATOM      4  O   UNL     1       8.320   4.122  17.665  0.00  0.00    +0.000 OA
ATOM      5  S   UNL     1       7.601   5.212  18.293  0.00  0.00    +0.000 S 
ATOM      6  O   UNL     1       7.875   5.630  19.649  0.00  0.00    +0.000 OA
BRANCH   5   7
ATOM      7  C   UNL     1       5.864   4.851  18.160  0.00  0.00    +0.000 A 
ATOM      8  C   UNL     1       5.386   4.262  16.991  0.00  0.00    +0.000 A 
ATOM      9  C   UNL     1       4.051   3.868  16.916  0.00  0.00    +0.000 A 
ATOM     10  C   UNL     1       3.185   4.053  18.005  0.00  0.00    +0.000 A 
ATOM     11  C   UNL     1       1.853   3.608  17.955  0.00  0.00    +0.000 A 
ATOM     12  C   UNL     1       1.006   3.774  19.052  0.00  0.00    +0.000 A 
ATOM     13  C   UNL     1       1.473   4.400  20.202  0.00  0.00    +0.000 A 
ATOM     14  C   UNL     1       2.793   4.852  20.268  0.00  0.00    +0.000 A 
ATOM     15  C   UNL     1       3.667   4.674  19.183  0.00  0.00    +0.000 A 
ATOM     16  C   UNL     1       5.013   5.069  19.250  0.00  0.00    +0.000 A 
ENDBRANCH   5   7
ENDBRANCH   2   5
ENDBRANCH   1   2
BRANCH   1  17
ATOM     17  C   UNL     1       8.562   8.569  18.418  0.00  0.00    +0.000 C 
BRANCH  17  18
ATOM     18  C   UNL     1       8.536  10.038  17.971  0.00  0.00    +0.000 C 
BRANCH  18  19
ATOM     19  N   UNL     1       9.748  10.777  18.364  0.00  0.00    +0.000 NA
ATOM     20  C   UNL     1       9.831  12.115  17.726  0.00  0.00    +0.000 C 
ATOM     21  C   UNL     1       8.721  13.077  18.183  0.00  0.00    +0.000 C 
ATOM     22  N   UNL     1       8.772  13.223  19.644  0.00  0.00    +0.000 N 
ATOM     23  C   UNL     1       8.770  11.967  20.414  0.00  0.00    +0.000 C 
ATOM     24  C   UNL     1       9.812  10.974  19.833  0.00  0.00    +0.000 C 
BRANCH  22  25
ATOM     25  C   UNL     1       8.840  14.462  20.241  0.00  0.00    +0.000 A 
ATOM     26  C   UNL     1       7.839  15.425  20.036  0.00  0.00    +0.000 A 
ATOM     27  C   UNL     1       7.869  16.667  20.671  0.00  0.00    +0.000 A 
ATOM     28  C   UNL     1       8.916  16.984  21.524  0.00  0.00    +0.000 A 
ATOM     29 CL   UNL     1       8.880  18.525  22.304  0.00  0.00    +0.000 Cl
ATOM     30  C   UNL     1       9.944  16.063  21.725  0.00  0.00    +0.000 A 
ATOM     31 CL   UNL     1      11.290  16.387  22.760  0.00  0.00    +0.000 Cl
ATOM     32  C   UNL     1       9.901  14.817  21.084  0.00  0.00    +0.000 A 
ENDBRANCH  22  25
ENDBRANCH  18  19
ENDBRANCH  17  18
ENDBRANCH   1  17
TORSDOF 7
ENDMDL
