MODEL 1
REMARK VINA RESULT:      -8.3      0.000      0.000
REMARK  Name = 
REMARK  7 active torsions:
REMARK  status: ('A' for Active; 'I' for Inactive)
REMARK    1  A    between atoms: C_1  and  C_2
REMARK    2  A    between atoms: C_2  and  N_3
REMARK    3  A    between atoms: C_2  and  C_19
REMARK    4  A    between atoms: C_4  and  C_6
REMARK    5  A    between atoms: C_6  and  N_7
REMARK    6  A    between atoms: C_22  and  S_23
REMARK    7  A    between atoms: S_23  and  N_24
REMARK                            x       y       z     vdW  Elec       q    Type
REMARK                         _______ _______ _______ _____ _____    ______ ____
ROOT
ATOM      1  N   UNL     1       4.036   6.276  19.044  0.00  0.00    +0.000 N 
ATOM      2  C   UNL     1       5.074   5.372  18.985  0.00  0.00    +0.000 C 
ATOM      3  O   UNL     1       4.968   4.203  19.352  0.00  0.00    +0.000 OA
ATOM      4  H   UNL     1       4.160   7.200  18.644  0.00  0.00    +0.000 HD
ENDROOT
BRANCH   1   6
ATOM      5  C   UNL     1       1.941   5.031  18.720  0.00  0.00    +0.000 C 
ATOM      6  C   UNL     1       2.748   5.947  19.637  0.00  0.00    +0.000 C 
BRANCH   6   7
ATOM      7  C   UNL     1       1.989   7.218  19.974  0.00  0.00    +0.000 A 
ATOM      8  C   UNL     1       1.376   7.343  21.232  0.00  0.00    +0.000 A 
ATOM      9  C   UNL     1       0.723   8.522  21.591  0.00  0.00    +0.000 A 
ATOM     10  C   UNL     1       0.701   9.589  20.693  0.00  0.00    +0.000 A 
ATOM     11  C   UNL     1       1.260   9.471  19.419  0.00  0.00    +0.000 A 
ATOM     12  C   UNL     1       1.905   8.288  19.065  0.00  0.00    +0.000 A 
BRANCH  10  13
ATOM     13  S   UNL     1       0.068  11.149  21.221  0.00  0.00    +0.000 S 
ATOM     14  O   UNL     1       1.136  12.121  21.242  0.00  0.00    +0.000 OA
ATOM     15  O   UNL     1      -1.204  11.396  20.585  0.00  0.00    +0.000 OA
BRANCH  13  16
ATOM     16  N   UNL     1      -0.270  10.787  22.826  0.00  0.00    +0.000 NA
ATOM     17  H   UNL     1       0.588  10.638  23.354  0.00  0.00    +0.000 HD
ATOM     18  H   UNL     1      -0.919  11.464  23.222  0.00  0.00    +0.000 HD
ENDBRANCH  13  16
ENDBRANCH  10  13
ENDBRANCH   6   7
ENDBRANCH   1   6
BRANCH   2  19
ATOM     19  C   UNL     1       6.348   5.906  18.337  0.00  0.00    +0.000 C 
BRANCH  19  20
ATOM     20  N   UNL     1       6.286   5.673  16.915  0.00  0.00    +0.000 N 
ATOM     21  C   UNL     1       5.438   6.319  16.075  0.00  0.00    +0.000 C 
ATOM     22  O   UNL     1       4.589   7.140  16.384  0.00  0.00    +0.000 OA
ATOM     23  N   UNL     1       5.690   5.900  14.790  0.00  0.00    +0.000 N 
ATOM     24  C   UNL     1       6.700   4.863  14.735  0.00  0.00    +0.000 C 
ATOM     25  C   UNL     1       6.105   3.527  14.274  0.00  0.00    +0.000 C 
ATOM     26  C   UNL     1       5.802   3.522  12.775  0.00  0.00    +0.000 C 
ATOM     27  C   UNL     1       7.020   3.921  11.946  0.00  0.00    +0.000 C 
ATOM     28  C   UNL     1       7.601   5.260  12.393  0.00  0.00    +0.000 C 
ATOM     29  C   UNL     1       7.911   5.270  13.888  0.00  0.00    +0.000 C 
ATOM     30  C   UNL     1       7.087   4.806  16.224  0.00  0.00    +0.000 C 
ATOM     31  O   UNL     1       7.977   4.111  16.695  0.00  0.00    +0.000 OA
ATOM     32  H   UNL     1       5.146   6.244  14.010  0.00  0.00    +0.000 HD
ENDBRANCH  19  20
ENDBRANCH   2  19
TORSDOF 6
ENDMDL
MODEL 2
REMARK VINA RESULT:      -8.2      0.702      1.772
REMARK  Name = 
REMARK  7 active torsions:
REMARK  status: ('A' for Active; 'I' for Inactive)
REMARK    1  A    between atoms: C_1  and  C_2
REMARK    2  A    between atoms: C_2  and  N_3
REMARK    3  A    between atoms: C_2  and  C_19
REMARK    4  A    between atoms: C_4  and  C_6
REMARK    5  A    between atoms: C_6  and  N_7
REMARK    6  A    between atoms: C_22  and  S_23
REMARK    7  A    between atoms: S_23  and  N_24
REMARK                            x       y       z     vdW  Elec       q    Type
REMARK                         _______ _______ _______ _____ _____    ______ ____
ROOT
ATOM      1  N   UNL     1       4.055   6.448  18.673  0.00  0.00    +0.000 N 
ATOM      2  C   UNL     1       5.163   5.662  18.897  0.00  0.00    +0.000 C 
ATOM      3  O   UNL     1       5.108   4.566  19.450  0.00  0.00    +0.000 OA
ATOM      4  H   UNL     1       4.152   7.301  18.132  0.00  0.00    +0.000 HD
ENDROOT
BRANCH   1   6
ATOM      5  C   UNL     1       1.943   5.330  18.096  0.00  0.00    +0.000 C 
ATOM      6  C   UNL     1       2.731   6.088  19.161  0.00  0.00    +0.000 C 
BRANCH   6   7
ATOM      7  C   UNL     1       1.994   7.328  19.632  0.00  0.00    +0.000 A 
ATOM      8  C   UNL     1       1.490   7.375  20.944  0.00  0.00    +0.000 A 
ATOM      9  C   UNL     1       0.861   8.523  21.423  0.00  0.00    +0.000 A 
ATOM     10  C   UNL     1       0.753   9.638  20.592  0.00  0.00    +0.000 A 
ATOM     11  C   UNL     1       1.201   9.599  19.270  0.00  0.00    +0.000 A 
ATOM     12  C   UNL     1       1.823   8.446  18.796  0.00  0.00    +0.000 A 
BRANCH  10  13
ATOM     13  S   UNL     1       0.155  11.158  21.260  0.00  0.00    +0.000 S 
ATOM     14  O   UNL     1       1.228  12.123  21.301  0.00  0.00    +0.000 OA
ATOM     15  O   UNL     1      -1.144  11.454  20.703  0.00  0.00    +0.000 OA
BRANCH  13  16
ATOM     16  N   UNL     1      -0.112  10.681  22.848  0.00  0.00    +0.000 NA
ATOM     17  H   UNL     1       0.400   9.827  23.062  0.00  0.00    +0.000 HD
ATOM     18  H   UNL     1       0.038  11.457  23.490  0.00  0.00    +0.000 HD
ENDBRANCH  13  16
ENDBRANCH  10  13
ENDBRANCH   6   7
ENDBRANCH   1   6
BRANCH   2  19
ATOM     19  C   UNL     1       6.464   6.213  18.317  0.00  0.00    +0.000 C 
BRANCH  19  20
ATOM     20  N   UNL     1       6.726   5.568  17.053  0.00  0.00    +0.000 N 
ATOM     21  C   UNL     1       7.600   4.542  16.891  0.00  0.00    +0.000 C 
ATOM     22  O   UNL     1       8.312   4.046  17.749  0.00  0.00    +0.000 OA
ATOM     23  N   UNL     1       7.555   4.132  15.579  0.00  0.00    +0.000 N 
ATOM     24  C   UNL     1       6.675   4.953  14.773  0.00  0.00    +0.000 C 
ATOM     25  C   UNL     1       7.460   5.759  13.731  0.00  0.00    +0.000 C 
ATOM     26  C   UNL     1       7.946   4.881  12.577  0.00  0.00    +0.000 C 
ATOM     27  C   UNL     1       6.806   4.088  11.945  0.00  0.00    +0.000 C 
ATOM     28  C   UNL     1       6.036   3.272  12.980  0.00  0.00    +0.000 C 
ATOM     29  C   UNL     1       5.543   4.143  14.133  0.00  0.00    +0.000 C 
ATOM     30  C   UNL     1       6.113   5.876  15.871  0.00  0.00    +0.000 C 
ATOM     31  O   UNL     1       5.250   6.727  15.702  0.00  0.00    +0.000 OA
ATOM     32  H   UNL     1       8.153   3.389  15.242  0.00  0.00    +0.000 HD
ENDBRANCH  19  20
ENDBRANCH   2  19
TORSDOF 6
ENDMDL
MODEL 3
REMARK VINA RESULT:      -7.9      0.530      1.055
REMARK  Name = 
REMARK  7 active torsions:
REMARK  status: ('A' for Active; 'I' for Inactive)
REMARK    1  A    between atoms: C_1  and  C_2
REMARK    2  A    between atoms: C_2  and  N_3
REMARK    3  A    between atoms: C_2  and  C_19
REMARK    4  A    between atoms: C_4  and  C_6
REMARK    5  A    between atoms: C_6  and  N_7
REMARK    6  A    between atoms: C_22  and  S_23
REMARK    7  A    between atoms: S_23  and  N_24
REMARK                            x       y       z     vdW  Elec       q    Type
REMARK                         _______ _______ _______ _____ _____    ______ ____
ROOT
ATOM      1  N   UNL     1       4.060   6.402  18.996  0.00  0.00    +0.000 N 
ATOM      2  C   UNL     1       5.034   5.428  18.947  0.00  0.00    +0.000 C 
ATOM      3  O   UNL     1       4.844   4.270  19.314  0.00  0.00    +0.000 OA
ATOM      4  H   UNL     1       4.251   7.315  18.597  0.00  0.00    +0.000 HD
ENDROOT
BRANCH   1   6
ATOM      5  C   UNL     1       1.928   5.214  18.707  0.00  0.00    +0.000 C 
ATOM      6  C   UNL     1       2.747   6.163  19.577  0.00  0.00    +0.000 C 
BRANCH   6   7
ATOM      7  C   UNL     1       2.030   7.483  19.803  0.00  0.00    +0.000 A 
ATOM      8  C   UNL     1       1.917   8.397  18.742  0.00  0.00    +0.000 A 
ATOM      9  C   UNL     1       1.213   9.589  18.903  0.00  0.00    +0.000 A 
ATOM     10  C   UNL     1       0.600   9.859  20.127  0.00  0.00    +0.000 A 
ATOM     11  C   UNL     1       0.740   8.990  21.210  0.00  0.00    +0.000 A 
ATOM     12  C   UNL     1       1.451   7.802  21.044  0.00  0.00    +0.000 A 
BRANCH  10  13
ATOM     13  S   UNL     1      -0.467  11.256  20.269  0.00  0.00    +0.000 S 
ATOM     14  O   UNL     1       0.323  12.463  20.333  0.00  0.00    +0.000 OA
ATOM     15  O   UNL     1      -1.590  11.102  19.375  0.00  0.00    +0.000 OA
BRANCH  13  16
ATOM     16  N   UNL     1      -1.062  10.999  21.819  0.00  0.00    +0.000 NA
ATOM     17  H   UNL     1      -0.302  10.841  22.478  0.00  0.00    +0.000 HD
ATOM     18  H   UNL     1      -1.726  11.726  22.079  0.00  0.00    +0.000 HD
ENDBRANCH  13  16
ENDBRANCH  10  13
ENDBRANCH   6   7
ENDBRANCH   1   6
BRANCH   2  19
ATOM     19  C   UNL     1       6.348   5.872  18.310  0.00  0.00    +0.000 C 
BRANCH  19  20
ATOM     20  N   UNL     1       6.284   5.640  16.888  0.00  0.00    +0.000 N 
ATOM     21  C   UNL     1       5.443   6.297  16.048  0.00  0.00    +0.000 C 
ATOM     22  O   UNL     1       4.605   7.128  16.356  0.00  0.00    +0.000 OA
ATOM     23  N   UNL     1       5.691   5.874  14.763  0.00  0.00    +0.000 N 
ATOM     24  C   UNL     1       6.689   4.825  14.708  0.00  0.00    +0.000 C 
ATOM     25  C   UNL     1       6.078   3.496  14.247  0.00  0.00    +0.000 C 
ATOM     26  C   UNL     1       5.775   3.495  12.748  0.00  0.00    +0.000 C 
ATOM     27  C   UNL     1       6.998   3.879  11.919  0.00  0.00    +0.000 C 
ATOM     28  C   UNL     1       7.595   5.211  12.367  0.00  0.00    +0.000 C 
ATOM     29  C   UNL     1       7.904   5.217  13.862  0.00  0.00    +0.000 C 
ATOM     30  C   UNL     1       7.075   4.764  16.198  0.00  0.00    +0.000 C 
ATOM     31  O   UNL     1       7.956   4.057  16.669  0.00  0.00    +0.000 OA
ATOM     32  H   UNL     1       5.152   6.225  13.983  0.00  0.00    +0.000 HD
ENDBRANCH  19  20
ENDBRANCH   2  19
TORSDOF 6
ENDMDL
MODEL 4
REMARK VINA RESULT:      -7.8      1.345      2.227
REMARK  Name = 
REMARK  7 active torsions:
REMARK  status: ('A' for Active; 'I' for Inactive)
REMARK    1  A    between atoms: C_1  and  C_2
REMARK    2  A    between atoms: C_2  and  N_3
REMARK    3  A    between atoms: C_2  and  C_19
REMARK    4  A    between atoms: C_4  and  C_6
REMARK    5  A    between atoms: C_6  and  N_7
REMARK    6  A    between atoms: C_22  and  S_23
REMARK    7  A    between atoms: S_23  and  N_24
REMARK                            x       y       z     vdW  Elec       q    Type
REMARK                         _______ _______ _______ _____ _____    ______ ____
ROOT
ATOM      1  N   UNL     1       4.199   6.675  18.456  0.00  0.00    +0.000 N 
ATOM      2  C   UNL     1       5.294   5.923  18.819  0.00  0.00    +0.000 C 
ATOM      3  O   UNL     1       5.217   4.927  19.535  0.00  0.00    +0.000 OA
ATOM      4  H   UNL     1       4.316   7.433  17.791  0.00  0.00    +0.000 HD
ENDROOT
BRANCH   1   6
ATOM      5  C   UNL     1       2.141   5.377  18.105  0.00  0.00    +0.000 C 
ATOM      6  C   UNL     1       2.863   6.407  18.969  0.00  0.00    +0.000 C 
BRANCH   6   7
ATOM      7  C   UNL     1       2.077   7.702  19.078  0.00  0.00    +0.000 A 
ATOM      8  C   UNL     1       1.512   8.063  20.313  0.00  0.00    +0.000 A 
ATOM      9  C   UNL     1       0.836   9.274  20.458  0.00  0.00    +0.000 A 
ATOM     10  C   UNL     1       0.743  10.137  19.366  0.00  0.00    +0.000 A 
ATOM     11  C   UNL     1       1.253   9.778  18.117  0.00  0.00    +0.000 A 
ATOM     12  C   UNL     1       1.922   8.564  17.979  0.00  0.00    +0.000 A 
BRANCH  10  13
ATOM     13  S   UNL     1       0.081  11.756  19.599  0.00  0.00    +0.000 S 
ATOM     14  O   UNL     1      -1.038  11.694  20.510  0.00  0.00    +0.000 OA
ATOM     15  O   UNL     1       1.159  12.704  19.746  0.00  0.00    +0.000 OA
BRANCH  13  16
ATOM     16  N   UNL     1      -0.569  12.016  18.073  0.00  0.00    +0.000 NA
ATOM     17  H   UNL     1      -1.066  12.904  18.035  0.00  0.00    +0.000 HD
ATOM     18  H   UNL     1       0.133  11.874  17.349  0.00  0.00    +0.000 HD
ENDBRANCH  13  16
ENDBRANCH  10  13
ENDBRANCH   6   7
ENDBRANCH   1   6
BRANCH   2  19
ATOM     19  C   UNL     1       6.610   6.365  18.185  0.00  0.00    +0.000 C 
BRANCH  19  20
ATOM     20  N   UNL     1       6.802   5.646  16.949  0.00  0.00    +0.000 N 
ATOM     21  C   UNL     1       7.599   4.554  16.821  0.00  0.00    +0.000 C 
ATOM     22  O   UNL     1       8.293   4.050  17.689  0.00  0.00    +0.000 OA
ATOM     23  N   UNL     1       7.500   4.089  15.530  0.00  0.00    +0.000 N 
ATOM     24  C   UNL     1       6.663   4.932  14.702  0.00  0.00    +0.000 C 
ATOM     25  C   UNL     1       7.480   5.632  13.609  0.00  0.00    +0.000 C 
ATOM     26  C   UNL     1       7.881   4.670  12.490  0.00  0.00    +0.000 C 
ATOM     27  C   UNL     1       6.676   3.931  11.915  0.00  0.00    +0.000 C 
ATOM     28  C   UNL     1       5.872   3.219  13.000  0.00  0.00    +0.000 C 
ATOM     29  C   UNL     1       5.464   4.175  14.119  0.00  0.00    +0.000 C 
ATOM     30  C   UNL     1       6.189   5.942  15.764  0.00  0.00    +0.000 C 
ATOM     31  O   UNL     1       5.383   6.843  15.570  0.00  0.00    +0.000 OA
ATOM     32  H   UNL     1       8.038   3.291  15.218  0.00  0.00    +0.000 HD
ENDBRANCH  19  20
ENDBRANCH   2  19
TORSDOF 6
ENDMDL
MODEL 5
REMARK VINA RESULT:      -7.8      1.142      2.199
REMARK  Name = 
REMARK  7 active torsions:
REMARK  status: ('A' for Active; 'I' for Inactive)
REMARK    1  A    between atoms: C_1  and  C_2
REMARK    2  A    between atoms: C_2  and  N_3
REMARK    3  A    between atoms: C_2  and  C_19
REMARK    4  A    between atoms: C_4  and  C_6
REMARK    5  A    between atoms: C_6  and  N_7
REMARK    6  A    between atoms: C_22  and  S_23
REMARK    7  A    between atoms: S_23  and  N_24
REMARK                            x       y       z     vdW  Elec       q    Type
REMARK                         _______ _______ _______ _____ _____    ______ ____
ROOT
ATOM      1  N   UNL     1       4.240   6.596  18.277  0.00  0.00    +0.000 N 
ATOM      2  C   UNL     1       5.401   6.045  18.775  0.00  0.00    +0.000 C 
ATOM      3  O   UNL     1       5.416   5.215  19.681  0.00  0.00    +0.000 OA
ATOM      4  H   UNL     1       4.288   7.208  17.470  0.00  0.00    +0.000 HD
ENDROOT
BRANCH   1   6
ATOM      5  C   UNL     1       2.154   5.332  17.974  0.00  0.00    +0.000 C 
ATOM      6  C   UNL     1       2.934   6.309  18.850  0.00  0.00    +0.000 C 
BRANCH   6   7
ATOM      7  C   UNL     1       2.167   7.600  19.074  0.00  0.00    +0.000 A 
ATOM      8  C   UNL     1       1.927   8.458  17.986  0.00  0.00    +0.000 A 
ATOM      9  C   UNL     1       1.176   9.620  18.150  0.00  0.00    +0.000 A 
ATOM     10  C   UNL     1       0.644   9.917  19.405  0.00  0.00    +0.000 A 
ATOM     11  C   UNL     1       0.910   9.107  20.511  0.00  0.00    +0.000 A 
ATOM     12  C   UNL     1       1.667   7.949  20.341  0.00  0.00    +0.000 A 
BRANCH  10  13
ATOM     13  S   UNL     1      -0.482  11.266  19.569  0.00  0.00    +0.000 S 
ATOM     14  O   UNL     1       0.228  12.510  19.396  0.00  0.00    +0.000 OA
ATOM     15  O   UNL     1      -1.709  10.960  18.874  0.00  0.00    +0.000 OA
BRANCH  13  16
ATOM     16  N   UNL     1      -0.827  11.145  21.208  0.00  0.00    +0.000 NA
ATOM     17  H   UNL     1      -0.066  10.689  21.708  0.00  0.00    +0.000 HD
ATOM     18  H   UNL     1      -1.124  12.043  21.585  0.00  0.00    +0.000 HD
ENDBRANCH  13  16
ENDBRANCH  10  13
ENDBRANCH   6   7
ENDBRANCH   1   6
BRANCH   2  19
ATOM     19  C   UNL     1       6.673   6.475  18.048  0.00  0.00    +0.000 C 
BRANCH  19  20
ATOM     20  N   UNL     1       6.816   5.690  16.846  0.00  0.00    +0.000 N 
ATOM     21  C   UNL     1       7.558   4.556  16.763  0.00  0.00    +0.000 C 
ATOM     22  O   UNL     1       8.234   4.059  17.648  0.00  0.00    +0.000 OA
ATOM     23  N   UNL     1       7.421   4.036  15.497  0.00  0.00    +0.000 N 
ATOM     24  C   UNL     1       6.618   4.879  14.636  0.00  0.00    +0.000 C 
ATOM     25  C   UNL     1       7.458   5.486  13.505  0.00  0.00    +0.000 C 
ATOM     26  C   UNL     1       7.799   4.454  12.429  0.00  0.00    +0.000 C 
ATOM     27  C   UNL     1       6.553   3.749  11.900  0.00  0.00    +0.000 C 
ATOM     28  C   UNL     1       5.727   3.130  13.024  0.00  0.00    +0.000 C 
ATOM     29  C   UNL     1       5.378   4.156  14.100  0.00  0.00    +0.000 C 
ATOM     30  C   UNL     1       6.205   5.960  15.653  0.00  0.00    +0.000 C 
ATOM     31  O   UNL     1       5.443   6.890  15.423  0.00  0.00    +0.000 OA
ATOM     32  H   UNL     1       7.916   3.199  15.218  0.00  0.00    +0.000 HD
ENDBRANCH  19  20
ENDBRANCH   2  19
TORSDOF 6
ENDMDL
MODEL 6
REMARK VINA RESULT:      -7.8      4.506      7.157
REMARK  Name = 
REMARK  7 active torsions:
REMARK  status: ('A' for Active; 'I' for Inactive)
REMARK    1  A    between atoms: C_1  and  C_2
REMARK    2  A    between atoms: C_2  and  N_3
REMARK    3  A    between atoms: C_2  and  C_19
REMARK    4  A    between atoms: C_4  and  C_6
REMARK    5  A    between atoms: C_6  and  N_7
REMARK    6  A    between atoms: C_22  and  S_23
REMARK    7  A    between atoms: S_23  and  N_24
REMARK                            x       y       z     vdW  Elec       q    Type
REMARK                         _______ _______ _______ _____ _____    ______ ____
ROOT
ATOM      1  N   UNL     1       6.755   7.285  17.493  0.00  0.00    +0.000 N 
ATOM      2  C   UNL     1       6.512   6.477  16.405  0.00  0.00    +0.000 C 
ATOM      3  O   UNL     1       7.386   5.806  15.858  0.00  0.00    +0.000 OA
ATOM      4  H   UNL     1       5.977   7.744  17.955  0.00  0.00    +0.000 HD
ENDROOT
BRANCH   1   6
ATOM      5  C   UNL     1       8.291   6.692  19.318  0.00  0.00    +0.000 C 
ATOM      6  C   UNL     1       8.093   7.488  18.031  0.00  0.00    +0.000 C 
BRANCH   6   7
ATOM      7  C   UNL     1       8.353   8.969  18.239  0.00  0.00    +0.000 A 
ATOM      8  C   UNL     1       9.214   9.381  19.271  0.00  0.00    +0.000 A 
ATOM      9  C   UNL     1       9.518  10.729  19.447  0.00  0.00    +0.000 A 
ATOM     10  C   UNL     1       8.973  11.671  18.574  0.00  0.00    +0.000 A 
ATOM     11  C   UNL     1       8.075  11.292  17.574  0.00  0.00    +0.000 A 
ATOM     12  C   UNL     1       7.772   9.942  17.407  0.00  0.00    +0.000 A 
BRANCH  10  13
ATOM     13  S   UNL     1       9.521  13.346  18.658  0.00  0.00    +0.000 S 
ATOM     14  O   UNL     1       8.378  14.223  18.757  0.00  0.00    +0.000 OA
ATOM     15  O   UNL     1      10.659  13.440  19.540  0.00  0.00    +0.000 OA
BRANCH  13  16
ATOM     16  N   UNL     1      10.118  13.524  17.098  0.00  0.00    +0.000 NA
ATOM     17  H   UNL     1      10.796  12.796  16.883  0.00  0.00    +0.000 HD
ATOM     18  H   UNL     1       9.358  13.630  16.428  0.00  0.00    +0.000 HD
ENDBRANCH  13  16
ENDBRANCH  10  13
ENDBRANCH   6   7
ENDBRANCH   1   6
BRANCH   2  19
ATOM     19  C   UNL     1       5.047   6.400  15.982  0.00  0.00    +0.000 C 
BRANCH  19  20
ATOM     20  N   UNL     1       4.367   5.439  16.815  0.00  0.00    +0.000 N 
ATOM     21  C   UNL     1       4.608   4.103  16.787  0.00  0.00    +0.000 C 
ATOM     22  O   UNL     1       5.380   3.515  16.047  0.00  0.00    +0.000 OA
ATOM     23  N   UNL     1       3.833   3.498  17.749  0.00  0.00    +0.000 N 
ATOM     24  C   UNL     1       2.957   4.434  18.423  0.00  0.00    +0.000 C 
ATOM     25  C   UNL     1       1.484   4.155  18.101  0.00  0.00    +0.000 C 
ATOM     26  C   UNL     1       0.965   2.913  18.829  0.00  0.00    +0.000 C 
ATOM     27  C   UNL     1       1.218   2.986  20.332  0.00  0.00    +0.000 C 
ATOM     28  C   UNL     1       2.687   3.247  20.652  0.00  0.00    +0.000 C 
ATOM     29  C   UNL     1       3.211   4.488  19.933  0.00  0.00    +0.000 C 
ATOM     30  C   UNL     1       3.425   5.743  17.758  0.00  0.00    +0.000 C 
ATOM     31  O   UNL     1       3.024   6.862  18.047  0.00  0.00    +0.000 OA
ATOM     32  H   UNL     1       3.844   2.494  17.876  0.00  0.00    +0.000 HD
ENDBRANCH  19  20
ENDBRANCH   2  19
TORSDOF 6
ENDMDL
MODEL 7
REMARK VINA RESULT:      -7.8      4.544      7.054
REMARK  Name = 
REMARK  7 active torsions:
REMARK  status: ('A' for Active; 'I' for Inactive)
REMARK    1  A    between atoms: C_1  and  C_2
REMARK    2  A    between atoms: C_2  and  N_3
REMARK    3  A    between atoms: C_2  and  C_19
REMARK    4  A    between atoms: C_4  and  C_6
REMARK    5  A    between atoms: C_6  and  N_7
REMARK    6  A    between atoms: C_22  and  S_23
REMARK    7  A    between atoms: S_23  and  N_24
REMARK                            x       y       z     vdW  Elec       q    Type
REMARK                         _______ _______ _______ _____ _____    ______ ____
ROOT
ATOM      1  N   UNL     1       6.828   7.470  17.301  0.00  0.00    +0.000 N 
ATOM      2  C   UNL     1       6.538   6.375  16.517  0.00  0.00    +0.000 C 
ATOM      3  O   UNL     1       7.333   5.456  16.328  0.00  0.00    +0.000 OA
ATOM      4  H   UNL     1       6.100   8.151  17.491  0.00  0.00    +0.000 HD
ENDROOT
BRANCH   1   6
ATOM      5  C   UNL     1       8.294   6.859  19.177  0.00  0.00    +0.000 C 
ATOM      6  C   UNL     1       8.139   7.677  17.897  0.00  0.00    +0.000 C 
BRANCH   6   7
ATOM      7  C   UNL     1       8.372   9.158  18.143  0.00  0.00    +0.000 A 
ATOM      8  C   UNL     1       9.236   9.558  19.177  0.00  0.00    +0.000 A 
ATOM      9  C   UNL     1       9.515  10.907  19.388  0.00  0.00    +0.000 A 
ATOM     10  C   UNL     1       8.941  11.861  18.547  0.00  0.00    +0.000 A 
ATOM     11  C   UNL     1       8.041  11.492  17.546  0.00  0.00    +0.000 A 
ATOM     12  C   UNL     1       7.763  10.141  17.345  0.00  0.00    +0.000 A 
BRANCH  10  13
ATOM     13  S   UNL     1       9.457  13.544  18.671  0.00  0.00    +0.000 S 
ATOM     14  O   UNL     1       9.105  14.062  19.972  0.00  0.00    +0.000 OA
ATOM     15  O   UNL     1      10.774  13.691  18.099  0.00  0.00    +0.000 OA
BRANCH  13  16
ATOM     16  N   UNL     1       8.389  14.246  17.580  0.00  0.00    +0.000 NA
ATOM     17  H   UNL     1       7.448  14.285  17.967  0.00  0.00    +0.000 HD
ATOM     18  H   UNL     1       8.758  15.127  17.227  0.00  0.00    +0.000 HD
ENDBRANCH  13  16
ENDBRANCH  10  13
ENDBRANCH   6   7
ENDBRANCH   1   6
BRANCH   2  19
ATOM     19  C   UNL     1       5.113   6.339  15.972  0.00  0.00    +0.000 C 
BRANCH  19  20
ATOM     20  N   UNL     1       4.232   5.825  16.992  0.00  0.00    +0.000 N 
ATOM     21  C   UNL     1       3.467   6.604  17.800  0.00  0.00    +0.000 C 
ATOM     22  O   UNL     1       3.436   7.823  17.822  0.00  0.00    +0.000 OA
ATOM     23  N   UNL     1       2.710   5.787  18.606  0.00  0.00    +0.000 N 
ATOM     24  C   UNL     1       3.011   4.384  18.412  0.00  0.00    +0.000 C 
ATOM     25  C   UNL     1       3.670   3.775  19.656  0.00  0.00    +0.000 C 
ATOM     26  C   UNL     1       2.663   3.557  20.787  0.00  0.00    +0.000 C 
ATOM     27  C   UNL     1       1.454   2.747  20.325  0.00  0.00    +0.000 C 
ATOM     28  C   UNL     1       0.789   3.363  19.097  0.00  0.00    +0.000 C 
ATOM     29  C   UNL     1       1.788   3.579  17.963  0.00  0.00    +0.000 C 
ATOM     30  C   UNL     1       4.025   4.500  17.257  0.00  0.00    +0.000 C 
ATOM     31  O   UNL     1       4.537   3.555  16.672  0.00  0.00    +0.000 OA
ATOM     32  H   UNL     1       2.085   6.172  19.303  0.00  0.00    +0.000 HD
ENDBRANCH  19  20
ENDBRANCH   2  19
TORSDOF 6
ENDMDL
MODEL 8
REMARK VINA RESULT:      -7.7      3.501      9.744
REMARK  Name = 
REMARK  7 active torsions:
REMARK  status: ('A' for Active; 'I' for Inactive)
REMARK    1  A    between atoms: C_1  and  C_2
REMARK    2  A    between atoms: C_2  and  N_3
REMARK    3  A    between atoms: C_2  and  C_19
REMARK    4  A    between atoms: C_4  and  C_6
REMARK    5  A    between atoms: C_6  and  N_7
REMARK    6  A    between atoms: C_22  and  S_23
REMARK    7  A    between atoms: S_23  and  N_24
REMARK                            x       y       z     vdW  Elec       q    Type
REMARK                         _______ _______ _______ _____ _____    ______ ____
ROOT
ATOM      1  N   UNL     1       1.875   7.069  20.922  0.00  0.00    +0.000 N 
ATOM      2  C   UNL     1       1.587   8.387  20.644  0.00  0.00    +0.000 C 
ATOM      3  O   UNL     1       1.151   8.764  19.558  0.00  0.00    +0.000 OA
ATOM      4  H   UNL     1       2.147   6.809  21.864  0.00  0.00    +0.000 HD
ENDROOT
BRANCH   1   6
ATOM      5  C   UNL     1       1.367   4.693  20.551  0.00  0.00    +0.000 C 
ATOM      6  C   UNL     1       1.775   6.020  19.918  0.00  0.00    +0.000 C 
BRANCH   6   7
ATOM      7  C   UNL     1       3.082   5.902  19.155  0.00  0.00    +0.000 A 
ATOM      8  C   UNL     1       4.150   5.185  19.722  0.00  0.00    +0.000 A 
ATOM      9  C   UNL     1       5.341   5.010  19.020  0.00  0.00    +0.000 A 
ATOM     10  C   UNL     1       5.458   5.538  17.734  0.00  0.00    +0.000 A 
ATOM     11  C   UNL     1       4.430   6.296  17.170  0.00  0.00    +0.000 A 
ATOM     12  C   UNL     1       3.244   6.472  17.880  0.00  0.00    +0.000 A 
BRANCH  10  13
ATOM     13  S   UNL     1       6.874   5.137  16.761  0.00  0.00    +0.000 S 
ATOM     14  O   UNL     1       6.524   4.127  15.792  0.00  0.00    +0.000 OA
ATOM     15  O   UNL     1       7.580   6.347  16.411  0.00  0.00    +0.000 OA
BRANCH  13  16
ATOM     16  N   UNL     1       7.808   4.369  17.927  0.00  0.00    +0.000 NA
ATOM     17  H   UNL     1       8.800   4.531  17.764  0.00  0.00    +0.000 HD
ATOM     18  H   UNL     1       7.474   4.589  18.864  0.00  0.00    +0.000 HD
ENDBRANCH  13  16
ENDBRANCH  10  13
ENDBRANCH   6   7
ENDBRANCH   1   6
BRANCH   2  19
ATOM     19  C   UNL     1       1.762   9.340  21.824  0.00  0.00    +0.000 C 
BRANCH  19  20
ATOM     20  N   UNL     1       0.652  10.261  21.853  0.00  0.00    +0.000 N 
ATOM     21  C   UNL     1      -0.498  10.044  22.542  0.00  0.00    +0.000 C 
ATOM     22  O   UNL     1      -0.785   9.050  23.189  0.00  0.00    +0.000 OA
ATOM     23  N   UNL     1      -1.308  11.146  22.401  0.00  0.00    +0.000 N 
ATOM     24  C   UNL     1      -0.739  12.140  21.515  0.00  0.00    +0.000 C 
ATOM     25  C   UNL     1      -1.561  12.280  20.227  0.00  0.00    +0.000 C 
ATOM     26  C   UNL     1      -2.875  13.025  20.466  0.00  0.00    +0.000 C 
ATOM     27  C   UNL     1      -2.651  14.371  21.149  0.00  0.00    +0.000 C 
ATOM     28  C   UNL     1      -1.848  14.230  22.439  0.00  0.00    +0.000 C 
ATOM     29  C   UNL     1      -0.532  13.491  22.207  0.00  0.00    +0.000 C 
ATOM     30  C   UNL     1       0.621  11.476  21.227  0.00  0.00    +0.000 C 
ATOM     31  O   UNL     1       1.521  11.972  20.563  0.00  0.00    +0.000 OA
ATOM     32  H   UNL     1      -2.228  11.177  22.819  0.00  0.00    +0.000 HD
ENDBRANCH  19  20
ENDBRANCH   2  19
TORSDOF 6
ENDMDL
MODEL 9
REMARK VINA RESULT:      -7.7      3.433      9.738
REMARK  Name = 
REMARK  7 active torsions:
REMARK  status: ('A' for Active; 'I' for Inactive)
REMARK    1  A    between atoms: C_1  and  C_2
REMARK    2  A    between atoms: C_2  and  N_3
REMARK    3  A    between atoms: C_2  and  C_19
REMARK    4  A    between atoms: C_4  and  C_6
REMARK    5  A    between atoms: C_6  and  N_7
REMARK    6  A    between atoms: C_22  and  S_23
REMARK    7  A    between atoms: S_23  and  N_24
REMARK                            x       y       z     vdW  Elec       q    Type
REMARK                         _______ _______ _______ _____ _____    ______ ____
ROOT
ATOM      1  N   UNL     1       2.255   7.183  20.652  0.00  0.00    +0.000 N 
ATOM      2  C   UNL     1       1.251   8.016  21.095  0.00  0.00    +0.000 C 
ATOM      3  O   UNL     1       0.057   7.773  20.932  0.00  0.00    +0.000 OA
ATOM      4  H   UNL     1       3.217   7.393  20.895  0.00  0.00    +0.000 HD
ENDROOT
BRANCH   1   6
ATOM      5  C   UNL     1       1.633   4.808  20.770  0.00  0.00    +0.000 C 
ATOM      6  C   UNL     1       1.987   5.987  19.867  0.00  0.00    +0.000 C 
BRANCH   6   7
ATOM      7  C   UNL     1       3.172   5.675  18.971  0.00  0.00    +0.000 A 
ATOM      8  C   UNL     1       3.439   6.502  17.867  0.00  0.00    +0.000 A 
ATOM      9  C   UNL     1       4.554   6.275  17.061  0.00  0.00    +0.000 A 
ATOM     10  C   UNL     1       5.419   5.227  17.375  0.00  0.00    +0.000 A 
ATOM     11  C   UNL     1       5.148   4.361  18.436  0.00  0.00    +0.000 A 
ATOM     12  C   UNL     1       4.028   4.591  19.234  0.00  0.00    +0.000 A 
BRANCH  10  13
ATOM     13  S   UNL     1       6.939   5.068  16.493  0.00  0.00    +0.000 S 
ATOM     14  O   UNL     1       6.762   4.159  15.386  0.00  0.00    +0.000 OA
ATOM     15  O   UNL     1       7.555   6.365  16.352  0.00  0.00    +0.000 OA
BRANCH  13  16
ATOM     16  N   UNL     1       7.844   4.241  17.642  0.00  0.00    +0.000 NA
ATOM     17  H   UNL     1       7.698   4.632  18.570  0.00  0.00    +0.000 HD
ATOM     18  H   UNL     1       7.704   3.235  17.560  0.00  0.00    +0.000 HD
ENDBRANCH  13  16
ENDBRANCH  10  13
ENDBRANCH   6   7
ENDBRANCH   1   6
BRANCH   2  19
ATOM     19  C   UNL     1       1.731   9.225  21.893  0.00  0.00    +0.000 C 
BRANCH  19  20
ATOM     20  N   UNL     1       0.702  10.236  21.880  0.00  0.00    +0.000 N 
ATOM     21  C   UNL     1      -0.244  10.370  22.845  0.00  0.00    +0.000 C 
ATOM     22  O   UNL     1      -0.398   9.654  23.821  0.00  0.00    +0.000 OA
ATOM     23  N   UNL     1      -1.018  11.467  22.549  0.00  0.00    +0.000 N 
ATOM     24  C   UNL     1      -0.652  12.079  21.288  0.00  0.00    +0.000 C 
ATOM     25  C   UNL     1      -1.765  11.924  20.246  0.00  0.00    +0.000 C 
ATOM     26  C   UNL     1      -2.946  12.855  20.527  0.00  0.00    +0.000 C 
ATOM     27  C   UNL     1      -2.503  14.308  20.678  0.00  0.00    +0.000 C 
ATOM     28  C   UNL     1      -1.406  14.464  21.728  0.00  0.00    +0.000 C 
ATOM     29  C   UNL     1      -0.222  13.541  21.451  0.00  0.00    +0.000 C 
ATOM     30  C   UNL     1       0.564  11.205  20.926  0.00  0.00    +0.000 C 
ATOM     31  O   UNL     1       1.287  11.372  19.952  0.00  0.00    +0.000 OA
ATOM     32  H   UNL     1      -1.801  11.729  23.133  0.00  0.00    +0.000 HD
ENDBRANCH  19  20
ENDBRANCH   2  19
TORSDOF 6
ENDMDL
