MODEL 1
REMARK VINA RESULT:      -7.9      0.000      0.000
REMARK  Name = 
REMARK  7 active torsions:
REMARK  status: ('A' for Active; 'I' for Inactive)
REMARK    1  A    between atoms: C_1  and  O_2
REMARK    2  A    between atoms: O_2  and  C_3
REMARK    3  A    between atoms: C_7  and  C_8
REMARK    4  A    between atoms: C_10  and  N_11
REMARK    5  A    between atoms: C_12  and  C_14
REMARK    6  A    between atoms: C_14  and  C_15
REMARK    7  A    between atoms: N_18  and  C_19
REMARK                            x       y       z     vdW  Elec       q    Type
REMARK                         _______ _______ _______ _____ _____    ______ ____
ROOT
ATOM      1  C   UNL     1       5.892   5.352  15.812  0.00  0.00    +0.000 A 
ATOM      2  C   UNL     1       4.782   4.921  16.591  0.00  0.00    +0.000 A 
ATOM      3  C   UNL     1       4.948   5.520  17.813  0.00  0.00    +0.000 A 
ATOM      4  O   UNL     1       6.058   6.303  17.768  0.00  0.00    +0.000 OA
ATOM      5  N   UNL     1       6.640   6.214  16.516  0.00  0.00    +0.000 NA
ENDROOT
BRANCH   1  10
ATOM      6  C   UNL     1       5.860   3.492  12.535  0.00  0.00    +0.000 A 
ATOM      7  C   UNL     1       7.056   3.933  11.964  0.00  0.00    +0.000 A 
ATOM      8  C   UNL     1       7.851   4.871  12.623  0.00  0.00    +0.000 A 
ATOM      9  C   UNL     1       7.464   5.360  13.873  0.00  0.00    +0.000 A 
ATOM     10  C   UNL     1       6.272   4.921  14.466  0.00  0.00    +0.000 A 
ATOM     11  C   UNL     1       5.467   4.000  13.776  0.00  0.00    +0.000 A 
BRANCH   6  13
ATOM     12  C   UNL     1       4.026   3.004  11.104  0.00  0.00    +0.000 C 
ATOM     13  O   UNL     1       5.180   2.555  11.806  0.00  0.00    +0.000 OA
ENDBRANCH   6  13
ENDBRANCH   1  10
BRANCH   3  14
ATOM     14  N   UNL     1       4.195   5.415  18.959  0.00  0.00    +0.000 N 
ATOM     15  C   UNL     1       2.859   5.776  19.024  0.00  0.00    +0.000 C 
ATOM     16  O   UNL     1       2.177   6.206  18.102  0.00  0.00    +0.000 OA
ATOM     17  H   UNL     1       4.660   5.080  19.791  0.00  0.00    +0.000 HD
BRANCH  15  18
ATOM     18  C   UNL     1       2.289   5.575  20.426  0.00  0.00    +0.000 C 
BRANCH  18  19
ATOM     19  C   UNL     1       1.426   4.308  20.558  0.00  0.00    +0.000 C 
ATOM     20  C   UNL     1       1.236   3.594  19.217  0.00  0.00    +0.000 C 
ATOM     21  C   UNL     1       2.412   2.627  19.092  0.00  0.00    +0.000 C 
ATOM     22  N   UNL     1       2.980   2.516  20.456  0.00  0.00    +0.000 N 
ATOM     23  C   UNL     1       2.084   3.217  21.407  0.00  0.00    +0.000 C 
BRANCH  22  24
ATOM     24  C   UNL     1       4.193   2.033  20.748  0.00  0.00    +0.000 C 
ATOM     25  N   UNL     1       5.241   1.624  21.022  0.00  0.00    +0.000 NA
ENDBRANCH  22  24
ENDBRANCH  18  19
ENDBRANCH  15  18
ENDBRANCH   3  14
TORSDOF 6
ENDMDL
MODEL 2
REMARK VINA RESULT:      -7.9      1.631      2.591
REMARK  Name = 
REMARK  7 active torsions:
REMARK  status: ('A' for Active; 'I' for Inactive)
REMARK    1  A    between atoms: C_1  and  O_2
REMARK    2  A    between atoms: O_2  and  C_3
REMARK    3  A    between atoms: C_7  and  C_8
REMARK    4  A    between atoms: C_10  and  N_11
REMARK    5  A    between atoms: C_12  and  C_14
REMARK    6  A    between atoms: C_14  and  C_15
REMARK    7  A    between atoms: N_18  and  C_19
REMARK                            x       y       z     vdW  Elec       q    Type
REMARK                         _______ _______ _______ _____ _____    ______ ____
ROOT
ATOM      1  C   UNL     1       6.521   4.343  15.989  0.00  0.00    +0.000 A 
ATOM      2  C   UNL     1       5.359   3.978  16.727  0.00  0.00    +0.000 A 
ATOM      3  C   UNL     1       5.764   3.945  18.037  0.00  0.00    +0.000 A 
ATOM      4  O   UNL     1       7.071   4.313  18.100  0.00  0.00    +0.000 OA
ATOM      5  N   UNL     1       7.542   4.578  16.826  0.00  0.00    +0.000 NA
ENDROOT
BRANCH   1  10
ATOM      6  C   UNL     1       6.116   3.551  12.328  0.00  0.00    +0.000 A 
ATOM      7  C   UNL     1       7.087   4.380  11.764  0.00  0.00    +0.000 A 
ATOM      8  C   UNL     1       7.843   5.233  12.569  0.00  0.00    +0.000 A 
ATOM      9  C   UNL     1       7.645   5.246  13.951  0.00  0.00    +0.000 A 
ATOM     10  C   UNL     1       6.682   4.412  14.536  0.00  0.00    +0.000 A 
ATOM     11  C   UNL     1       5.908   3.581  13.710  0.00  0.00    +0.000 A 
BRANCH   6  13
ATOM     12  C   UNL     1       4.102   3.074  11.159  0.00  0.00    +0.000 C 
ATOM     13  O   UNL     1       5.456   2.743  11.441  0.00  0.00    +0.000 OA
ENDBRANCH   6  13
ENDBRANCH   1  10
BRANCH   3  14
ATOM     14  N   UNL     1       5.063   3.605  19.170  0.00  0.00    +0.000 N 
ATOM     15  C   UNL     1       4.267   2.475  19.259  0.00  0.00    +0.000 C 
ATOM     16  O   UNL     1       4.095   1.637  18.382  0.00  0.00    +0.000 OA
ATOM     17  H   UNL     1       5.122   4.234  19.959  0.00  0.00    +0.000 HD
BRANCH  15  18
ATOM     18  C   UNL     1       3.592   2.367  20.624  0.00  0.00    +0.000 C 
BRANCH  18  19
ATOM     19  C   UNL     1       2.079   2.640  20.581  0.00  0.00    +0.000 C 
ATOM     20  C   UNL     1       1.639   3.637  21.656  0.00  0.00    +0.000 C 
ATOM     21  C   UNL     1       1.778   5.020  21.022  0.00  0.00    +0.000 C 
ATOM     22  N   UNL     1       1.887   4.778  19.565  0.00  0.00    +0.000 N 
ATOM     23  C   UNL     1       1.630   3.342  19.297  0.00  0.00    +0.000 C 
BRANCH  22  24
ATOM     24  C   UNL     1       2.335   5.664  18.669  0.00  0.00    +0.000 C 
ATOM     25  N   UNL     1       2.700   6.434  17.884  0.00  0.00    +0.000 NA
ENDBRANCH  22  24
ENDBRANCH  18  19
ENDBRANCH  15  18
ENDBRANCH   3  14
TORSDOF 6
ENDMDL
MODEL 3
REMARK VINA RESULT:      -7.7      4.522      8.350
REMARK  Name = 
REMARK  7 active torsions:
REMARK  status: ('A' for Active; 'I' for Inactive)
REMARK    1  A    between atoms: C_1  and  O_2
REMARK    2  A    between atoms: O_2  and  C_3
REMARK    3  A    between atoms: C_7  and  C_8
REMARK    4  A    between atoms: C_10  and  N_11
REMARK    5  A    between atoms: C_12  and  C_14
REMARK    6  A    between atoms: C_14  and  C_15
REMARK    7  A    between atoms: N_18  and  C_19
REMARK                            x       y       z     vdW  Elec       q    Type
REMARK                         _______ _______ _______ _____ _____    ______ ____
ROOT
ATOM      1  C   UNL     1       4.699   5.028  17.274  0.00  0.00    +0.000 A 
ATOM      2  C   UNL     1       5.100   6.344  17.637  0.00  0.00    +0.000 A 
ATOM      3  C   UNL     1       6.215   6.600  16.880  0.00  0.00    +0.000 A 
ATOM      4  O   UNL     1       6.450   5.532  16.074  0.00  0.00    +0.000 OA
ATOM      5  N   UNL     1       5.496   4.555  16.304  0.00  0.00    +0.000 NA
ENDROOT
BRANCH   1  10
ATOM      6  C   UNL     1       2.165   3.740  19.748  0.00  0.00    +0.000 A 
ATOM      7  C   UNL     1       1.725   2.583  19.104  0.00  0.00    +0.000 A 
ATOM      8  C   UNL     1       2.217   2.244  17.843  0.00  0.00    +0.000 A 
ATOM      9  C   UNL     1       3.172   3.054  17.226  0.00  0.00    +0.000 A 
ATOM     10  C   UNL     1       3.635   4.214  17.861  0.00  0.00    +0.000 A 
ATOM     11  C   UNL     1       3.107   4.558  19.117  0.00  0.00    +0.000 A 
BRANCH   6  13
ATOM     12  C   UNL     1       1.477   2.813  21.825  0.00  0.00    +0.000 C 
ATOM     13  O   UNL     1       1.630   3.954  20.989  0.00  0.00    +0.000 OA
ENDBRANCH   6  13
ENDBRANCH   1  10
BRANCH   3  14
ATOM     14  N   UNL     1       7.036   7.703  16.861  0.00  0.00    +0.000 N 
ATOM     15  C   UNL     1       7.993   7.951  17.832  0.00  0.00    +0.000 C 
ATOM     16  O   UNL     1       8.250   7.243  18.797  0.00  0.00    +0.000 OA
ATOM     17  H   UNL     1       6.906   8.367  16.111  0.00  0.00    +0.000 HD
BRANCH  15  18
ATOM     18  C   UNL     1       8.737   9.259  17.567  0.00  0.00    +0.000 C 
BRANCH  18  19
ATOM     19  C   UNL     1       8.412  10.364  18.587  0.00  0.00    +0.000 C 
ATOM     20  C   UNL     1       9.401  10.382  19.756  0.00  0.00    +0.000 C 
ATOM     21  C   UNL     1      10.543  11.298  19.318  0.00  0.00    +0.000 C 
ATOM     22  N   UNL     1      10.018  12.059  18.161  0.00  0.00    +0.000 N 
ATOM     23  C   UNL     1       8.570  11.775  18.017  0.00  0.00    +0.000 C 
BRANCH  22  24
ATOM     24  C   UNL     1      10.766  12.733  17.280  0.00  0.00    +0.000 C 
ATOM     25  N   UNL     1      11.418  13.333  16.535  0.00  0.00    +0.000 NA
ENDBRANCH  22  24
ENDBRANCH  18  19
ENDBRANCH  15  18
ENDBRANCH   3  14
TORSDOF 6
ENDMDL
MODEL 4
REMARK VINA RESULT:      -7.6      5.122      8.677
REMARK  Name = 
REMARK  7 active torsions:
REMARK  status: ('A' for Active; 'I' for Inactive)
REMARK    1  A    between atoms: C_1  and  O_2
REMARK    2  A    between atoms: O_2  and  C_3
REMARK    3  A    between atoms: C_7  and  C_8
REMARK    4  A    between atoms: C_10  and  N_11
REMARK    5  A    between atoms: C_12  and  C_14
REMARK    6  A    between atoms: C_14  and  C_15
REMARK    7  A    between atoms: N_18  and  C_19
REMARK                            x       y       z     vdW  Elec       q    Type
REMARK                         _______ _______ _______ _____ _____    ______ ____
ROOT
ATOM      1  C   UNL     1       5.568   5.352  17.599  0.00  0.00    +0.000 A 
ATOM      2  C   UNL     1       5.542   6.765  17.771  0.00  0.00    +0.000 A 
ATOM      3  C   UNL     1       6.731   7.210  17.252  0.00  0.00    +0.000 A 
ATOM      4  O   UNL     1       7.415   6.147  16.752  0.00  0.00    +0.000 OA
ATOM      5  N   UNL     1       6.684   4.988  16.952  0.00  0.00    +0.000 NA
ENDROOT
BRANCH   1  10
ATOM      6  C   UNL     1       3.140   3.569  19.863  0.00  0.00    +0.000 A 
ATOM      7  C   UNL     1       2.878   2.416  19.121  0.00  0.00    +0.000 A 
ATOM      8  C   UNL     1       3.455   2.238  17.863  0.00  0.00    +0.000 A 
ATOM      9  C   UNL     1       4.316   3.208  17.346  0.00  0.00    +0.000 A 
ATOM     10  C   UNL     1       4.600   4.367  18.081  0.00  0.00    +0.000 A 
ATOM     11  C   UNL     1       3.988   4.546  19.333  0.00  0.00    +0.000 A 
BRANCH   6  13
ATOM     12  C   UNL     1       1.543   2.638  21.355  0.00  0.00    +0.000 C 
ATOM     13  O   UNL     1       2.538   3.619  21.091  0.00  0.00    +0.000 OA
ENDBRANCH   6  13
ENDBRANCH   1  10
BRANCH   3  14
ATOM     14  N   UNL     1       7.252   8.482  17.199  0.00  0.00    +0.000 N 
ATOM     15  C   UNL     1       8.217   8.943  18.079  0.00  0.00    +0.000 C 
ATOM     16  O   UNL     1       8.740   8.304  18.983  0.00  0.00    +0.000 OA
ATOM     17  H   UNL     1       6.884   9.105  16.494  0.00  0.00    +0.000 HD
BRANCH  15  18
ATOM     18  C   UNL     1       8.586  10.398  17.798  0.00  0.00    +0.000 C 
BRANCH  18  19
ATOM     19  C   UNL     1       9.711  10.929  18.704  0.00  0.00    +0.000 C 
ATOM     20  C   UNL     1      10.960  11.318  17.909  0.00  0.00    +0.000 C 
ATOM     21  C   UNL     1      10.760  12.780  17.513  0.00  0.00    +0.000 C 
ATOM     22  N   UNL     1       9.672  13.281  18.384  0.00  0.00    +0.000 N 
ATOM     23  C   UNL     1       9.354  12.246  19.397  0.00  0.00    +0.000 C 
BRANCH  22  24
ATOM     24  C   UNL     1       8.966  14.397  18.170  0.00  0.00    +0.000 C 
ATOM     25  N   UNL     1       8.337  15.349  17.974  0.00  0.00    +0.000 NA
ENDBRANCH  22  24
ENDBRANCH  18  19
ENDBRANCH  15  18
ENDBRANCH   3  14
TORSDOF 6
ENDMDL
MODEL 5
REMARK VINA RESULT:      -7.6      5.161      6.951
REMARK  Name = 
REMARK  7 active torsions:
REMARK  status: ('A' for Active; 'I' for Inactive)
REMARK    1  A    between atoms: C_1  and  O_2
REMARK    2  A    between atoms: O_2  and  C_3
REMARK    3  A    between atoms: C_7  and  C_8
REMARK    4  A    between atoms: C_10  and  N_11
REMARK    5  A    between atoms: C_12  and  C_14
REMARK    6  A    between atoms: C_14  and  C_15
REMARK    7  A    between atoms: N_18  and  C_19
REMARK                            x       y       z     vdW  Elec       q    Type
REMARK                         _______ _______ _______ _____ _____    ______ ____
ROOT
ATOM      1  C   UNL     1       8.589   9.107  18.260  0.00  0.00    +0.000 A 
ATOM      2  C   UNL     1       8.415   7.808  18.816  0.00  0.00    +0.000 A 
ATOM      3  C   UNL     1       7.526   7.179  17.982  0.00  0.00    +0.000 A 
ATOM      4  O   UNL     1       7.216   8.019  16.960  0.00  0.00    +0.000 OA
ATOM      5  N   UNL     1       7.890   9.217  17.121  0.00  0.00    +0.000 NA
ENDROOT
BRANCH   1  10
ATOM      6  C   UNL     1      10.991  12.000  18.503  0.00  0.00    +0.000 A 
ATOM      7  C   UNL     1      10.938  12.279  19.870  0.00  0.00    +0.000 A 
ATOM      8  C   UNL     1      10.087  11.558  20.707  0.00  0.00    +0.000 A 
ATOM      9  C   UNL     1       9.295  10.534  20.183  0.00  0.00    +0.000 A 
ATOM     10  C   UNL     1       9.342  10.232  18.815  0.00  0.00    +0.000 A 
ATOM     11  C   UNL     1      10.182  10.987  17.980  0.00  0.00    +0.000 A 
BRANCH   6  13
ATOM     12  C   UNL     1      11.358  13.486  16.685  0.00  0.00    +0.000 C 
ATOM     13  O   UNL     1      11.881  12.756  17.790  0.00  0.00    +0.000 OA
ENDBRANCH   6  13
ENDBRANCH   1  10
BRANCH   3  14
ATOM     14  N   UNL     1       6.969   5.924  18.068  0.00  0.00    +0.000 N 
ATOM     15  C   UNL     1       5.603   5.705  18.128  0.00  0.00    +0.000 C 
ATOM     16  O   UNL     1       4.727   6.561  18.094  0.00  0.00    +0.000 OA
ATOM     17  H   UNL     1       7.601   5.138  18.115  0.00  0.00    +0.000 HD
BRANCH  15  18
ATOM     18  C   UNL     1       5.276   4.218  18.245  0.00  0.00    +0.000 C 
BRANCH  18  19
ATOM     19  C   UNL     1       3.866   3.861  17.743  0.00  0.00    +0.000 C 
ATOM     20  C   UNL     1       3.691   2.355  17.529  0.00  0.00    +0.000 C 
ATOM     21  C   UNL     1       3.217   1.798  18.870  0.00  0.00    +0.000 C 
ATOM     22  N   UNL     1       2.762   2.973  19.648  0.00  0.00    +0.000 N 
ATOM     23  C   UNL     1       2.768   4.164  18.765  0.00  0.00    +0.000 C 
BRANCH  22  24
ATOM     24  C   UNL     1       2.567   2.991  20.971  0.00  0.00    +0.000 C 
ATOM     25  N   UNL     1       2.383   2.990  22.114  0.00  0.00    +0.000 NA
ENDBRANCH  22  24
ENDBRANCH  18  19
ENDBRANCH  15  18
ENDBRANCH   3  14
TORSDOF 6
ENDMDL
MODEL 6
REMARK VINA RESULT:      -7.5      6.041      9.154
REMARK  Name = 
REMARK  7 active torsions:
REMARK  status: ('A' for Active; 'I' for Inactive)
REMARK    1  A    between atoms: C_1  and  O_2
REMARK    2  A    between atoms: O_2  and  C_3
REMARK    3  A    between atoms: C_7  and  C_8
REMARK    4  A    between atoms: C_10  and  N_11
REMARK    5  A    between atoms: C_12  and  C_14
REMARK    6  A    between atoms: C_14  and  C_15
REMARK    7  A    between atoms: N_18  and  C_19
REMARK                            x       y       z     vdW  Elec       q    Type
REMARK                         _______ _______ _______ _____ _____    ______ ____
ROOT
ATOM      1  C   UNL     1       6.685   6.179  18.058  0.00  0.00    +0.000 A 
ATOM      2  C   UNL     1       6.694   7.433  17.384  0.00  0.00    +0.000 A 
ATOM      3  C   UNL     1       7.806   8.083  17.854  0.00  0.00    +0.000 A 
ATOM      4  O   UNL     1       8.458   7.263  18.719  0.00  0.00    +0.000 OA
ATOM      5  N   UNL     1       7.771   6.068  18.836  0.00  0.00    +0.000 NA
ENDROOT
BRANCH   1  10
ATOM      6  C   UNL     1       4.451   3.347  19.146  0.00  0.00    +0.000 A 
ATOM      7  C   UNL     1       3.821   3.024  17.943  0.00  0.00    +0.000 A 
ATOM      8  C   UNL     1       4.087   3.756  16.786  0.00  0.00    +0.000 A 
ATOM      9  C   UNL     1       5.005   4.808  16.821  0.00  0.00    +0.000 A 
ATOM     10  C   UNL     1       5.655   5.141  18.017  0.00  0.00    +0.000 A 
ATOM     11  C   UNL     1       5.354   4.413  19.181  0.00  0.00    +0.000 A 
BRANCH   6  13
ATOM     12  C   UNL     1       2.838   2.725  20.777  0.00  0.00    +0.000 C 
ATOM     13  O   UNL     1       4.128   2.542  20.205  0.00  0.00    +0.000 OA
ENDBRANCH   6  13
ENDBRANCH   1  10
BRANCH   3  14
ATOM     14  N   UNL     1       8.274   9.347  17.578  0.00  0.00    +0.000 N 
ATOM     15  C   UNL     1       8.920  10.137  18.514  0.00  0.00    +0.000 C 
ATOM     16  O   UNL     1       9.176   9.830  19.672  0.00  0.00    +0.000 OA
ATOM     17  H   UNL     1       8.108   9.711  16.650  0.00  0.00    +0.000 HD
BRANCH  15  18
ATOM     18  C   UNL     1       9.304  11.497  17.935  0.00  0.00    +0.000 C 
BRANCH  18  19
ATOM     19  C   UNL     1      10.684  11.992  18.401  0.00  0.00    +0.000 C 
ATOM     20  C   UNL     1      11.482  12.637  17.264  0.00  0.00    +0.000 C 
ATOM     21  C   UNL     1      11.091  14.113  17.269  0.00  0.00    +0.000 C 
ATOM     22  N   UNL     1      10.443  14.347  18.580  0.00  0.00    +0.000 N 
ATOM     23  C   UNL     1      10.603  13.133  19.417  0.00  0.00    +0.000 C 
BRANCH  22  24
ATOM     24  C   UNL     1       9.676  15.400  18.883  0.00  0.00    +0.000 C 
ATOM     25  N   UNL     1       9.027  16.317  19.163  0.00  0.00    +0.000 NA
ENDBRANCH  22  24
ENDBRANCH  18  19
ENDBRANCH  15  18
ENDBRANCH   3  14
TORSDOF 6
ENDMDL
MODEL 7
REMARK VINA RESULT:      -7.5      5.167      8.508
REMARK  Name = 
REMARK  7 active torsions:
REMARK  status: ('A' for Active; 'I' for Inactive)
REMARK    1  A    between atoms: C_1  and  O_2
REMARK    2  A    between atoms: O_2  and  C_3
REMARK    3  A    between atoms: C_7  and  C_8
REMARK    4  A    between atoms: C_10  and  N_11
REMARK    5  A    between atoms: C_12  and  C_14
REMARK    6  A    between atoms: C_14  and  C_15
REMARK    7  A    between atoms: N_18  and  C_19
REMARK                            x       y       z     vdW  Elec       q    Type
REMARK                         _______ _______ _______ _____ _____    ______ ____
ROOT
ATOM      1  C   UNL     1       5.784   5.351  17.625  0.00  0.00    +0.000 A 
ATOM      2  C   UNL     1       5.750   6.757  17.845  0.00  0.00    +0.000 A 
ATOM      3  C   UNL     1       6.873   7.243  17.226  0.00  0.00    +0.000 A 
ATOM      4  O   UNL     1       7.522   6.211  16.626  0.00  0.00    +0.000 OA
ATOM      5  N   UNL     1       6.837   5.031  16.858  0.00  0.00    +0.000 NA
ENDROOT
BRANCH   1  10
ATOM      6  C   UNL     1       2.675   3.310  18.227  0.00  0.00    +0.000 A 
ATOM      7  C   UNL     1       3.080   2.512  19.298  0.00  0.00    +0.000 A 
ATOM      8  C   UNL     1       4.380   2.603  19.796  0.00  0.00    +0.000 A 
ATOM      9  C   UNL     1       5.280   3.513  19.236  0.00  0.00    +0.000 A 
ATOM     10  C   UNL     1       4.888   4.330  18.167  0.00  0.00    +0.000 A 
ATOM     11  C   UNL     1       3.585   4.204  17.657  0.00  0.00    +0.000 A 
BRANCH   6  13
ATOM     12  C   UNL     1       0.541   2.379  18.705  0.00  0.00    +0.000 C 
ATOM     13  O   UNL     1       1.371   3.148  17.843  0.00  0.00    +0.000 OA
ENDBRANCH   6  13
ENDBRANCH   1  10
BRANCH   3  14
ATOM     14  N   UNL     1       7.362   8.527  17.163  0.00  0.00    +0.000 N 
ATOM     15  C   UNL     1       8.293   9.027  18.058  0.00  0.00    +0.000 C 
ATOM     16  O   UNL     1       8.810   8.417  18.986  0.00  0.00    +0.000 OA
ATOM     17  H   UNL     1       6.995   9.129  16.440  0.00  0.00    +0.000 HD
BRANCH  15  18
ATOM     18  C   UNL     1       8.632  10.486  17.762  0.00  0.00    +0.000 C 
BRANCH  18  19
ATOM     19  C   UNL     1       9.720  11.061  18.685  0.00  0.00    +0.000 C 
ATOM     20  C   UNL     1      10.965  11.500  17.909  0.00  0.00    +0.000 C 
ATOM     21  C   UNL     1      10.715  12.952  17.510  0.00  0.00    +0.000 C 
ATOM     22  N   UNL     1       9.594  13.410  18.364  0.00  0.00    +0.000 N 
ATOM     23  C   UNL     1       9.302  12.363  19.372  0.00  0.00    +0.000 C 
BRANCH  22  24
ATOM     24  C   UNL     1       8.849  14.497  18.137  0.00  0.00    +0.000 C 
ATOM     25  N   UNL     1       8.219  15.445  17.925  0.00  0.00    +0.000 NA
ENDBRANCH  22  24
ENDBRANCH  18  19
ENDBRANCH  15  18
ENDBRANCH   3  14
TORSDOF 6
ENDMDL
MODEL 8
REMARK VINA RESULT:      -7.3      4.495      9.306
REMARK  Name = 
REMARK  7 active torsions:
REMARK  status: ('A' for Active; 'I' for Inactive)
REMARK    1  A    between atoms: C_1  and  O_2
REMARK    2  A    between atoms: O_2  and  C_3
REMARK    3  A    between atoms: C_7  and  C_8
REMARK    4  A    between atoms: C_10  and  N_11
REMARK    5  A    between atoms: C_12  and  C_14
REMARK    6  A    between atoms: C_14  and  C_15
REMARK    7  A    between atoms: N_18  and  C_19
REMARK                            x       y       z     vdW  Elec       q    Type
REMARK                         _______ _______ _______ _____ _____    ______ ____
ROOT
ATOM      1  C   UNL     1       0.916   9.326  19.808  0.00  0.00    +0.000 A 
ATOM      2  C   UNL     1       1.907   8.304  19.824  0.00  0.00    +0.000 A 
ATOM      3  C   UNL     1       2.228   8.097  18.506  0.00  0.00    +0.000 A 
ATOM      4  O   UNL     1       1.517   8.968  17.742  0.00  0.00    +0.000 OA
ATOM      5  N   UNL     1       0.710   9.748  18.552  0.00  0.00    +0.000 NA
ENDROOT
BRANCH   1  10
ATOM      6  C   UNL     1      -1.188  11.651  21.897  0.00  0.00    +0.000 A 
ATOM      7  C   UNL     1      -1.200  10.978  23.120  0.00  0.00    +0.000 A 
ATOM      8  C   UNL     1      -0.563   9.744  23.254  0.00  0.00    +0.000 A 
ATOM      9  C   UNL     1       0.111   9.184  22.167  0.00  0.00    +0.000 A 
ATOM     10  C   UNL     1       0.143   9.851  20.934  0.00  0.00    +0.000 A 
ATOM     11  C   UNL     1      -0.529  11.078  20.806  0.00  0.00    +0.000 A 
BRANCH   6  13
ATOM     12  C   UNL     1      -1.036  14.001  22.225  0.00  0.00    +0.000 C 
ATOM     13  O   UNL     1      -1.825  12.863  21.895  0.00  0.00    +0.000 OA
ENDBRANCH   6  13
ENDBRANCH   1  10
BRANCH   3  14
ATOM     14  N   UNL     1       3.093   7.191  17.939  0.00  0.00    +0.000 N 
ATOM     15  C   UNL     1       2.892   5.821  17.986  0.00  0.00    +0.000 C 
ATOM     16  O   UNL     1       1.944   5.242  18.500  0.00  0.00    +0.000 OA
ATOM     17  H   UNL     1       3.921   7.557  17.493  0.00  0.00    +0.000 HD
BRANCH  15  18
ATOM     18  C   UNL     1       4.025   5.063  17.296  0.00  0.00    +0.000 C 
BRANCH  18  19
ATOM     19  C   UNL     1       5.239   5.948  16.964  0.00  0.00    +0.000 C 
ATOM     20  C   UNL     1       6.553   5.337  17.461  0.00  0.00    +0.000 C 
ATOM     21  C   UNL     1       7.052   4.446  16.326  0.00  0.00    +0.000 C 
ATOM     22  N   UNL     1       6.284   4.862  15.129  0.00  0.00    +0.000 N 
ATOM     23  C   UNL     1       5.499   6.075  15.462  0.00  0.00    +0.000 C 
BRANCH  22  24
ATOM     24  C   UNL     1       6.169   4.150  14.003  0.00  0.00    +0.000 C 
ATOM     25  N   UNL     1       6.058   3.552  13.017  0.00  0.00    +0.000 NA
ENDBRANCH  22  24
ENDBRANCH  18  19
ENDBRANCH  15  18
ENDBRANCH   3  14
TORSDOF 6
ENDMDL
MODEL 9
REMARK VINA RESULT:      -7.3      5.861      7.874
REMARK  Name = 
REMARK  7 active torsions:
REMARK  status: ('A' for Active; 'I' for Inactive)
REMARK    1  A    between atoms: C_1  and  O_2
REMARK    2  A    between atoms: O_2  and  C_3
REMARK    3  A    between atoms: C_7  and  C_8
REMARK    4  A    between atoms: C_10  and  N_11
REMARK    5  A    between atoms: C_12  and  C_14
REMARK    6  A    between atoms: C_14  and  C_15
REMARK    7  A    between atoms: N_18  and  C_19
REMARK                            x       y       z     vdW  Elec       q    Type
REMARK                         _______ _______ _______ _____ _____    ______ ____
ROOT
ATOM      1  C   UNL     1       2.457   7.733  18.161  0.00  0.00    +0.000 A 
ATOM      2  C   UNL     1       1.596   8.113  19.229  0.00  0.00    +0.000 A 
ATOM      3  C   UNL     1       1.312   9.436  19.006  0.00  0.00    +0.000 A 
ATOM      4  O   UNL     1       1.918   9.824  17.854  0.00  0.00    +0.000 OA
ATOM      5  N   UNL     1       2.620   8.760  17.314  0.00  0.00    +0.000 NA
ENDROOT
BRANCH   1  10
ATOM      6  C   UNL     1       5.135   5.254  17.222  0.00  0.00    +0.000 A 
ATOM      7  C   UNL     1       4.466   4.045  17.428  0.00  0.00    +0.000 A 
ATOM      8  C   UNL     1       3.160   4.034  17.916  0.00  0.00    +0.000 A 
ATOM      9  C   UNL     1       2.504   5.237  18.184  0.00  0.00    +0.000 A 
ATOM     10  C   UNL     1       3.155   6.460  17.973  0.00  0.00    +0.000 A 
ATOM     11  C   UNL     1       4.481   6.455  17.510  0.00  0.00    +0.000 A 
BRANCH   6  13
ATOM     12  C   UNL     1       7.412   4.704  17.621  0.00  0.00    +0.000 C 
ATOM     13  O   UNL     1       6.402   5.138  16.718  0.00  0.00    +0.000 OA
ENDBRANCH   6  13
ENDBRANCH   1  10
BRANCH   3  14
ATOM     14  N   UNL     1       0.565  10.318  19.752  0.00  0.00    +0.000 N 
ATOM     15  C   UNL     1      -0.702  10.737  19.384  0.00  0.00    +0.000 C 
ATOM     16  O   UNL     1      -1.325  10.383  18.391  0.00  0.00    +0.000 OA
ATOM     17  H   UNL     1       0.986  10.686  20.593  0.00  0.00    +0.000 HD
BRANCH  15  18
ATOM     18  C   UNL     1      -1.279  11.733  20.388  0.00  0.00    +0.000 C 
BRANCH  18  19
ATOM     19  C   UNL     1      -0.465  11.830  21.690  0.00  0.00    +0.000 C 
ATOM     20  C   UNL     1      -0.230  13.280  22.120  0.00  0.00    +0.000 C 
ATOM     21  C   UNL     1      -1.429  13.653  22.991  0.00  0.00    +0.000 C 
ATOM     22  N   UNL     1      -2.068  12.368  23.357  0.00  0.00    +0.000 N 
ATOM     23  C   UNL     1      -1.199  11.255  22.903  0.00  0.00    +0.000 C 
BRANCH  22  24
ATOM     24  C   UNL     1      -3.309  12.235  23.838  0.00  0.00    +0.000 C 
ATOM     25  N   UNL     1      -4.374  12.109  24.274  0.00  0.00    +0.000 NA
ENDBRANCH  22  24
ENDBRANCH  18  19
ENDBRANCH  15  18
ENDBRANCH   3  14
TORSDOF 6
ENDMDL
