MODEL 1
REMARK VINA RESULT:      -6.2      0.000      0.000
REMARK  Name = 
REMARK  9 active torsions:
REMARK  status: ('A' for Active; 'I' for Inactive)
REMARK    1  A    between atoms: C_1  and  C_2
REMARK    2  A    between atoms: C_2  and  O_3
REMARK    3  A    between atoms: O_3  and  C_4
REMARK    4  A    between atoms: C_9  and  O_10
REMARK    5  A    between atoms: O_10  and  C_11
REMARK    6  A    between atoms: C_11  and  C_12
REMARK    7  A    between atoms: C_18  and  C_19
REMARK    8  A    between atoms: C_22  and  C_23
REMARK    9  A    between atoms: C_25  and  C_26
REMARK                            x       y       z     vdW  Elec       q    Type
REMARK                         _______ _______ _______ _____ _____    ______ ____
ROOT
ATOM      1  C   UNL     1       7.063  14.682  21.129  0.00  0.00    +0.000 A 
ATOM      2  C   UNL     1       8.309  15.071  21.662  0.00  0.00    +0.000 A 
ATOM      3  C   UNL     1       9.239  15.751  20.884  0.00  0.00    +0.000 A 
ATOM      4  C   UNL     1       8.922  16.095  19.565  0.00  0.00    +0.000 A 
ATOM      5  C   UNL     1       7.643  15.842  19.059  0.00  0.00    +0.000 A 
ATOM      6  C   UNL     1       6.714  15.104  19.811  0.00  0.00    +0.000 A 
ATOM      7  N   UNL     1       9.953  16.607  18.712  0.00  0.00    +0.000 N 
ATOM      8  C   UNL     1       9.874  17.575  17.781  0.00  0.00    +0.000 A 
ATOM      9  C   UNL     1      11.105  17.716  17.164  0.00  0.00    +0.000 A 
ATOM     10  C   UNL     1      11.942  16.768  17.728  0.00  0.00    +0.000 A 
ATOM     11  C   UNL     1      11.195  16.089  18.675  0.00  0.00    +0.000 A 
ATOM     12  C   UNL     1      11.684  14.922  19.531  0.00  0.00    +0.000 C 
ATOM     13  N   UNL     1      11.708  15.307  20.955  0.00  0.00    +0.000 NA
ATOM     14  C   UNL     1      10.590  16.125  21.466  0.00  0.00    +0.000 C 
ATOM     15  H   UNL     1      12.606  15.784  21.199  0.00  0.00    +0.000 HD
ENDROOT
BRANCH  12  16
ATOM     16  C   UNL     1      10.945  13.567  19.333  0.00  0.00    +0.000 A 
ATOM     17  C   UNL     1      10.565  12.802  20.464  0.00  0.00    +0.000 A 
ATOM     18  C   UNL     1       9.956  11.558  20.343  0.00  0.00    +0.000 A 
ATOM     19  C   UNL     1       9.707  11.005  19.096  0.00  0.00    +0.000 A 
ATOM     20  C   UNL     1       9.077   9.641  19.005  0.00  0.00    +0.000 C 
ATOM     21  C   UNL     1      10.078  11.721  17.950  0.00  0.00    +0.000 A 
ATOM     22  C   UNL     1      10.696  12.992  18.050  0.00  0.00    +0.000 A 
ATOM     23  C   UNL     1      11.116  13.680  16.780  0.00  0.00    +0.000 C 
ENDBRANCH  12  16
BRANCH   1  24
ATOM     24  O   UNL     1       6.205  13.914  21.855  0.00  0.00    +0.000 OA
BRANCH  24  26
ATOM     25  C   UNL     1       7.122  11.995  23.041  0.00  0.00    +0.000 C 
ATOM     26  C   UNL     1       6.415  13.350  23.103  0.00  0.00    +0.000 C 
ENDBRANCH  24  26
ENDBRANCH   1  24
BRANCH   6  27
ATOM     27  O   UNL     1       5.537  14.798  19.197  0.00  0.00    +0.000 OA
BRANCH  27  28
ATOM     28  C   UNL     1       5.262  14.922  17.856  0.00  0.00    +0.000 C 
ATOM     29  C   UNL     1       3.851  15.446  17.640  0.00  0.00    +0.000 C 
ENDBRANCH  27  28
ENDBRANCH   6  27
TORSDOF 5
ENDMDL
MODEL 2
REMARK VINA RESULT:      -6.1      7.573     11.172
REMARK  Name = 
REMARK  9 active torsions:
REMARK  status: ('A' for Active; 'I' for Inactive)
REMARK    1  A    between atoms: C_1  and  C_2
REMARK    2  A    between atoms: C_2  and  O_3
REMARK    3  A    between atoms: O_3  and  C_4
REMARK    4  A    between atoms: C_9  and  O_10
REMARK    5  A    between atoms: O_10  and  C_11
REMARK    6  A    between atoms: C_11  and  C_12
REMARK    7  A    between atoms: C_18  and  C_19
REMARK    8  A    between atoms: C_22  and  C_23
REMARK    9  A    between atoms: C_25  and  C_26
REMARK                            x       y       z     vdW  Elec       q    Type
REMARK                         _______ _______ _______ _____ _____    ______ ____
ROOT
ATOM      1  C   UNL     1      -0.559  10.391  18.654  0.00  0.00    +0.000 A 
ATOM      2  C   UNL     1      -0.413  10.425  20.056  0.00  0.00    +0.000 A 
ATOM      3  C   UNL     1      -1.207  11.256  20.837  0.00  0.00    +0.000 A 
ATOM      4  C   UNL     1      -2.197  12.040  20.233  0.00  0.00    +0.000 A 
ATOM      5  C   UNL     1      -2.453  11.919  18.863  0.00  0.00    +0.000 A 
ATOM      6  C   UNL     1      -1.620  11.131  18.052  0.00  0.00    +0.000 A 
ATOM      7  N   UNL     1      -2.866  13.039  21.011  0.00  0.00    +0.000 N 
ATOM      8  C   UNL     1      -4.160  13.405  20.981  0.00  0.00    +0.000 A 
ATOM      9  C   UNL     1      -4.362  14.443  21.875  0.00  0.00    +0.000 A 
ATOM     10  C   UNL     1      -3.129  14.728  22.436  0.00  0.00    +0.000 A 
ATOM     11  C   UNL     1      -2.220  13.850  21.871  0.00  0.00    +0.000 A 
ATOM     12  C   UNL     1      -0.720  13.812  22.152  0.00  0.00    +0.000 C 
ATOM     13  N   UNL     1      -0.356  12.545  22.815  0.00  0.00    +0.000 NA
ATOM     14  C   UNL     1      -1.006  11.308  22.341  0.00  0.00    +0.000 C 
ATOM     15  H   UNL     1      -0.487  12.614  23.850  0.00  0.00    +0.000 HD
ENDROOT
BRANCH  12  16
ATOM     16  C   UNL     1       0.215  14.094  20.940  0.00  0.00    +0.000 A 
ATOM     17  C   UNL     1       1.413  13.353  20.788  0.00  0.00    +0.000 A 
ATOM     18  C   UNL     1       2.312  13.605  19.758  0.00  0.00    +0.000 A 
ATOM     19  C   UNL     1       2.074  14.613  18.836  0.00  0.00    +0.000 A 
ATOM     20  C   UNL     1       3.087  14.879  17.754  0.00  0.00    +0.000 C 
ATOM     21  C   UNL     1       0.907  15.379  18.955  0.00  0.00    +0.000 A 
ATOM     22  C   UNL     1      -0.025  15.137  19.994  0.00  0.00    +0.000 A 
ATOM     23  C   UNL     1      -1.228  16.034  20.094  0.00  0.00    +0.000 C 
ENDBRANCH  12  16
BRANCH   1  24
ATOM     24  O   UNL     1       0.299   9.667  17.883  0.00  0.00    +0.000 OA
BRANCH  24  26
ATOM     25  C   UNL     1       2.214   8.165  17.977  0.00  0.00    +0.000 C 
ATOM     26  C   UNL     1       1.680   9.598  17.981  0.00  0.00    +0.000 C 
ENDBRANCH  24  26
ENDBRANCH   1  24
BRANCH   6  27
ATOM     27  O   UNL     1      -1.864  11.165  16.712  0.00  0.00    +0.000 OA
BRANCH  27  28
ATOM     28  C   UNL     1      -3.089  11.029  16.103  0.00  0.00    +0.000 C 
ATOM     29  C   UNL     1      -2.973  10.205  14.831  0.00  0.00    +0.000 C 
ENDBRANCH  27  28
ENDBRANCH   6  27
TORSDOF 5
ENDMDL
MODEL 3
REMARK VINA RESULT:      -6.0      1.754      3.987
REMARK  Name = 
REMARK  9 active torsions:
REMARK  status: ('A' for Active; 'I' for Inactive)
REMARK    1  A    between atoms: C_1  and  C_2
REMARK    2  A    between atoms: C_2  and  O_3
REMARK    3  A    between atoms: O_3  and  C_4
REMARK    4  A    between atoms: C_9  and  O_10
REMARK    5  A    between atoms: O_10  and  C_11
REMARK    6  A    between atoms: C_11  and  C_12
REMARK    7  A    between atoms: C_18  and  C_19
REMARK    8  A    between atoms: C_22  and  C_23
REMARK    9  A    between atoms: C_25  and  C_26
REMARK                            x       y       z     vdW  Elec       q    Type
REMARK                         _______ _______ _______ _____ _____    ______ ____
ROOT
ATOM      1  C   UNL     1       7.140  16.514  18.696  0.00  0.00    +0.000 A 
ATOM      2  C   UNL     1       8.474  16.778  19.063  0.00  0.00    +0.000 A 
ATOM      3  C   UNL     1       9.459  15.806  18.927  0.00  0.00    +0.000 A 
ATOM      4  C   UNL     1       9.134  14.560  18.377  0.00  0.00    +0.000 A 
ATOM      5  C   UNL     1       7.848  14.324  17.879  0.00  0.00    +0.000 A 
ATOM      6  C   UNL     1       6.829  15.273  18.064  0.00  0.00    +0.000 A 
ATOM      7  N   UNL     1      10.098  13.502  18.431  0.00  0.00    +0.000 N 
ATOM      8  C   UNL     1      10.373  12.564  17.507  0.00  0.00    +0.000 A 
ATOM      9  C   UNL     1      11.349  11.714  17.997  0.00  0.00    +0.000 A 
ATOM     10  C   UNL     1      11.643  12.144  19.280  0.00  0.00    +0.000 A 
ATOM     11  C   UNL     1      10.842  13.246  19.524  0.00  0.00    +0.000 A 
ATOM     12  C   UNL     1      10.785  14.039  20.828  0.00  0.00    +0.000 C 
ATOM     13  N   UNL     1      11.275  15.413  20.613  0.00  0.00    +0.000 NA
ATOM     14  C   UNL     1      10.883  16.098  19.366  0.00  0.00    +0.000 C 
ATOM     15  H   UNL     1      12.316  15.457  20.702  0.00  0.00    +0.000 HD
ENDROOT
BRANCH  12  16
ATOM     16  C   UNL     1       9.417  14.046  21.570  0.00  0.00    +0.000 A 
ATOM     17  C   UNL     1       8.936  15.248  22.147  0.00  0.00    +0.000 A 
ATOM     18  C   UNL     1       7.750  15.297  22.870  0.00  0.00    +0.000 A 
ATOM     19  C   UNL     1       6.989  14.155  23.070  0.00  0.00    +0.000 A 
ATOM     20  C   UNL     1       5.728  14.240  23.887  0.00  0.00    +0.000 C 
ATOM     21  C   UNL     1       7.433  12.942  22.528  0.00  0.00    +0.000 A 
ATOM     22  C   UNL     1       8.636  12.869  21.783  0.00  0.00    +0.000 A 
ATOM     23  C   UNL     1       9.080  11.524  21.278  0.00  0.00    +0.000 C 
ENDBRANCH  12  16
BRANCH   1  24
ATOM     24  O   UNL     1       6.158  17.425  18.941  0.00  0.00    +0.000 OA
BRANCH  24  26
ATOM     25  C   UNL     1       4.979  16.968  21.022  0.00  0.00    +0.000 C 
ATOM     26  C   UNL     1       5.772  17.953  20.163  0.00  0.00    +0.000 C 
ENDBRANCH  24  26
ENDBRANCH   1  24
BRANCH   6  27
ATOM     27  O   UNL     1       5.580  14.913  17.658  0.00  0.00    +0.000 OA
BRANCH  27  28
ATOM     28  C   UNL     1       4.538  14.531  18.469  0.00  0.00    +0.000 C 
ATOM     29  C   UNL     1       3.236  15.168  18.015  0.00  0.00    +0.000 C 
ENDBRANCH  27  28
ENDBRANCH   6  27
TORSDOF 5
ENDMDL
MODEL 4
REMARK VINA RESULT:      -6.0      1.770      4.065
REMARK  Name = 
REMARK  9 active torsions:
REMARK  status: ('A' for Active; 'I' for Inactive)
REMARK    1  A    between atoms: C_1  and  C_2
REMARK    2  A    between atoms: C_2  and  O_3
REMARK    3  A    between atoms: O_3  and  C_4
REMARK    4  A    between atoms: C_9  and  O_10
REMARK    5  A    between atoms: O_10  and  C_11
REMARK    6  A    between atoms: C_11  and  C_12
REMARK    7  A    between atoms: C_18  and  C_19
REMARK    8  A    between atoms: C_22  and  C_23
REMARK    9  A    between atoms: C_25  and  C_26
REMARK                            x       y       z     vdW  Elec       q    Type
REMARK                         _______ _______ _______ _____ _____    ______ ____
ROOT
ATOM      1  C   UNL     1       7.318  16.889  19.004  0.00  0.00    +0.000 A 
ATOM      2  C   UNL     1       8.702  17.088  18.824  0.00  0.00    +0.000 A 
ATOM      3  C   UNL     1       9.542  16.024  18.515  0.00  0.00    +0.000 A 
ATOM      4  C   UNL     1       9.006  14.744  18.336  0.00  0.00    +0.000 A 
ATOM      5  C   UNL     1       7.621  14.549  18.373  0.00  0.00    +0.000 A 
ATOM      6  C   UNL     1       6.766  15.600  18.743  0.00  0.00    +0.000 A 
ATOM      7  N   UNL     1       9.894  13.626  18.223  0.00  0.00    +0.000 N 
ATOM      8  C   UNL     1       9.788  12.541  17.435  0.00  0.00    +0.000 A 
ATOM      9  C   UNL     1      10.852  11.691  17.683  0.00  0.00    +0.000 A 
ATOM     10  C   UNL     1      11.604  12.279  18.686  0.00  0.00    +0.000 A 
ATOM     11  C   UNL     1      10.977  13.471  19.008  0.00  0.00    +0.000 A 
ATOM     12  C   UNL     1      11.420  14.450  20.093  0.00  0.00    +0.000 C 
ATOM     13  N   UNL     1      11.836  15.729  19.489  0.00  0.00    +0.000 NA
ATOM     14  C   UNL     1      11.036  16.253  18.365  0.00  0.00    +0.000 C 
ATOM     15  H   UNL     1      12.839  15.695  19.194  0.00  0.00    +0.000 HD
ENDROOT
BRANCH  12  16
ATOM     16  C   UNL     1      10.416  14.685  21.259  0.00  0.00    +0.000 A 
ATOM     17  C   UNL     1      10.303  15.973  21.840  0.00  0.00    +0.000 A 
ATOM     18  C   UNL     1       9.466  16.225  22.921  0.00  0.00    +0.000 A 
ATOM     19  C   UNL     1       8.711  15.210  23.489  0.00  0.00    +0.000 A 
ATOM     20  C   UNL     1       7.842  15.512  24.680  0.00  0.00    +0.000 C 
ATOM     21  C   UNL     1       8.801  13.918  22.954  0.00  0.00    +0.000 A 
ATOM     22  C   UNL     1       9.644  13.640  21.850  0.00  0.00    +0.000 A 
ATOM     23  C   UNL     1       9.732  12.220  21.362  0.00  0.00    +0.000 C 
ENDBRANCH  12  16
BRANCH   1  24
ATOM     24  O   UNL     1       6.519  17.909  19.423  0.00  0.00    +0.000 OA
BRANCH  24  26
ATOM     25  C   UNL     1       6.150  17.591  21.809  0.00  0.00    +0.000 C 
ATOM     26  C   UNL     1       6.513  18.533  20.661  0.00  0.00    +0.000 C 
ENDBRANCH  24  26
ENDBRANCH   1  24
BRANCH   6  27
ATOM     27  O   UNL     1       5.444  15.294  18.874  0.00  0.00    +0.000 OA
BRANCH  27  28
ATOM     28  C   UNL     1       4.555  15.072  17.850  0.00  0.00    +0.000 C 
ATOM     29  C   UNL     1       3.369  14.253  18.331  0.00  0.00    +0.000 C 
ENDBRANCH  27  28
ENDBRANCH   6  27
TORSDOF 5
ENDMDL
MODEL 5
REMARK VINA RESULT:      -5.9      2.026      5.231
REMARK  Name = 
REMARK  9 active torsions:
REMARK  status: ('A' for Active; 'I' for Inactive)
REMARK    1  A    between atoms: C_1  and  C_2
REMARK    2  A    between atoms: C_2  and  O_3
REMARK    3  A    between atoms: O_3  and  C_4
REMARK    4  A    between atoms: C_9  and  O_10
REMARK    5  A    between atoms: O_10  and  C_11
REMARK    6  A    between atoms: C_11  and  C_12
REMARK    7  A    between atoms: C_18  and  C_19
REMARK    8  A    between atoms: C_22  and  C_23
REMARK    9  A    between atoms: C_25  and  C_26
REMARK                            x       y       z     vdW  Elec       q    Type
REMARK                         _______ _______ _______ _____ _____    ______ ____
ROOT
ATOM      1  C   UNL     1       9.521  16.149  18.034  0.00  0.00    +0.000 A 
ATOM      2  C   UNL     1      10.658  15.317  18.079  0.00  0.00    +0.000 A 
ATOM      3  C   UNL     1      10.531  13.933  18.119  0.00  0.00    +0.000 A 
ATOM      4  C   UNL     1       9.259  13.351  18.070  0.00  0.00    +0.000 A 
ATOM      5  C   UNL     1       8.125  14.150  17.887  0.00  0.00    +0.000 A 
ATOM      6  C   UNL     1       8.232  15.550  17.905  0.00  0.00    +0.000 A 
ATOM      7  N   UNL     1       9.126  11.947  18.319  0.00  0.00    +0.000 N 
ATOM      8  C   UNL     1       8.308  11.059  17.726  0.00  0.00    +0.000 A 
ATOM      9  C   UNL     1       8.482   9.816  18.309  0.00  0.00    +0.000 A 
ATOM     10  C   UNL     1       9.420   9.979  19.315  0.00  0.00    +0.000 A 
ATOM     11  C   UNL     1       9.790  11.313  19.304  0.00  0.00    +0.000 A 
ATOM     12  C   UNL     1      10.775  11.976  20.265  0.00  0.00    +0.000 C 
ATOM     13  N   UNL     1      11.969  12.440  19.533  0.00  0.00    +0.000 NA
ATOM     14  C   UNL     1      11.768  13.057  18.208  0.00  0.00    +0.000 C 
ATOM     15  H   UNL     1      12.672  11.672  19.438  0.00  0.00    +0.000 HD
ENDROOT
BRANCH  12  16
ATOM     16  C   UNL     1      10.200  13.105  21.167  0.00  0.00    +0.000 A 
ATOM     17  C   UNL     1      10.809  14.386  21.164  0.00  0.00    +0.000 A 
ATOM     18  C   UNL     1      10.373  15.413  21.994  0.00  0.00    +0.000 A 
ATOM     19  C   UNL     1       9.323  15.217  22.878  0.00  0.00    +0.000 A 
ATOM     20  C   UNL     1       8.901  16.342  23.784  0.00  0.00    +0.000 C 
ATOM     21  C   UNL     1       8.700  13.963  22.923  0.00  0.00    +0.000 A 
ATOM     22  C   UNL     1       9.124  12.904  22.084  0.00  0.00    +0.000 A 
ATOM     23  C   UNL     1       8.446  11.569  22.226  0.00  0.00    +0.000 C 
ENDBRANCH  12  16
BRANCH   1  24
ATOM     24  O   UNL     1       9.646  17.502  18.116  0.00  0.00    +0.000 OA
BRANCH  24  26
ATOM     25  C   UNL     1      11.780  18.631  17.797  0.00  0.00    +0.000 C 
ATOM     26  C   UNL     1      10.369  18.342  17.284  0.00  0.00    +0.000 C 
ENDBRANCH  24  26
ENDBRANCH   1  24
BRANCH   6  27
ATOM     27  O   UNL     1       7.066  16.252  17.842  0.00  0.00    +0.000 OA
BRANCH  27  28
ATOM     28  C   UNL     1       6.237  16.549  18.896  0.00  0.00    +0.000 C 
ATOM     29  C   UNL     1       5.007  15.656  18.886  0.00  0.00    +0.000 C 
ENDBRANCH  27  28
ENDBRANCH   6  27
TORSDOF 5
ENDMDL
MODEL 6
REMARK VINA RESULT:      -5.9      1.852      4.803
REMARK  Name = 
REMARK  9 active torsions:
REMARK  status: ('A' for Active; 'I' for Inactive)
REMARK    1  A    between atoms: C_1  and  C_2
REMARK    2  A    between atoms: C_2  and  O_3
REMARK    3  A    between atoms: O_3  and  C_4
REMARK    4  A    between atoms: C_9  and  O_10
REMARK    5  A    between atoms: O_10  and  C_11
REMARK    6  A    between atoms: C_11  and  C_12
REMARK    7  A    between atoms: C_18  and  C_19
REMARK    8  A    between atoms: C_22  and  C_23
REMARK    9  A    between atoms: C_25  and  C_26
REMARK                            x       y       z     vdW  Elec       q    Type
REMARK                         _______ _______ _______ _____ _____    ______ ____
ROOT
ATOM      1  C   UNL     1       9.626  12.317  19.484  0.00  0.00    +0.000 A 
ATOM      2  C   UNL     1      10.043  12.954  18.298  0.00  0.00    +0.000 A 
ATOM      3  C   UNL     1      10.657  14.201  18.335  0.00  0.00    +0.000 A 
ATOM      4  C   UNL     1      10.908  14.816  19.567  0.00  0.00    +0.000 A 
ATOM      5  C   UNL     1      10.628  14.142  20.761  0.00  0.00    +0.000 A 
ATOM      6  C   UNL     1       9.954  12.911  20.740  0.00  0.00    +0.000 A 
ATOM      7  N   UNL     1      11.348  16.179  19.588  0.00  0.00    +0.000 N 
ATOM      8  C   UNL     1      12.246  16.763  20.403  0.00  0.00    +0.000 A 
ATOM      9  C   UNL     1      12.332  18.110  20.096  0.00  0.00    +0.000 A 
ATOM     10  C   UNL     1      11.422  18.344  19.079  0.00  0.00    +0.000 A 
ATOM     11  C   UNL     1      10.819  17.131  18.795  0.00  0.00    +0.000 A 
ATOM     12  C   UNL     1       9.714  16.900  17.767  0.00  0.00    +0.000 C 
ATOM     13  N   UNL     1      10.202  16.030  16.679  0.00  0.00    +0.000 NA
ATOM     14  C   UNL     1      11.062  14.888  17.043  0.00  0.00    +0.000 C 
ATOM     15  H   UNL     1      10.688  16.590  15.942  0.00  0.00    +0.000 HD
ENDROOT
BRANCH  12  16
ATOM     16  C   UNL     1       8.354  16.387  18.322  0.00  0.00    +0.000 A 
ATOM     17  C   UNL     1       7.671  15.341  17.652  0.00  0.00    +0.000 A 
ATOM     18  C   UNL     1       6.426  14.886  18.071  0.00  0.00    +0.000 A 
ATOM     19  C   UNL     1       5.790  15.454  19.164  0.00  0.00    +0.000 A 
ATOM     20  C   UNL     1       4.428  14.958  19.568  0.00  0.00    +0.000 C 
ATOM     21  C   UNL     1       6.424  16.499  19.849  0.00  0.00    +0.000 A 
ATOM     22  C   UNL     1       7.694  16.976  19.443  0.00  0.00    +0.000 A 
ATOM     23  C   UNL     1       8.290  18.137  20.190  0.00  0.00    +0.000 C 
ENDBRANCH  12  16
BRANCH   1  24
ATOM     24  O   UNL     1       8.919  11.154  19.437  0.00  0.00    +0.000 OA
BRANCH  24  26
ATOM     25  C   UNL     1       8.337   9.195  18.113  0.00  0.00    +0.000 C 
ATOM     26  C   UNL     1       9.353   9.911  19.003  0.00  0.00    +0.000 C 
ENDBRANCH  24  26
ENDBRANCH   1  24
BRANCH   6  27
ATOM     27  O   UNL     1       9.612  12.381  21.948  0.00  0.00    +0.000 OA
BRANCH  27  28
ATOM     28  C   UNL     1       8.655  12.865  22.808  0.00  0.00    +0.000 C 
ATOM     29  C   UNL     1       7.668  11.774  23.188  0.00  0.00    +0.000 C 
ENDBRANCH  27  28
ENDBRANCH   6  27
TORSDOF 5
ENDMDL
MODEL 7
REMARK VINA RESULT:      -5.9      1.962      4.424
REMARK  Name = 
REMARK  9 active torsions:
REMARK  status: ('A' for Active; 'I' for Inactive)
REMARK    1  A    between atoms: C_1  and  C_2
REMARK    2  A    between atoms: C_2  and  O_3
REMARK    3  A    between atoms: O_3  and  C_4
REMARK    4  A    between atoms: C_9  and  O_10
REMARK    5  A    between atoms: O_10  and  C_11
REMARK    6  A    between atoms: C_11  and  C_12
REMARK    7  A    between atoms: C_18  and  C_19
REMARK    8  A    between atoms: C_22  and  C_23
REMARK    9  A    between atoms: C_25  and  C_26
REMARK                            x       y       z     vdW  Elec       q    Type
REMARK                         _______ _______ _______ _____ _____    ______ ____
ROOT
ATOM      1  C   UNL     1       7.463  16.930  19.144  0.00  0.00    +0.000 A 
ATOM      2  C   UNL     1       8.836  16.828  18.842  0.00  0.00    +0.000 A 
ATOM      3  C   UNL     1       9.419  15.595  18.571  0.00  0.00    +0.000 A 
ATOM      4  C   UNL     1       8.628  14.441  18.553  0.00  0.00    +0.000 A 
ATOM      5  C   UNL     1       7.240  14.536  18.713  0.00  0.00    +0.000 A 
ATOM      6  C   UNL     1       6.646  15.763  19.046  0.00  0.00    +0.000 A 
ATOM      7  N   UNL     1       9.264  13.161  18.479  0.00  0.00    +0.000 N 
ATOM      8  C   UNL     1       8.875  12.063  17.805  0.00  0.00    +0.000 A 
ATOM      9  C   UNL     1       9.770  11.036  18.051  0.00  0.00    +0.000 A 
ATOM     10  C   UNL     1      10.712  11.534  18.935  0.00  0.00    +0.000 A 
ATOM     11  C   UNL     1      10.364  12.849  19.191  0.00  0.00    +0.000 A 
ATOM     12  C   UNL     1      11.089  13.797  20.144  0.00  0.00    +0.000 C 
ATOM     13  N   UNL     1      11.690  14.915  19.393  0.00  0.00    +0.000 NA
ATOM     14  C   UNL     1      10.908  15.503  18.289  0.00  0.00    +0.000 C 
ATOM     15  H   UNL     1      12.635  14.655  19.028  0.00  0.00    +0.000 HD
ENDROOT
BRANCH  12  16
ATOM     16  C   UNL     1      10.263  14.320  21.354  0.00  0.00    +0.000 A 
ATOM     17  C   UNL     1      10.481  15.634  21.840  0.00  0.00    +0.000 A 
ATOM     18  C   UNL     1       9.813  16.130  22.953  0.00  0.00    +0.000 A 
ATOM     19  C   UNL     1       8.908  15.344  23.650  0.00  0.00    +0.000 A 
ATOM     20  C   UNL     1       8.230  15.904  24.871  0.00  0.00    +0.000 C 
ATOM     21  C   UNL     1       8.670  14.034  23.213  0.00  0.00    +0.000 A 
ATOM     22  C   UNL     1       9.336  13.509  22.078  0.00  0.00    +0.000 A 
ATOM     23  C   UNL     1       9.073  12.078  21.698  0.00  0.00    +0.000 C 
ENDBRANCH  12  16
BRANCH   1  24
ATOM     24  O   UNL     1       6.921  18.119  19.525  0.00  0.00    +0.000 OA
BRANCH  24  26
ATOM     25  C   UNL     1       7.544  18.630  21.823  0.00  0.00    +0.000 C 
ATOM     26  C   UNL     1       6.441  18.474  20.776  0.00  0.00    +0.000 C 
ENDBRANCH  24  26
ENDBRANCH   1  24
BRANCH   6  27
ATOM     27  O   UNL     1       5.308  15.744  19.304  0.00  0.00    +0.000 OA
BRANCH  27  28
ATOM     28  C   UNL     1       4.666  14.941  20.215  0.00  0.00    +0.000 C 
ATOM     29  C   UNL     1       5.251  15.125  21.606  0.00  0.00    +0.000 C 
ENDBRANCH  27  28
ENDBRANCH   6  27
TORSDOF 5
ENDMDL
MODEL 8
REMARK VINA RESULT:      -5.8      1.609      3.182
REMARK  Name = 
REMARK  9 active torsions:
REMARK  status: ('A' for Active; 'I' for Inactive)
REMARK    1  A    between atoms: C_1  and  C_2
REMARK    2  A    between atoms: C_2  and  O_3
REMARK    3  A    between atoms: O_3  and  C_4
REMARK    4  A    between atoms: C_9  and  O_10
REMARK    5  A    between atoms: O_10  and  C_11
REMARK    6  A    between atoms: C_11  and  C_12
REMARK    7  A    between atoms: C_18  and  C_19
REMARK    8  A    between atoms: C_22  and  C_23
REMARK    9  A    between atoms: C_25  and  C_26
REMARK                            x       y       z     vdW  Elec       q    Type
REMARK                         _______ _______ _______ _____ _____    ______ ____
ROOT
ATOM      1  C   UNL     1       6.873  16.071  19.640  0.00  0.00    +0.000 A 
ATOM      2  C   UNL     1       8.149  16.583  19.951  0.00  0.00    +0.000 A 
ATOM      3  C   UNL     1       9.292  16.062  19.357  0.00  0.00    +0.000 A 
ATOM      4  C   UNL     1       9.178  15.044  18.402  0.00  0.00    +0.000 A 
ATOM      5  C   UNL     1       7.915  14.617  17.977  0.00  0.00    +0.000 A 
ATOM      6  C   UNL     1       6.754  15.090  18.610  0.00  0.00    +0.000 A 
ATOM      7  N   UNL     1      10.361  14.375  17.952  0.00  0.00    +0.000 N 
ATOM      8  C   UNL     1      10.665  13.940  16.715  0.00  0.00    +0.000 A 
ATOM      9  C   UNL     1      11.897  13.310  16.743  0.00  0.00    +0.000 A 
ATOM     10  C   UNL     1      12.329  13.342  18.059  0.00  0.00    +0.000 A 
ATOM     11  C   UNL     1      11.349  13.996  18.785  0.00  0.00    +0.000 A 
ATOM     12  C   UNL     1      11.364  14.237  20.293  0.00  0.00    +0.000 C 
ATOM     13  N   UNL     1      11.450  15.681  20.579  0.00  0.00    +0.000 NA
ATOM     14  C   UNL     1      10.660  16.600  19.737  0.00  0.00    +0.000 C 
ATOM     15  H   UNL     1      12.445  16.004  20.579  0.00  0.00    +0.000 HD
ENDROOT
BRANCH  12  16
ATOM     16  C   UNL     1      10.214  13.576  21.106  0.00  0.00    +0.000 A 
ATOM     17  C   UNL     1       9.591  14.297  22.156  0.00  0.00    +0.000 A 
ATOM     18  C   UNL     1       8.600  13.733  22.952  0.00  0.00    +0.000 A 
ATOM     19  C   UNL     1       8.187  12.424  22.756  0.00  0.00    +0.000 A 
ATOM     20  C   UNL     1       7.136  11.838  23.659  0.00  0.00    +0.000 C 
ATOM     21  C   UNL     1       8.784  11.671  21.737  0.00  0.00    +0.000 A 
ATOM     22  C   UNL     1       9.793  12.226  20.911  0.00  0.00    +0.000 A 
ATOM     23  C   UNL     1      10.428  11.342  19.873  0.00  0.00    +0.000 C 
ENDBRANCH  12  16
BRANCH   1  24
ATOM     24  O   UNL     1       5.769  16.502  20.310  0.00  0.00    +0.000 OA
BRANCH  24  26
ATOM     25  C   UNL     1       3.814  17.861  20.822  0.00  0.00    +0.000 C 
ATOM     26  C   UNL     1       5.286  17.797  20.414  0.00  0.00    +0.000 C 
ENDBRANCH  24  26
ENDBRANCH   1  24
BRANCH   6  27
ATOM     27  O   UNL     1       5.575  14.533  18.217  0.00  0.00    +0.000 OA
BRANCH  27  28
ATOM     28  C   UNL     1       4.522  15.188  17.624  0.00  0.00    +0.000 C 
ATOM     29  C   UNL     1       3.211  14.834  18.306  0.00  0.00    +0.000 C 
ENDBRANCH  27  28
ENDBRANCH   6  27
TORSDOF 5
ENDMDL
MODEL 9
REMARK VINA RESULT:      -5.8      8.156     11.588
REMARK  Name = 
REMARK  9 active torsions:
REMARK  status: ('A' for Active; 'I' for Inactive)
REMARK    1  A    between atoms: C_1  and  C_2
REMARK    2  A    between atoms: C_2  and  O_3
REMARK    3  A    between atoms: O_3  and  C_4
REMARK    4  A    between atoms: C_9  and  O_10
REMARK    5  A    between atoms: O_10  and  C_11
REMARK    6  A    between atoms: C_11  and  C_12
REMARK    7  A    between atoms: C_18  and  C_19
REMARK    8  A    between atoms: C_22  and  C_23
REMARK    9  A    between atoms: C_25  and  C_26
REMARK                            x       y       z     vdW  Elec       q    Type
REMARK                         _______ _______ _______ _____ _____    ______ ____
ROOT
ATOM      1  C   UNL     1       2.009   7.359  18.263  0.00  0.00    +0.000 A 
ATOM      2  C   UNL     1       1.860   6.143  17.565  0.00  0.00    +0.000 A 
ATOM      3  C   UNL     1       2.056   4.924  18.203  0.00  0.00    +0.000 A 
ATOM      4  C   UNL     1       2.364   4.896  19.568  0.00  0.00    +0.000 A 
ATOM      5  C   UNL     1       2.381   6.082  20.311  0.00  0.00    +0.000 A 
ATOM      6  C   UNL     1       2.244   7.323  19.670  0.00  0.00    +0.000 A 
ATOM      7  N   UNL     1       2.766   3.658  20.167  0.00  0.00    +0.000 N 
ATOM      8  C   UNL     1       2.468   3.175  21.386  0.00  0.00    +0.000 A 
ATOM      9  C   UNL     1       3.106   1.959  21.564  0.00  0.00    +0.000 A 
ATOM     10  C   UNL     1       3.842   1.726  20.414  0.00  0.00    +0.000 A 
ATOM     11  C   UNL     1       3.620   2.803  19.573  0.00  0.00    +0.000 A 
ATOM     12  C   UNL     1       4.255   3.010  18.200  0.00  0.00    +0.000 C 
ATOM     13  N   UNL     1       3.222   2.969  17.148  0.00  0.00    +0.000 NA
ATOM     14  C   UNL     1       1.931   3.628  17.423  0.00  0.00    +0.000 C 
ATOM     15  H   UNL     1       3.035   1.985  16.846  0.00  0.00    +0.000 HD
ENDROOT
BRANCH  12  16
ATOM     16  C   UNL     1       5.159   4.267  18.043  0.00  0.00    +0.000 A 
ATOM     17  C   UNL     1       5.656   4.925  19.196  0.00  0.00    +0.000 A 
ATOM     18  C   UNL     1       6.418   6.084  19.114  0.00  0.00    +0.000 A 
ATOM     19  C   UNL     1       6.715   6.656  17.886  0.00  0.00    +0.000 A 
ATOM     20  C   UNL     1       7.515   7.930  17.838  0.00  0.00    +0.000 C 
ATOM     21  C   UNL     1       6.235   6.046  16.720  0.00  0.00    +0.000 A 
ATOM     22  C   UNL     1       5.459   4.861  16.780  0.00  0.00    +0.000 A 
ATOM     23  C   UNL     1       4.931   4.292  15.492  0.00  0.00    +0.000 C 
ENDBRANCH  12  16
BRANCH   1  24
ATOM     24  O   UNL     1       1.933   8.550  17.608  0.00  0.00    +0.000 OA
BRANCH  24  26
ATOM     25  C   UNL     1       1.725  10.890  18.251  0.00  0.00    +0.000 C 
ATOM     26  C   UNL     1       1.042   9.588  17.830  0.00  0.00    +0.000 C 
ENDBRANCH  24  26
ENDBRANCH   1  24
BRANCH   6  27
ATOM     27  O   UNL     1       2.394   8.432  20.448  0.00  0.00    +0.000 OA
BRANCH  27  28
ATOM     28  C   UNL     1       1.664   8.744  21.570  0.00  0.00    +0.000 C 
ATOM     29  C   UNL     1       0.182   8.829  21.245  0.00  0.00    +0.000 C 
ENDBRANCH  27  28
ENDBRANCH   6  27
TORSDOF 5
ENDMDL
