MODEL 1
REMARK VINA RESULT:      -7.0      0.000      0.000
REMARK  Name = 
REMARK  5 active torsions:
REMARK  status: ('A' for Active; 'I' for Inactive)
REMARK    1  A    between atoms: C_1  and  N_2
REMARK    2  A    between atoms: N_2  and  C_3
REMARK    3  A    between atoms: C_5  and  C_6
REMARK    4  A    between atoms: C_17  and  O_18
REMARK    5  A    between atoms: O_18  and  C_19
REMARK                            x       y       z     vdW  Elec       q    Type
REMARK                         _______ _______ _______ _____ _____    ______ ____
ROOT
ATOM      1  C   UNL     1       3.289   4.819  19.820  0.00  0.00    +0.000 C 
ATOM      2  C   UNL     1       2.100   5.094  18.859  0.00  0.00    +0.000 C 
ATOM      3  C   UNL     1       2.481   6.308  17.988  0.00  0.00    +0.000 C 
ATOM      4  C   UNL     1       3.979   6.144  17.940  0.00  0.00    +0.000 A 
ATOM      5  C   UNL     1       4.861   6.753  17.058  0.00  0.00    +0.000 A 
ATOM      6  C   UNL     1       6.236   6.583  17.257  0.00  0.00    +0.000 A 
ATOM      7  C   UNL     1       6.708   5.840  18.348  0.00  0.00    +0.000 A 
ATOM      8  C   UNL     1       5.801   5.238  19.225  0.00  0.00    +0.000 A 
ATOM      9  C   UNL     1       4.436   5.343  18.996  0.00  0.00    +0.000 A 
ENDROOT
BRANCH   3  10
ATOM     10  C   UNL     1       1.991   7.626  18.569  0.00  0.00    +0.000 A 
ATOM     11  C   UNL     1       1.772   8.768  17.786  0.00  0.00    +0.000 A 
ATOM     12  C   UNL     1       1.319   9.961  18.358  0.00  0.00    +0.000 A 
ATOM     13  C   UNL     1       1.082  10.035  19.732  0.00  0.00    +0.000 A 
ATOM     14 CL   UNL     1       0.519  11.539  20.369  0.00  0.00    +0.000 Cl
ATOM     15  C   UNL     1       1.304   8.912  20.532  0.00  0.00    +0.000 A 
ATOM     16 CL   UNL     1       1.033   8.927  22.239  0.00  0.00    +0.000 Cl
ATOM     17  C   UNL     1       1.758   7.718  19.954  0.00  0.00    +0.000 A 
ENDBRANCH   3  10
BRANCH   1  19
ATOM     18  C   UNL     1       2.570   2.557  19.176  0.00  0.00    +0.000 C 
ATOM     19  N   UNL     1       3.281   3.387  20.135  0.00  0.00    +0.000 NA
ATOM     20  H   UNL     1       4.247   3.067  20.185  0.00  0.00    +0.000 HD
ENDBRANCH   1  19
BRANCH   7  21
ATOM     21  O   UNL     1       8.019   5.633  18.679  0.00  0.00    +0.000 OA
ATOM     22  C   UNL     1       8.325   5.498  20.059  0.00  0.00    +0.000 C 
ENDBRANCH   7  21
TORSDOF 3
ENDMDL
MODEL 2
REMARK VINA RESULT:      -6.8      0.884      1.626
REMARK  Name = 
REMARK  5 active torsions:
REMARK  status: ('A' for Active; 'I' for Inactive)
REMARK    1  A    between atoms: C_1  and  N_2
REMARK    2  A    between atoms: N_2  and  C_3
REMARK    3  A    between atoms: C_5  and  C_6
REMARK    4  A    between atoms: C_17  and  O_18
REMARK    5  A    between atoms: O_18  and  C_19
REMARK                            x       y       z     vdW  Elec       q    Type
REMARK                         _______ _______ _______ _____ _____    ______ ____
ROOT
ATOM      1  C   UNL     1       2.995   4.199  18.993  0.00  0.00    +0.000 C 
ATOM      2  C   UNL     1       1.956   4.918  18.090  0.00  0.00    +0.000 C 
ATOM      3  C   UNL     1       2.503   6.327  17.787  0.00  0.00    +0.000 C 
ATOM      4  C   UNL     1       3.986   6.056  17.836  0.00  0.00    +0.000 A 
ATOM      5  C   UNL     1       5.002   6.863  17.345  0.00  0.00    +0.000 A 
ATOM      6  C   UNL     1       6.330   6.506  17.606  0.00  0.00    +0.000 A 
ATOM      7  C   UNL     1       6.621   5.373  18.378  0.00  0.00    +0.000 A 
ATOM      8  C   UNL     1       5.581   4.575  18.864  0.00  0.00    +0.000 A 
ATOM      9  C   UNL     1       4.263   4.882  18.552  0.00  0.00    +0.000 A 
ENDROOT
BRANCH   3  10
ATOM     10  C   UNL     1       2.003   7.376  18.769  0.00  0.00    +0.000 A 
ATOM     11  C   UNL     1       1.818   7.113  20.135  0.00  0.00    +0.000 A 
ATOM     12  C   UNL     1       1.359   8.106  21.005  0.00  0.00    +0.000 A 
ATOM     13  C   UNL     1       1.069   9.384  20.524  0.00  0.00    +0.000 A 
ATOM     14 CL   UNL     1       0.510  10.561  21.658  0.00  0.00    +0.000 Cl
ATOM     15  C   UNL     1       1.237   9.664  19.166  0.00  0.00    +0.000 A 
ATOM     16 CL   UNL     1       0.899  11.221  18.496  0.00  0.00    +0.000 Cl
ATOM     17  C   UNL     1       1.698   8.665  18.296  0.00  0.00    +0.000 A 
ENDBRANCH   3  10
BRANCH   1  19
ATOM     18  C   UNL     1       1.547   2.213  18.939  0.00  0.00    +0.000 C 
ATOM     19  N   UNL     1       2.880   2.760  18.742  0.00  0.00    +0.000 NA
ATOM     20  H   UNL     1       3.162   2.581  17.780  0.00  0.00    +0.000 HD
ENDBRANCH   1  19
BRANCH   7  21
ATOM     21  O   UNL     1       7.867   4.938  18.740  0.00  0.00    +0.000 OA
ATOM     22  C   UNL     1       8.388   5.418  19.971  0.00  0.00    +0.000 C 
ENDBRANCH   7  21
TORSDOF 3
ENDMDL
MODEL 3
REMARK VINA RESULT:      -6.7      2.553      3.677
REMARK  Name = 
REMARK  5 active torsions:
REMARK  status: ('A' for Active; 'I' for Inactive)
REMARK    1  A    between atoms: C_1  and  N_2
REMARK    2  A    between atoms: N_2  and  C_3
REMARK    3  A    between atoms: C_5  and  C_6
REMARK    4  A    between atoms: C_17  and  O_18
REMARK    5  A    between atoms: O_18  and  C_19
REMARK                            x       y       z     vdW  Elec       q    Type
REMARK                         _______ _______ _______ _____ _____    ______ ____
ROOT
ATOM      1  C   UNL     1       6.865   5.636  18.446  0.00  0.00    +0.000 C 
ATOM      2  C   UNL     1       5.688   5.028  19.257  0.00  0.00    +0.000 C 
ATOM      3  C   UNL     1       4.458   4.991  18.329  0.00  0.00    +0.000 C 
ATOM      4  C   UNL     1       5.134   4.826  16.992  0.00  0.00    +0.000 A 
ATOM      5  C   UNL     1       4.548   4.426  15.799  0.00  0.00    +0.000 A 
ATOM      6  C   UNL     1       5.313   4.463  14.628  0.00  0.00    +0.000 A 
ATOM      7  C   UNL     1       6.634   4.929  14.659  0.00  0.00    +0.000 A 
ATOM      8  C   UNL     1       7.204   5.329  15.871  0.00  0.00    +0.000 A 
ATOM      9  C   UNL     1       6.476   5.230  17.049  0.00  0.00    +0.000 A 
ENDROOT
BRANCH   3  10
ATOM     10  C   UNL     1       3.583   6.229  18.464  0.00  0.00    +0.000 A 
ATOM     11  C   UNL     1       3.514   7.224  17.479  0.00  0.00    +0.000 A 
ATOM     12  C   UNL     1       2.696   8.345  17.640  0.00  0.00    +0.000 A 
ATOM     13  C   UNL     1       1.931   8.496  18.798  0.00  0.00    +0.000 A 
ATOM     14 CL   UNL     1       0.940   9.905  18.926  0.00  0.00    +0.000 Cl
ATOM     15  C   UNL     1       1.992   7.522  19.797  0.00  0.00    +0.000 A 
ATOM     16 CL   UNL     1       1.075   7.639  21.257  0.00  0.00    +0.000 Cl
ATOM     17  C   UNL     1       2.815   6.398  19.631  0.00  0.00    +0.000 A 
ENDBRANCH   3  10
BRANCH   1  19
ATOM     18  C   UNL     1       8.367   5.417  20.380  0.00  0.00    +0.000 C 
ATOM     19  N   UNL     1       8.110   5.083  18.989  0.00  0.00    +0.000 NA
ATOM     20  H   UNL     1       8.072   4.069  18.903  0.00  0.00    +0.000 HD
ENDBRANCH   1  19
BRANCH   7  21
ATOM     21  O   UNL     1       7.473   5.055  13.585  0.00  0.00    +0.000 OA
ATOM     22  C   UNL     1       7.162   4.291  12.428  0.00  0.00    +0.000 C 
ENDBRANCH   7  21
TORSDOF 3
ENDMDL
MODEL 4
REMARK VINA RESULT:      -6.7      4.965      6.919
REMARK  Name = 
REMARK  5 active torsions:
REMARK  status: ('A' for Active; 'I' for Inactive)
REMARK    1  A    between atoms: C_1  and  N_2
REMARK    2  A    between atoms: N_2  and  C_3
REMARK    3  A    between atoms: C_5  and  C_6
REMARK    4  A    between atoms: C_17  and  O_18
REMARK    5  A    between atoms: O_18  and  C_19
REMARK                            x       y       z     vdW  Elec       q    Type
REMARK                         _______ _______ _______ _____ _____    ______ ____
ROOT
ATOM      1  C   UNL     1       6.375   4.779  18.756  0.00  0.00    +0.000 C 
ATOM      2  C   UNL     1       6.406   6.011  17.810  0.00  0.00    +0.000 C 
ATOM      3  C   UNL     1       5.231   5.864  16.822  0.00  0.00    +0.000 C 
ATOM      4  C   UNL     1       4.253   5.101  17.678  0.00  0.00    +0.000 A 
ATOM      5  C   UNL     1       2.894   4.934  17.453  0.00  0.00    +0.000 A 
ATOM      6  C   UNL     1       2.174   4.075  18.291  0.00  0.00    +0.000 A 
ATOM      7  C   UNL     1       2.825   3.371  19.313  0.00  0.00    +0.000 A 
ATOM      8  C   UNL     1       4.195   3.553  19.520  0.00  0.00    +0.000 A 
ATOM      9  C   UNL     1       4.904   4.456  18.740  0.00  0.00    +0.000 A 
ENDROOT
BRANCH   3  10
ATOM     10  C   UNL     1       5.635   5.174  15.527  0.00  0.00    +0.000 A 
ATOM     11  C   UNL     1       4.932   4.084  14.994  0.00  0.00    +0.000 A 
ATOM     12  C   UNL     1       5.335   3.479  13.800  0.00  0.00    +0.000 A 
ATOM     13  C   UNL     1       6.456   3.951  13.116  0.00  0.00    +0.000 A 
ATOM     14 CL   UNL     1       6.892   3.157  11.645  0.00  0.00    +0.000 Cl
ATOM     15  C   UNL     1       7.177   5.029  13.635  0.00  0.00    +0.000 A 
ATOM     16 CL   UNL     1       8.575   5.669  12.846  0.00  0.00    +0.000 Cl
ATOM     17  C   UNL     1       6.770   5.633  14.833  0.00  0.00    +0.000 A 
ENDBRANCH   3  10
BRANCH   1  19
ATOM     18  C   UNL     1       8.270   5.817  19.929  0.00  0.00    +0.000 C 
ATOM     19  N   UNL     1       6.964   5.187  20.035  0.00  0.00    +0.000 NA
ATOM     20  H   UNL     1       6.326   5.842  20.484  0.00  0.00    +0.000 HD
ENDBRANCH   1  19
BRANCH   7  21
ATOM     21  O   UNL     1       2.249   2.473  20.171  0.00  0.00    +0.000 OA
ATOM     22  C   UNL     1       2.340   2.756  21.560  0.00  0.00    +0.000 C 
ENDBRANCH   7  21
TORSDOF 3
ENDMDL
MODEL 5
REMARK VINA RESULT:      -6.5      4.750      6.839
REMARK  Name = 
REMARK  5 active torsions:
REMARK  status: ('A' for Active; 'I' for Inactive)
REMARK    1  A    between atoms: C_1  and  N_2
REMARK    2  A    between atoms: N_2  and  C_3
REMARK    3  A    between atoms: C_5  and  C_6
REMARK    4  A    between atoms: C_17  and  O_18
REMARK    5  A    between atoms: O_18  and  C_19
REMARK                            x       y       z     vdW  Elec       q    Type
REMARK                         _______ _______ _______ _____ _____    ______ ____
ROOT
ATOM      1  C   UNL     1       6.411   5.093  18.985  0.00  0.00    +0.000 C 
ATOM      2  C   UNL     1       7.079   6.037  17.948  0.00  0.00    +0.000 C 
ATOM      3  C   UNL     1       6.003   6.421  16.912  0.00  0.00    +0.000 C 
ATOM      4  C   UNL     1       4.766   6.355  17.771  0.00  0.00    +0.000 A 
ATOM      5  C   UNL     1       3.518   6.890  17.487  0.00  0.00    +0.000 A 
ATOM      6  C   UNL     1       2.452   6.607  18.349  0.00  0.00    +0.000 A 
ATOM      7  C   UNL     1       2.640   5.771  19.458  0.00  0.00    +0.000 A 
ATOM      8  C   UNL     1       3.906   5.241  19.724  0.00  0.00    +0.000 A 
ATOM      9  C   UNL     1       4.984   5.572  18.915  0.00  0.00    +0.000 A 
ENDROOT
BRANCH   3  10
ATOM     10  C   UNL     1       6.000   5.501  15.700  0.00  0.00    +0.000 A 
ATOM     11  C   UNL     1       5.137   4.403  15.580  0.00  0.00    +0.000 A 
ATOM     12  C   UNL     1       5.163   3.583  14.448  0.00  0.00    +0.000 A 
ATOM     13  C   UNL     1       6.062   3.844  13.413  0.00  0.00    +0.000 A 
ATOM     14 CL   UNL     1       6.036   2.791  12.043  0.00  0.00    +0.000 Cl
ATOM     15  C   UNL     1       6.939   4.926  13.516  0.00  0.00    +0.000 A 
ATOM     16 CL   UNL     1       8.079   5.312  12.276  0.00  0.00    +0.000 Cl
ATOM     17  C   UNL     1       6.908   5.747  14.654  0.00  0.00    +0.000 A 
ENDBRANCH   3  10
BRANCH   1  19
ATOM     18  C   UNL     1       8.562   5.382  20.139  0.00  0.00    +0.000 C 
ATOM     19  N   UNL     1       7.118   5.261  20.258  0.00  0.00    +0.000 NA
ATOM     20  H   UNL     1       6.762   6.100  20.712  0.00  0.00    +0.000 HD
ENDBRANCH   1  19
BRANCH   7  21
ATOM     21  O   UNL     1       1.679   5.383  20.351  0.00  0.00    +0.000 OA
ATOM     22  C   UNL     1       1.126   4.086  20.185  0.00  0.00    +0.000 C 
ENDBRANCH   7  21
TORSDOF 3
ENDMDL
MODEL 6
REMARK VINA RESULT:      -6.4      5.093      7.049
REMARK  Name = 
REMARK  5 active torsions:
REMARK  status: ('A' for Active; 'I' for Inactive)
REMARK    1  A    between atoms: C_1  and  N_2
REMARK    2  A    between atoms: N_2  and  C_3
REMARK    3  A    between atoms: C_5  and  C_6
REMARK    4  A    between atoms: C_17  and  O_18
REMARK    5  A    between atoms: O_18  and  C_19
REMARK                            x       y       z     vdW  Elec       q    Type
REMARK                         _______ _______ _______ _____ _____    ______ ____
ROOT
ATOM      1  C   UNL     1       6.320   4.874  18.436  0.00  0.00    +0.000 C 
ATOM      2  C   UNL     1       6.221   6.063  17.441  0.00  0.00    +0.000 C 
ATOM      3  C   UNL     1       5.125   5.716  16.414  0.00  0.00    +0.000 C 
ATOM      4  C   UNL     1       4.224   4.854  17.262  0.00  0.00    +0.000 A 
ATOM      5  C   UNL     1       2.913   4.489  16.991  0.00  0.00    +0.000 A 
ATOM      6  C   UNL     1       2.283   3.568  17.835  0.00  0.00    +0.000 A 
ATOM      7  C   UNL     1       2.978   3.002  18.911  0.00  0.00    +0.000 A 
ATOM      8  C   UNL     1       4.299   3.382  19.165  0.00  0.00    +0.000 A 
ATOM      9  C   UNL     1       4.910   4.347  18.376  0.00  0.00    +0.000 A 
ENDROOT
BRANCH   3  10
ATOM     10  C   UNL     1       5.680   5.043  15.167  0.00  0.00    +0.000 A 
ATOM     11  C   UNL     1       7.054   4.935  14.907  0.00  0.00    +0.000 A 
ATOM     12  C   UNL     1       7.523   4.307  13.750  0.00  0.00    +0.000 A 
ATOM     13  C   UNL     1       6.623   3.777  12.824  0.00  0.00    +0.000 A 
ATOM     14 CL   UNL     1       7.275   3.011  11.419  0.00  0.00    +0.000 Cl
ATOM     15  C   UNL     1       5.250   3.883  13.058  0.00  0.00    +0.000 A 
ATOM     16 CL   UNL     1       4.075   3.252  11.958  0.00  0.00    +0.000 Cl
ATOM     17  C   UNL     1       4.784   4.514  14.220  0.00  0.00    +0.000 A 
ENDBRANCH   3  10
BRANCH   1  19
ATOM     18  C   UNL     1       8.200   5.749  19.757  0.00  0.00    +0.000 C 
ATOM     19  N   UNL     1       6.787   5.408  19.719  0.00  0.00    +0.000 NA
ATOM     20  H   UNL     1       6.248   6.246  19.930  0.00  0.00    +0.000 HD
ENDBRANCH   1  19
BRANCH   7  21
ATOM     21  O   UNL     1       2.495   2.064  19.783  0.00  0.00    +0.000 OA
ATOM     22  C   UNL     1       2.270   2.480  21.122  0.00  0.00    +0.000 C 
ENDBRANCH   7  21
TORSDOF 3
ENDMDL
MODEL 7
REMARK VINA RESULT:      -6.4      4.446      6.921
REMARK  Name = 
REMARK  5 active torsions:
REMARK  status: ('A' for Active; 'I' for Inactive)
REMARK    1  A    between atoms: C_1  and  N_2
REMARK    2  A    between atoms: N_2  and  C_3
REMARK    3  A    between atoms: C_5  and  C_6
REMARK    4  A    between atoms: C_17  and  O_18
REMARK    5  A    between atoms: O_18  and  C_19
REMARK                            x       y       z     vdW  Elec       q    Type
REMARK                         _______ _______ _______ _____ _____    ______ ____
ROOT
ATOM      1  C   UNL     1      -0.282   8.557  21.581  0.00  0.00    +0.000 C 
ATOM      2  C   UNL     1       1.206   8.204  21.851  0.00  0.00    +0.000 C 
ATOM      3  C   UNL     1       1.933   8.198  20.492  0.00  0.00    +0.000 C 
ATOM      4  C   UNL     1       1.115   9.220  19.744  0.00  0.00    +0.000 A 
ATOM      5  C   UNL     1       1.460   9.875  18.570  0.00  0.00    +0.000 A 
ATOM      6  C   UNL     1       0.508  10.692  17.951  0.00  0.00    +0.000 A 
ATOM      7  C   UNL     1      -0.779  10.816  18.491  0.00  0.00    +0.000 A 
ATOM      8  C   UNL     1      -1.106  10.146  19.674  0.00  0.00    +0.000 A 
ATOM      9  C   UNL     1      -0.147   9.389  20.333  0.00  0.00    +0.000 A 
ENDROOT
BRANCH   3  10
ATOM     10  C   UNL     1       1.981   6.815  19.857  0.00  0.00    +0.000 A 
ATOM     11  C   UNL     1       2.356   6.604  18.522  0.00  0.00    +0.000 A 
ATOM     12  C   UNL     1       2.389   5.317  17.977  0.00  0.00    +0.000 A 
ATOM     13  C   UNL     1       2.040   4.214  18.757  0.00  0.00    +0.000 A 
ATOM     14 CL   UNL     1       2.107   2.654  18.018  0.00  0.00    +0.000 Cl
ATOM     15  C   UNL     1       1.652   4.403  20.086  0.00  0.00    +0.000 A 
ATOM     16 CL   UNL     1       1.206   3.088  21.114  0.00  0.00    +0.000 Cl
ATOM     17  C   UNL     1       1.621   5.696  20.629  0.00  0.00    +0.000 A 
ENDBRANCH   3  10
BRANCH   1  19
ATOM     18  C   UNL     1      -0.490  10.634  22.880  0.00  0.00    +0.000 C 
ATOM     19  N   UNL     1      -0.805   9.218  22.781  0.00  0.00    +0.000 NA
ATOM     20  H   UNL     1      -1.818   9.113  22.786  0.00  0.00    +0.000 HD
ENDBRANCH   1  19
BRANCH   7  21
ATOM     21  O   UNL     1      -1.811  11.546  17.966  0.00  0.00    +0.000 OA
ATOM     22  C   UNL     1      -2.921  11.801  18.814  0.00  0.00    +0.000 C 
ENDBRANCH   7  21
TORSDOF 3
ENDMDL
MODEL 8
REMARK VINA RESULT:      -6.3      3.856      4.933
REMARK  Name = 
REMARK  5 active torsions:
REMARK  status: ('A' for Active; 'I' for Inactive)
REMARK    1  A    between atoms: C_1  and  N_2
REMARK    2  A    between atoms: N_2  and  C_3
REMARK    3  A    between atoms: C_5  and  C_6
REMARK    4  A    between atoms: C_17  and  O_18
REMARK    5  A    between atoms: O_18  and  C_19
REMARK                            x       y       z     vdW  Elec       q    Type
REMARK                         _______ _______ _______ _____ _____    ______ ____
ROOT
ATOM      1  C   UNL     1       5.826   3.820  16.237  0.00  0.00    +0.000 C 
ATOM      2  C   UNL     1       4.308   3.759  15.916  0.00  0.00    +0.000 C 
ATOM      3  C   UNL     1       3.604   4.798  16.811  0.00  0.00    +0.000 C 
ATOM      4  C   UNL     1       4.705   5.818  16.956  0.00  0.00    +0.000 A 
ATOM      5  C   UNL     1       4.582   7.129  17.396  0.00  0.00    +0.000 A 
ATOM      6  C   UNL     1       5.743   7.884  17.593  0.00  0.00    +0.000 A 
ATOM      7  C   UNL     1       7.005   7.313  17.382  0.00  0.00    +0.000 A 
ATOM      8  C   UNL     1       7.106   5.990  16.940  0.00  0.00    +0.000 A 
ATOM      9  C   UNL     1       5.958   5.255  16.675  0.00  0.00    +0.000 A 
ENDROOT
BRANCH   3  10
ATOM     10  C   UNL     1       3.097   4.202  18.117  0.00  0.00    +0.000 A 
ATOM     11  C   UNL     1       1.812   4.453  18.619  0.00  0.00    +0.000 A 
ATOM     12  C   UNL     1       1.383   3.884  19.822  0.00  0.00    +0.000 A 
ATOM     13  C   UNL     1       2.237   3.056  20.552  0.00  0.00    +0.000 A 
ATOM     14 CL   UNL     1       1.638   2.386  22.026  0.00  0.00    +0.000 Cl
ATOM     15  C   UNL     1       3.525   2.802  20.075  0.00  0.00    +0.000 A 
ATOM     16 CL   UNL     1       4.639   1.788  20.922  0.00  0.00    +0.000 Cl
ATOM     17  C   UNL     1       3.951   3.374  18.867  0.00  0.00    +0.000 A 
ENDBRANCH   3  10
BRANCH   1  19
ATOM     18  C   UNL     1       6.066   4.013  13.798  0.00  0.00    +0.000 C 
ATOM     19  N   UNL     1       6.551   3.412  15.031  0.00  0.00    +0.000 NA
ATOM     20  H   UNL     1       7.531   3.663  15.147  0.00  0.00    +0.000 HD
ENDBRANCH   1  19
BRANCH   7  21
ATOM     21  O   UNL     1       8.213   7.925  17.576  0.00  0.00    +0.000 OA
ATOM     22  C   UNL     1       8.191   9.276  18.012  0.00  0.00    +0.000 C 
ENDBRANCH   7  21
TORSDOF 3
ENDMDL
MODEL 9
REMARK VINA RESULT:      -6.1      4.923      8.192
REMARK  Name = 
REMARK  5 active torsions:
REMARK  status: ('A' for Active; 'I' for Inactive)
REMARK    1  A    between atoms: C_1  and  N_2
REMARK    2  A    between atoms: N_2  and  C_3
REMARK    3  A    between atoms: C_5  and  C_6
REMARK    4  A    between atoms: C_17  and  O_18
REMARK    5  A    between atoms: O_18  and  C_19
REMARK                            x       y       z     vdW  Elec       q    Type
REMARK                         _______ _______ _______ _____ _____    ______ ____
ROOT
ATOM      1  C   UNL     1       0.013  11.955  19.940  0.00  0.00    +0.000 C 
ATOM      2  C   UNL     1       1.277  11.591  19.114  0.00  0.00    +0.000 C 
ATOM      3  C   UNL     1       0.937  10.344  18.274  0.00  0.00    +0.000 C 
ATOM      4  C   UNL     1      -0.543  10.550  18.073  0.00  0.00    +0.000 A 
ATOM      5  C   UNL     1      -1.359   9.922  17.143  0.00  0.00    +0.000 A 
ATOM      6  C   UNL     1      -2.739  10.144  17.199  0.00  0.00    +0.000 A 
ATOM      7  C   UNL     1      -3.286  10.959  18.200  0.00  0.00    +0.000 A 
ATOM      8  C   UNL     1      -2.445  11.581  19.128  0.00  0.00    +0.000 A 
ATOM      9  C   UNL     1      -1.069  11.422  19.037  0.00  0.00    +0.000 A 
ENDROOT
BRANCH   3  10
ATOM     10  C   UNL     1       1.322   9.045  18.967  0.00  0.00    +0.000 A 
ATOM     11  C   UNL     1       1.010   8.776  20.308  0.00  0.00    +0.000 A 
ATOM     12  C   UNL     1       1.381   7.569  20.907  0.00  0.00    +0.000 A 
ATOM     13  C   UNL     1       2.078   6.606  20.176  0.00  0.00    +0.000 A 
ATOM     14 CL   UNL     1       2.499   5.137  20.981  0.00  0.00    +0.000 Cl
ATOM     15  C   UNL     1       2.409   6.858  18.842  0.00  0.00    +0.000 A 
ATOM     16 CL   UNL     1       3.271   5.716  17.873  0.00  0.00    +0.000 Cl
ATOM     17  C   UNL     1       2.035   8.071  18.244  0.00  0.00    +0.000 A 
ENDBRANCH   3  10
BRANCH   1  19
ATOM     18  C   UNL     1       0.313  14.207  19.002  0.00  0.00    +0.000 C 
ATOM     19  N   UNL     1       0.041  13.400  20.181  0.00  0.00    +0.000 NA
ATOM     20  H   UNL     1      -0.862  13.678  20.559  0.00  0.00    +0.000 HD
ENDBRANCH   1  19
BRANCH   7  21
ATOM     21  O   UNL     1      -4.614  11.224  18.391  0.00  0.00    +0.000 OA
ATOM     22  C   UNL     1      -5.285  11.945  17.368  0.00  0.00    +0.000 C 
ENDBRANCH   7  21
TORSDOF 3
ENDMDL
