MODEL 1
REMARK VINA RESULT:      -7.1      0.000      0.000
REMARK  Name = 
REMARK  2 active torsions:
REMARK  status: ('A' for Active; 'I' for Inactive)
REMARK    1  A    between atoms: C_1  and  N_2
REMARK    2  A    between atoms: C_3  and  C_5
REMARK                            x       y       z     vdW  Elec       q    Type
REMARK                         _______ _______ _______ _____ _____    ______ ____
ROOT
ATOM      1  C   UNL     1       7.443   5.816  19.815  0.00  0.00    +0.000 C 
ATOM      2  N   UNL     1       6.717   5.426  18.614  0.00  0.00    +0.000 N 
ATOM      3  C   UNL     1       7.139   5.864  17.340  0.00  0.00    +0.000 C 
ATOM      4  O   UNL     1       8.035   6.700  17.221  0.00  0.00    +0.000 OA
ATOM      5  C   UNL     1       5.509   4.778  18.735  0.00  0.00    +0.000 A 
ATOM      6  N   UNL     1       5.329   3.479  18.818  0.00  0.00    +0.000 NA
ATOM      7  C   UNL     1       3.976   3.223  18.808  0.00  0.00    +0.000 A 
ATOM      8  C   UNL     1       3.157   4.337  18.851  0.00  0.00    +0.000 A 
ATOM      9  S   UNL     1       4.101   5.755  18.844  0.00  0.00    +0.000 S 
ATOM     10  C   UNL     1       1.668   4.315  18.856  0.00  0.00    +0.000 C 
ATOM     11  C   UNL     1       1.159   2.897  19.183  0.00  0.00    +0.000 C 
ATOM     12  C   UNL     1       1.948   1.805  18.438  0.00  0.00    +0.000 C 
ATOM     13  C   UNL     1       3.443   1.831  18.805  0.00  0.00    +0.000 C 
ENDROOT
BRANCH   3  14
ATOM     14  C   UNL     1       6.470   5.300  16.163  0.00  0.00    +0.000 A 
ATOM     15  C   UNL     1       5.408   5.751  15.396  0.00  0.00    +0.000 A 
ATOM     16  C   UNL     1       5.158   4.756  14.414  0.00  0.00    +0.000 A 
ATOM     17  C   UNL     1       6.111   3.786  14.603  0.00  0.00    +0.000 A 
ATOM     18  O   UNL     1       6.928   4.132  15.623  0.00  0.00    +0.000 OA
ENDBRANCH   3  14
TORSDOF 1
ENDMDL
MODEL 2
REMARK VINA RESULT:      -7.1      1.950      3.625
REMARK  Name = 
REMARK  2 active torsions:
REMARK  status: ('A' for Active; 'I' for Inactive)
REMARK    1  A    between atoms: C_1  and  N_2
REMARK    2  A    between atoms: C_3  and  C_5
REMARK                            x       y       z     vdW  Elec       q    Type
REMARK                         _______ _______ _______ _____ _____    ______ ____
ROOT
ATOM      1  C   UNL     1       5.124   4.466  14.404  0.00  0.00    +0.000 C 
ATOM      2  N   UNL     1       5.598   4.903  15.710  0.00  0.00    +0.000 N 
ATOM      3  C   UNL     1       6.980   4.996  15.984  0.00  0.00    +0.000 C 
ATOM      4  O   UNL     1       7.815   4.572  15.184  0.00  0.00    +0.000 OA
ATOM      5  C   UNL     1       4.698   5.051  16.740  0.00  0.00    +0.000 A 
ATOM      6  N   UNL     1       4.024   6.141  17.031  0.00  0.00    +0.000 NA
ATOM      7  C   UNL     1       3.323   5.924  18.197  0.00  0.00    +0.000 A 
ATOM      8  C   UNL     1       3.375   4.634  18.693  0.00  0.00    +0.000 A 
ATOM      9  S   UNL     1       4.378   3.670  17.710  0.00  0.00    +0.000 S 
ATOM     10  C   UNL     1       2.695   4.156  19.930  0.00  0.00    +0.000 C 
ATOM     11  C   UNL     1       1.631   5.177  20.379  0.00  0.00    +0.000 C 
ATOM     12  C   UNL     1       2.134   6.628  20.283  0.00  0.00    +0.000 C 
ATOM     13  C   UNL     1       2.521   7.003  18.841  0.00  0.00    +0.000 C 
ENDROOT
BRANCH   3  14
ATOM     14  C   UNL     1       7.389   5.603  17.254  0.00  0.00    +0.000 A 
ATOM     15  C   UNL     1       7.571   6.923  17.634  0.00  0.00    +0.000 A 
ATOM     16  C   UNL     1       8.032   6.904  18.978  0.00  0.00    +0.000 A 
ATOM     17  C   UNL     1       8.051   5.585  19.356  0.00  0.00    +0.000 A 
ATOM     18  O   UNL     1       7.623   4.805  18.338  0.00  0.00    +0.000 OA
ENDBRANCH   3  14
TORSDOF 1
ENDMDL
MODEL 3
REMARK VINA RESULT:      -6.8      2.064      3.791
REMARK  Name = 
REMARK  2 active torsions:
REMARK  status: ('A' for Active; 'I' for Inactive)
REMARK    1  A    between atoms: C_1  and  N_2
REMARK    2  A    between atoms: C_3  and  C_5
REMARK                            x       y       z     vdW  Elec       q    Type
REMARK                         _______ _______ _______ _____ _____    ______ ____
ROOT
ATOM      1  C   UNL     1       5.142   4.190  14.505  0.00  0.00    +0.000 C 
ATOM      2  N   UNL     1       5.637   4.887  15.685  0.00  0.00    +0.000 N 
ATOM      3  C   UNL     1       7.018   5.123  15.859  0.00  0.00    +0.000 C 
ATOM      4  O   UNL     1       7.847   4.620  15.099  0.00  0.00    +0.000 OA
ATOM      5  C   UNL     1       4.774   5.156  16.722  0.00  0.00    +0.000 A 
ATOM      6  N   UNL     1       4.029   6.231  16.855  0.00  0.00    +0.000 NA
ATOM      7  C   UNL     1       3.399   6.180  18.078  0.00  0.00    +0.000 A 
ATOM      8  C   UNL     1       3.574   5.007  18.790  0.00  0.00    +0.000 A 
ATOM      9  S   UNL     1       4.605   3.953  17.937  0.00  0.00    +0.000 S 
ATOM     10  C   UNL     1       2.988   4.713  20.128  0.00  0.00    +0.000 C 
ATOM     11  C   UNL     1       1.868   5.722  20.450  0.00  0.00    +0.000 C 
ATOM     12  C   UNL     1       2.252   7.164  20.071  0.00  0.00    +0.000 C 
ATOM     13  C   UNL     1       2.545   7.299  18.566  0.00  0.00    +0.000 C 
ENDROOT
BRANCH   3  14
ATOM     14  C   UNL     1       7.433   5.975  16.977  0.00  0.00    +0.000 A 
ATOM     15  C   UNL     1       7.768   5.683  18.290  0.00  0.00    +0.000 A 
ATOM     16  C   UNL     1       8.033   6.923  18.931  0.00  0.00    +0.000 A 
ATOM     17  C   UNL     1       7.901   7.888  17.964  0.00  0.00    +0.000 A 
ATOM     18  O   UNL     1       7.585   7.318  16.780  0.00  0.00    +0.000 OA
ENDBRANCH   3  14
TORSDOF 1
ENDMDL
MODEL 4
REMARK VINA RESULT:      -6.4      3.044      5.392
REMARK  Name = 
REMARK  2 active torsions:
REMARK  status: ('A' for Active; 'I' for Inactive)
REMARK    1  A    between atoms: C_1  and  N_2
REMARK    2  A    between atoms: C_3  and  C_5
REMARK                            x       y       z     vdW  Elec       q    Type
REMARK                         _______ _______ _______ _____ _____    ______ ____
ROOT
ATOM      1  C   UNL     1       3.412   2.282  20.826  0.00  0.00    +0.000 C 
ATOM      2  N   UNL     1       3.277   3.523  20.075  0.00  0.00    +0.000 N 
ATOM      3  C   UNL     1       2.133   4.337  20.222  0.00  0.00    +0.000 C 
ATOM      4  O   UNL     1       1.160   3.951  20.871  0.00  0.00    +0.000 OA
ATOM      5  C   UNL     1       4.184   3.812  19.080  0.00  0.00    +0.000 A 
ATOM      6  N   UNL     1       5.319   4.458  19.229  0.00  0.00    +0.000 NA
ATOM      7  C   UNL     1       5.880   4.649  17.985  0.00  0.00    +0.000 A 
ATOM      8  C   UNL     1       5.227   4.029  16.935  0.00  0.00    +0.000 A 
ATOM      9  S   UNL     1       3.834   3.231  17.503  0.00  0.00    +0.000 S 
ATOM     10  C   UNL     1       5.645   4.083  15.506  0.00  0.00    +0.000 C 
ATOM     11  C   UNL     1       7.093   4.600  15.395  0.00  0.00    +0.000 C 
ATOM     12  C   UNL     1       7.361   5.795  16.327  0.00  0.00    +0.000 C 
ATOM     13  C   UNL     1       7.137   5.428  17.805  0.00  0.00    +0.000 C 
ENDROOT
BRANCH   3  14
ATOM     14  C   UNL     1       2.136   5.650  19.570  0.00  0.00    +0.000 A 
ATOM     15  C   UNL     1       2.187   6.023  18.236  0.00  0.00    +0.000 A 
ATOM     16  C   UNL     1       2.220   7.442  18.207  0.00  0.00    +0.000 A 
ATOM     17  C   UNL     1       2.132   7.852  19.514  0.00  0.00    +0.000 A 
ATOM     18  O   UNL     1       2.036   6.779  20.331  0.00  0.00    +0.000 OA
ENDBRANCH   3  14
TORSDOF 1
ENDMDL
MODEL 5
REMARK VINA RESULT:      -6.4      2.659      5.675
REMARK  Name = 
REMARK  2 active torsions:
REMARK  status: ('A' for Active; 'I' for Inactive)
REMARK    1  A    between atoms: C_1  and  N_2
REMARK    2  A    between atoms: C_3  and  C_5
REMARK                            x       y       z     vdW  Elec       q    Type
REMARK                         _______ _______ _______ _____ _____    ______ ____
ROOT
ATOM      1  C   UNL     1       3.379   1.366  18.557  0.00  0.00    +0.000 C 
ATOM      2  N   UNL     1       3.252   2.794  18.817  0.00  0.00    +0.000 N 
ATOM      3  C   UNL     1       2.021   3.347  19.230  0.00  0.00    +0.000 C 
ATOM      4  O   UNL     1       0.993   2.669  19.239  0.00  0.00    +0.000 OA
ATOM      5  C   UNL     1       4.288   3.636  18.483  0.00  0.00    +0.000 A 
ATOM      6  N   UNL     1       5.303   3.962  19.252  0.00  0.00    +0.000 NA
ATOM      7  C   UNL     1       6.057   4.915  18.603  0.00  0.00    +0.000 A 
ATOM      8  C   UNL     1       5.674   5.193  17.303  0.00  0.00    +0.000 A 
ATOM      9  S   UNL     1       4.294   4.284  16.893  0.00  0.00    +0.000 S 
ATOM     10  C   UNL     1       6.336   6.176  16.400  0.00  0.00    +0.000 C 
ATOM     11  C   UNL     1       7.717   6.567  16.962  0.00  0.00    +0.000 C 
ATOM     12  C   UNL     1       7.684   6.811  18.481  0.00  0.00    +0.000 C 
ATOM     13  C   UNL     1       7.236   5.555  19.250  0.00  0.00    +0.000 C 
ENDROOT
BRANCH   3  14
ATOM     14  C   UNL     1       2.003   4.755  19.638  0.00  0.00    +0.000 A 
ATOM     15  C   UNL     1       1.851   5.359  20.877  0.00  0.00    +0.000 A 
ATOM     16  C   UNL     1       1.858   6.762  20.653  0.00  0.00    +0.000 A 
ATOM     17  C   UNL     1       2.068   6.932  19.307  0.00  0.00    +0.000 A 
ATOM     18  O   UNL     1       2.200   5.730  18.703  0.00  0.00    +0.000 OA
ENDBRANCH   3  14
TORSDOF 1
ENDMDL
MODEL 6
REMARK VINA RESULT:      -6.4      2.853      5.255
REMARK  Name = 
REMARK  2 active torsions:
REMARK  status: ('A' for Active; 'I' for Inactive)
REMARK    1  A    between atoms: C_1  and  N_2
REMARK    2  A    between atoms: C_3  and  C_5
REMARK                            x       y       z     vdW  Elec       q    Type
REMARK                         _______ _______ _______ _____ _____    ______ ____
ROOT
ATOM      1  C   UNL     1       2.429   7.461  19.704  0.00  0.00    +0.000 C 
ATOM      2  N   UNL     1       2.676   6.088  19.285  0.00  0.00    +0.000 N 
ATOM      3  C   UNL     1       1.961   5.016  19.863  0.00  0.00    +0.000 C 
ATOM      4  O   UNL     1       1.223   5.196  20.832  0.00  0.00    +0.000 OA
ATOM      5  C   UNL     1       3.739   5.816  18.455  0.00  0.00    +0.000 A 
ATOM      6  N   UNL     1       3.720   5.822  17.141  0.00  0.00    +0.000 NA
ATOM      7  C   UNL     1       4.942   5.383  16.682  0.00  0.00    +0.000 A 
ATOM      8  C   UNL     1       5.906   5.182  17.654  0.00  0.00    +0.000 A 
ATOM      9  S   UNL     1       5.253   5.490  19.197  0.00  0.00    +0.000 S 
ATOM     10  C   UNL     1       7.300   4.719  17.404  0.00  0.00    +0.000 C 
ATOM     11  C   UNL     1       7.644   4.852  15.908  0.00  0.00    +0.000 C 
ATOM     12  C   UNL     1       6.495   4.378  14.999  0.00  0.00    +0.000 C 
ATOM     13  C   UNL     1       5.212   5.195  15.229  0.00  0.00    +0.000 C 
ENDROOT
BRANCH   3  14
ATOM     14  C   UNL     1       2.134   3.682  19.280  0.00  0.00    +0.000 A 
ATOM     15  C   UNL     1       1.527   3.056  18.202  0.00  0.00    +0.000 A 
ATOM     16  C   UNL     1       2.054   1.739  18.142  0.00  0.00    +0.000 A 
ATOM     17  C   UNL     1       2.987   1.655  19.146  0.00  0.00    +0.000 A 
ATOM     18  O   UNL     1       3.069   2.835  19.801  0.00  0.00    +0.000 OA
ENDBRANCH   3  14
TORSDOF 1
ENDMDL
MODEL 7
REMARK VINA RESULT:      -5.9      2.675      5.193
REMARK  Name = 
REMARK  2 active torsions:
REMARK  status: ('A' for Active; 'I' for Inactive)
REMARK    1  A    between atoms: C_1  and  N_2
REMARK    2  A    between atoms: C_3  and  C_5
REMARK                            x       y       z     vdW  Elec       q    Type
REMARK                         _______ _______ _______ _____ _____    ______ ____
ROOT
ATOM      1  C   UNL     1       2.516   6.684  19.823  0.00  0.00    +0.000 C 
ATOM      2  N   UNL     1       3.082   5.383  19.491  0.00  0.00    +0.000 N 
ATOM      3  C   UNL     1       2.848   4.261  20.315  0.00  0.00    +0.000 C 
ATOM      4  O   UNL     1       2.287   4.381  21.405  0.00  0.00    +0.000 OA
ATOM      5  C   UNL     1       4.000   5.287  18.470  0.00  0.00    +0.000 A 
ATOM      6  N   UNL     1       3.730   5.080  17.201  0.00  0.00    +0.000 NA
ATOM      7  C   UNL     1       4.918   4.928  16.519  0.00  0.00    +0.000 A 
ATOM      8  C   UNL     1       6.063   5.155  17.261  0.00  0.00    +0.000 A 
ATOM      9  S   UNL     1       5.653   5.511  18.875  0.00  0.00    +0.000 S 
ATOM     10  C   UNL     1       7.458   5.060  16.746  0.00  0.00    +0.000 C 
ATOM     11  C   UNL     1       7.455   5.044  15.204  0.00  0.00    +0.000 C 
ATOM     12  C   UNL     1       6.353   4.137  14.630  0.00  0.00    +0.000 C 
ATOM     13  C   UNL     1       4.950   4.596  15.068  0.00  0.00    +0.000 C 
ENDROOT
BRANCH   3  14
ATOM     14  C   UNL     1       3.301   2.951  19.837  0.00  0.00    +0.000 A 
ATOM     15  C   UNL     1       2.757   2.058  18.928  0.00  0.00    +0.000 A 
ATOM     16  C   UNL     1       3.610   0.922  18.908  0.00  0.00    +0.000 A 
ATOM     17  C   UNL     1       4.648   1.210  19.760  0.00  0.00    +0.000 A 
ATOM     18  O   UNL     1       4.489   2.446  20.284  0.00  0.00    +0.000 OA
ENDBRANCH   3  14
TORSDOF 1
ENDMDL
MODEL 8
REMARK VINA RESULT:      -5.8      3.077      4.813
REMARK  Name = 
REMARK  2 active torsions:
REMARK  status: ('A' for Active; 'I' for Inactive)
REMARK    1  A    between atoms: C_1  and  N_2
REMARK    2  A    between atoms: C_3  and  C_5
REMARK                            x       y       z     vdW  Elec       q    Type
REMARK                         _______ _______ _______ _____ _____    ______ ____
ROOT
ATOM      1  C   UNL     1       1.715   2.392  18.679  0.00  0.00    +0.000 C 
ATOM      2  N   UNL     1       2.773   3.391  18.731  0.00  0.00    +0.000 N 
ATOM      3  C   UNL     1       4.126   3.007  18.843  0.00  0.00    +0.000 C 
ATOM      4  O   UNL     1       4.437   1.832  19.049  0.00  0.00    +0.000 OA
ATOM      5  C   UNL     1       2.440   4.721  18.854  0.00  0.00    +0.000 A 
ATOM      6  N   UNL     1       2.206   5.558  17.868  0.00  0.00    +0.000 NA
ATOM      7  C   UNL     1       2.026   6.818  18.396  0.00  0.00    +0.000 A 
ATOM      8  C   UNL     1       1.995   6.887  19.777  0.00  0.00    +0.000 A 
ATOM      9  S   UNL     1       2.259   5.342  20.445  0.00  0.00    +0.000 S 
ATOM     10  C   UNL     1       1.806   8.130  20.575  0.00  0.00    +0.000 C 
ATOM     11  C   UNL     1       1.279   9.264  19.675  0.00  0.00    +0.000 C 
ATOM     12  C   UNL     1       2.001   9.317  18.317  0.00  0.00    +0.000 C 
ATOM     13  C   UNL     1       1.823   8.009  17.525  0.00  0.00    +0.000 C 
ENDROOT
BRANCH   3  14
ATOM     14  C   UNL     1       5.150   4.049  18.718  0.00  0.00    +0.000 A 
ATOM     15  C   UNL     1       5.661   4.718  17.617  0.00  0.00    +0.000 A 
ATOM     16  C   UNL     1       6.679   5.584  18.099  0.00  0.00    +0.000 A 
ATOM     17  C   UNL     1       6.692   5.434  19.464  0.00  0.00    +0.000 A 
ATOM     18  O   UNL     1       5.745   4.547  19.842  0.00  0.00    +0.000 OA
ENDBRANCH   3  14
TORSDOF 1
ENDMDL
MODEL 9
REMARK VINA RESULT:      -5.7      2.637      3.627
REMARK  Name = 
REMARK  2 active torsions:
REMARK  status: ('A' for Active; 'I' for Inactive)
REMARK    1  A    between atoms: C_1  and  N_2
REMARK    2  A    between atoms: C_3  and  C_5
REMARK                            x       y       z     vdW  Elec       q    Type
REMARK                         _______ _______ _______ _____ _____    ______ ____
ROOT
ATOM      1  C   UNL     1       5.673   4.228  15.897  0.00  0.00    +0.000 C 
ATOM      2  N   UNL     1       4.778   5.021  16.728  0.00  0.00    +0.000 N 
ATOM      3  C   UNL     1       4.826   6.431  16.701  0.00  0.00    +0.000 C 
ATOM      4  O   UNL     1       5.717   7.024  16.092  0.00  0.00    +0.000 OA
ATOM      5  C   UNL     1       4.007   4.393  17.680  0.00  0.00    +0.000 A 
ATOM      6  N   UNL     1       2.802   3.899  17.501  0.00  0.00    +0.000 NA
ATOM      7  C   UNL     1       2.322   3.464  18.717  0.00  0.00    +0.000 A 
ATOM      8  C   UNL     1       3.222   3.516  19.766  0.00  0.00    +0.000 A 
ATOM      9  S   UNL     1       4.697   4.184  19.238  0.00  0.00    +0.000 S 
ATOM     10  C   UNL     1       2.939   3.096  21.167  0.00  0.00    +0.000 C 
ATOM     11  C   UNL     1       1.649   2.253  21.219  0.00  0.00    +0.000 C 
ATOM     12  C   UNL     1       0.528   2.844  20.346  0.00  0.00    +0.000 C 
ATOM     13  C   UNL     1       0.941   2.925  18.865  0.00  0.00    +0.000 C 
ENDROOT
BRANCH   3  14
ATOM     14  C   UNL     1       3.788   7.168  17.429  0.00  0.00    +0.000 A 
ATOM     15  C   UNL     1       3.354   7.103  18.743  0.00  0.00    +0.000 A 
ATOM     16  C   UNL     1       2.275   8.018  18.866  0.00  0.00    +0.000 A 
ATOM     17  C   UNL     1       2.150   8.626  17.641  0.00  0.00    +0.000 A 
ATOM     18  O   UNL     1       3.086   8.150  16.790  0.00  0.00    +0.000 OA
ENDBRANCH   3  14
TORSDOF 1
ENDMDL
