MODEL 1
REMARK VINA RESULT:      -7.3      0.000      0.000
REMARK  Name = 
REMARK  13 active torsions:
REMARK  status: ('A' for Active; 'I' for Inactive)
REMARK    1  A    between atoms: C_1  and  O_2
REMARK    2  A    between atoms: O_2  and  C_3
REMARK    3  A    between atoms: C_5  and  C_6
REMARK    4  A    between atoms: N_8  and  C_9
REMARK    5  A    between atoms: C_14  and  C_15
REMARK    6  A    between atoms: C_18  and  C_19
REMARK    7  A    between atoms: C_19  and  N_20
REMARK    8  A    between atoms: N_20  and  C_21
REMARK    9  A    between atoms: N_20  and  C_22
REMARK   10  A    between atoms: C_28  and  O_29
REMARK   11  A    between atoms: O_29  and  C_30
REMARK   12  A    between atoms: C_31  and  O_32
REMARK   13  A    between atoms: O_32  and  C_33
REMARK                            x       y       z     vdW  Elec       q    Type
REMARK                         _______ _______ _______ _____ _____    ______ ____
ROOT
ATOM      1  C   UNL     1       3.558   3.677  19.843  0.00  0.00    +0.000 A 
ATOM      2  C   UNL     1       3.718   2.458  20.532  0.00  0.00    +0.000 A 
ATOM      3  C   UNL     1       2.867   2.068  21.566  0.00  0.00    +0.000 A 
ATOM      4  C   UNL     1       1.843   2.903  21.965  0.00  0.00    +0.000 A 
ATOM      5  C   UNL     1       1.673   4.128  21.320  0.00  0.00    +0.000 A 
ATOM      6  C   UNL     1       2.506   4.534  20.247  0.00  0.00    +0.000 A 
ENDROOT
BRANCH   6   7
ATOM      7  C   UNL     1       2.215   5.833  19.642  0.00  0.00    +0.000 A 
ATOM      8  C   UNL     1       1.421   6.808  20.237  0.00  0.00    +0.000 A 
ATOM      9  N   UNL     1       1.643   7.934  19.507  0.00  0.00    +0.000 N 
ATOM     10  C   UNL     1       1.339   9.284  19.602  0.00  0.00    +0.000 A 
ATOM     11  C   UNL     1       1.870   9.962  18.564  0.00  0.00    +0.000 A 
ATOM     12  S   UNL     1       2.771   8.929  17.435  0.00  0.00    +0.000 S 
ATOM     13  C   UNL     1       2.407   7.558  18.439  0.00  0.00    +0.000 A 
ATOM     14  N   UNL     1       2.758   6.293  18.458  0.00  0.00    +0.000 NA
BRANCH  10  15
ATOM     15  C   UNL     1       0.542   9.871  20.733  0.00  0.00    +0.000 C 
BRANCH  15  16
ATOM     16  N   UNL     1       0.061  11.247  20.517  0.00  0.00    +0.000 NA
ATOM     17  C   UNL     1      -1.219  11.290  19.801  0.00  0.00    +0.000 C 
ATOM     18  C   UNL     1      -0.099  11.932  21.807  0.00  0.00    +0.000 C 
ENDBRANCH  15  16
ENDBRANCH  10  15
ENDBRANCH   6   7
BRANCH   1  21
ATOM     19  C   UNL     1       4.237   3.660  17.433  0.00  0.00    +0.000 C 
ATOM     20  O   UNL     1       3.306   2.974  17.010  0.00  0.00    +0.000 OA
ATOM     21  N   UNL     1       4.424   4.028  18.761  0.00  0.00    +0.000 N 
ATOM     22  H   UNL     1       5.167   4.675  19.015  0.00  0.00    +0.000 HD
BRANCH  19  25
ATOM     23  C   UNL     1       6.994   5.773  15.972  0.00  0.00    +0.000 A 
ATOM     24  C   UNL     1       5.942   5.305  16.769  0.00  0.00    +0.000 A 
ATOM     25  C   UNL     1       5.160   4.205  16.395  0.00  0.00    +0.000 A 
ATOM     26  C   UNL     1       5.345   3.663  15.131  0.00  0.00    +0.000 A 
ATOM     27  C   UNL     1       6.335   4.176  14.270  0.00  0.00    +0.000 A 
ATOM     28  C   UNL     1       7.183   5.236  14.685  0.00  0.00    +0.000 A 
BRANCH  23  30
ATOM     29  C   UNL     1       7.481   7.281  17.736  0.00  0.00    +0.000 C 
ATOM     30  O   UNL     1       7.826   6.756  16.448  0.00  0.00    +0.000 OA
ENDBRANCH  23  30
BRANCH  27  31
ATOM     31  O   UNL     1       6.343   3.493  13.077  0.00  0.00    +0.000 OA
ATOM     32  C   UNL     1       5.144   3.370  12.331  0.00  0.00    +0.000 C 
ENDBRANCH  27  31
BRANCH  28  33
ATOM     33  O   UNL     1       8.118   5.651  13.776  0.00  0.00    +0.000 OA
ATOM     34  C   UNL     1       7.905   5.495  12.383  0.00  0.00    +0.000 C 
ENDBRANCH  28  33
ENDBRANCH  19  25
ENDBRANCH   1  21
TORSDOF 8
ENDMDL
MODEL 2
REMARK VINA RESULT:      -7.2      5.964     12.021
REMARK  Name = 
REMARK  13 active torsions:
REMARK  status: ('A' for Active; 'I' for Inactive)
REMARK    1  A    between atoms: C_1  and  O_2
REMARK    2  A    between atoms: O_2  and  C_3
REMARK    3  A    between atoms: C_5  and  C_6
REMARK    4  A    between atoms: N_8  and  C_9
REMARK    5  A    between atoms: C_14  and  C_15
REMARK    6  A    between atoms: C_18  and  C_19
REMARK    7  A    between atoms: C_19  and  N_20
REMARK    8  A    between atoms: N_20  and  C_21
REMARK    9  A    between atoms: N_20  and  C_22
REMARK   10  A    between atoms: C_28  and  O_29
REMARK   11  A    between atoms: O_29  and  C_30
REMARK   12  A    between atoms: C_31  and  O_32
REMARK   13  A    between atoms: O_32  and  C_33
REMARK                            x       y       z     vdW  Elec       q    Type
REMARK                         _______ _______ _______ _____ _____    ______ ____
ROOT
ATOM      1  C   UNL     1      -0.400  14.096  19.182  0.00  0.00    +0.000 A 
ATOM      2  C   UNL     1      -0.225  15.453  18.840  0.00  0.00    +0.000 A 
ATOM      3  C   UNL     1       1.029  16.000  18.573  0.00  0.00    +0.000 A 
ATOM      4  C   UNL     1       2.158  15.210  18.669  0.00  0.00    +0.000 A 
ATOM      5  C   UNL     1       2.021  13.870  19.030  0.00  0.00    +0.000 A 
ATOM      6  C   UNL     1       0.755  13.284  19.277  0.00  0.00    +0.000 A 
ENDROOT
BRANCH   6   7
ATOM      7  C   UNL     1       0.743  11.864  19.630  0.00  0.00    +0.000 A 
ATOM      8  C   UNL     1       1.113  10.843  18.760  0.00  0.00    +0.000 A 
ATOM      9  N   UNL     1       1.240   9.741  19.547  0.00  0.00    +0.000 N 
ATOM     10  C   UNL     1       1.720   8.447  19.414  0.00  0.00    +0.000 A 
ATOM     11  C   UNL     1       1.622   7.785  20.584  0.00  0.00    +0.000 A 
ATOM     12  S   UNL     1       0.927   8.763  21.892  0.00  0.00    +0.000 S 
ATOM     13  C   UNL     1       0.795  10.099  20.788  0.00  0.00    +0.000 A 
ATOM     14  N   UNL     1       0.457  11.364  20.886  0.00  0.00    +0.000 NA
BRANCH  10  15
ATOM     15  C   UNL     1       2.282   7.905  18.130  0.00  0.00    +0.000 C 
BRANCH  15  16
ATOM     16  N   UNL     1       3.140   6.715  18.270  0.00  0.00    +0.000 NA
ATOM     17  C   UNL     1       2.409   5.463  18.042  0.00  0.00    +0.000 C 
ATOM     18  C   UNL     1       4.257   6.786  17.318  0.00  0.00    +0.000 C 
ENDBRANCH  15  16
ENDBRANCH  10  15
ENDBRANCH   6   7
BRANCH   1  21
ATOM     19  C   UNL     1      -2.393  13.612  20.618  0.00  0.00    +0.000 C 
ATOM     20  O   UNL     1      -1.967  14.119  21.657  0.00  0.00    +0.000 OA
ATOM     21  N   UNL     1      -1.704  13.560  19.410  0.00  0.00    +0.000 N 
ATOM     22  H   UNL     1      -2.164  13.208  18.573  0.00  0.00    +0.000 HD
BRANCH  19  25
ATOM     23  C   UNL     1      -5.601  12.065  19.387  0.00  0.00    +0.000 A 
ATOM     24  C   UNL     1      -4.376  12.743  19.451  0.00  0.00    +0.000 A 
ATOM     25  C   UNL     1      -3.799  13.118  20.671  0.00  0.00    +0.000 A 
ATOM     26  C   UNL     1      -4.537  12.941  21.832  0.00  0.00    +0.000 A 
ATOM     27  C   UNL     1      -5.814  12.346  21.786  0.00  0.00    +0.000 A 
ATOM     28  C   UNL     1      -6.361  11.890  20.559  0.00  0.00    +0.000 A 
BRANCH  23  30
ATOM     29  C   UNL     1      -6.769  12.529  17.376  0.00  0.00    +0.000 C 
ATOM     30  O   UNL     1      -6.053  11.586  18.182  0.00  0.00    +0.000 OA
ENDBRANCH  23  30
BRANCH  27  31
ATOM     31  O   UNL     1      -6.360  12.269  23.045  0.00  0.00    +0.000 OA
ATOM     32  C   UNL     1      -7.404  13.157  23.412  0.00  0.00    +0.000 C 
ENDBRANCH  27  31
BRANCH  28  33
ATOM     33  O   UNL     1      -7.601  11.317  20.627  0.00  0.00    +0.000 OA
ATOM     34  C   UNL     1      -7.755   9.910  20.714  0.00  0.00    +0.000 C 
ENDBRANCH  28  33
ENDBRANCH  19  25
ENDBRANCH   1  21
TORSDOF 8
ENDMDL
MODEL 3
REMARK VINA RESULT:      -7.2      3.451      7.415
REMARK  Name = 
REMARK  13 active torsions:
REMARK  status: ('A' for Active; 'I' for Inactive)
REMARK    1  A    between atoms: C_1  and  O_2
REMARK    2  A    between atoms: O_2  and  C_3
REMARK    3  A    between atoms: C_5  and  C_6
REMARK    4  A    between atoms: N_8  and  C_9
REMARK    5  A    between atoms: C_14  and  C_15
REMARK    6  A    between atoms: C_18  and  C_19
REMARK    7  A    between atoms: C_19  and  N_20
REMARK    8  A    between atoms: N_20  and  C_21
REMARK    9  A    between atoms: N_20  and  C_22
REMARK   10  A    between atoms: C_28  and  O_29
REMARK   11  A    between atoms: O_29  and  C_30
REMARK   12  A    between atoms: C_31  and  O_32
REMARK   13  A    between atoms: O_32  and  C_33
REMARK                            x       y       z     vdW  Elec       q    Type
REMARK                         _______ _______ _______ _____ _____    ______ ____
ROOT
ATOM      1  C   UNL     1       0.688  11.849  20.182  0.00  0.00    +0.000 A 
ATOM      2  C   UNL     1       1.520  12.649  20.991  0.00  0.00    +0.000 A 
ATOM      3  C   UNL     1       1.217  13.978  21.288  0.00  0.00    +0.000 A 
ATOM      4  C   UNL     1       0.083  14.559  20.758  0.00  0.00    +0.000 A 
ATOM      5  C   UNL     1      -0.748  13.801  19.932  0.00  0.00    +0.000 A 
ATOM      6  C   UNL     1      -0.477  12.441  19.640  0.00  0.00    +0.000 A 
ENDROOT
BRANCH   6   7
ATOM      7  C   UNL     1      -1.434  11.750  18.776  0.00  0.00    +0.000 A 
ATOM      8  C   UNL     1      -2.811  11.938  18.835  0.00  0.00    +0.000 A 
ATOM      9  N   UNL     1      -3.293  11.353  17.705  0.00  0.00    +0.000 N 
ATOM     10  C   UNL     1      -4.502  11.291  17.029  0.00  0.00    +0.000 A 
ATOM     11  C   UNL     1      -4.374  10.566  15.899  0.00  0.00    +0.000 A 
ATOM     12  S   UNL     1      -2.732   9.942  15.644  0.00  0.00    +0.000 S 
ATOM     13  C   UNL     1      -2.236  10.717  17.118  0.00  0.00    +0.000 A 
ATOM     14  N   UNL     1      -1.094  10.902  17.740  0.00  0.00    +0.000 NA
BRANCH  10  15
ATOM     15  C   UNL     1      -5.753  11.967  17.514  0.00  0.00    +0.000 C 
BRANCH  15  16
ATOM     16  N   UNL     1      -6.187  11.592  18.871  0.00  0.00    +0.000 NA
ATOM     17  C   UNL     1      -7.212  12.495  19.405  0.00  0.00    +0.000 C 
ATOM     18  C   UNL     1      -6.723  10.223  18.868  0.00  0.00    +0.000 C 
ENDBRANCH  15  16
ENDBRANCH  10  15
ENDBRANCH   6   7
BRANCH   1  21
ATOM     19  C   UNL     1       1.790  10.020  18.874  0.00  0.00    +0.000 C 
ATOM     20  O   UNL     1       2.303  10.729  18.009  0.00  0.00    +0.000 OA
ATOM     21  N   UNL     1       1.009  10.479  19.930  0.00  0.00    +0.000 N 
ATOM     22  H   UNL     1       0.701   9.838  20.657  0.00  0.00    +0.000 HD
BRANCH  19  25
ATOM     23  C   UNL     1       3.505   6.890  17.664  0.00  0.00    +0.000 A 
ATOM     24  C   UNL     1       2.929   8.165  17.727  0.00  0.00    +0.000 A 
ATOM     25  C   UNL     1       2.141   8.571  18.812  0.00  0.00    +0.000 A 
ATOM     26  C   UNL     1       1.807   7.629  19.773  0.00  0.00    +0.000 A 
ATOM     27  C   UNL     1       2.297   6.310  19.685  0.00  0.00    +0.000 A 
ATOM     28  C   UNL     1       3.164   5.925  18.630  0.00  0.00    +0.000 A 
BRANCH  23  30
ATOM     29  C   UNL     1       5.760   6.906  16.930  0.00  0.00    +0.000 C 
ATOM     30  O   UNL     1       4.390   6.590  16.658  0.00  0.00    +0.000 OA
ENDBRANCH  23  30
BRANCH  27  31
ATOM     31  O   UNL     1       1.843   5.552  20.738  0.00  0.00    +0.000 OA
ATOM     32  C   UNL     1       1.030   4.418  20.487  0.00  0.00    +0.000 C 
ENDBRANCH  27  31
BRANCH  28  33
ATOM     33  O   UNL     1       3.590   4.625  18.644  0.00  0.00    +0.000 OA
ATOM     34  C   UNL     1       4.816   4.263  19.260  0.00  0.00    +0.000 C 
ENDBRANCH  28  33
ENDBRANCH  19  25
ENDBRANCH   1  21
TORSDOF 8
ENDMDL
MODEL 4
REMARK VINA RESULT:      -7.0      0.536      2.365
REMARK  Name = 
REMARK  13 active torsions:
REMARK  status: ('A' for Active; 'I' for Inactive)
REMARK    1  A    between atoms: C_1  and  O_2
REMARK    2  A    between atoms: O_2  and  C_3
REMARK    3  A    between atoms: C_5  and  C_6
REMARK    4  A    between atoms: N_8  and  C_9
REMARK    5  A    between atoms: C_14  and  C_15
REMARK    6  A    between atoms: C_18  and  C_19
REMARK    7  A    between atoms: C_19  and  N_20
REMARK    8  A    between atoms: N_20  and  C_21
REMARK    9  A    between atoms: N_20  and  C_22
REMARK   10  A    between atoms: C_28  and  O_29
REMARK   11  A    between atoms: O_29  and  C_30
REMARK   12  A    between atoms: C_31  and  O_32
REMARK   13  A    between atoms: O_32  and  C_33
REMARK                            x       y       z     vdW  Elec       q    Type
REMARK                         _______ _______ _______ _____ _____    ______ ____
ROOT
ATOM      1  C   UNL     1       3.504   3.621  19.952  0.00  0.00    +0.000 A 
ATOM      2  C   UNL     1       3.595   2.409  20.666  0.00  0.00    +0.000 A 
ATOM      3  C   UNL     1       2.639   2.022  21.605  0.00  0.00    +0.000 A 
ATOM      4  C   UNL     1       1.572   2.853  21.882  0.00  0.00    +0.000 A 
ATOM      5  C   UNL     1       1.467   4.071  21.211  0.00  0.00    +0.000 A 
ATOM      6  C   UNL     1       2.409   4.473  20.231  0.00  0.00    +0.000 A 
ENDROOT
BRANCH   6   7
ATOM      7  C   UNL     1       2.178   5.764  19.585  0.00  0.00    +0.000 A 
ATOM      8  C   UNL     1       1.255   6.704  20.034  0.00  0.00    +0.000 A 
ATOM      9  N   UNL     1       1.557   7.843  19.354  0.00  0.00    +0.000 N 
ATOM     10  C   UNL     1       1.189   9.180  19.395  0.00  0.00    +0.000 A 
ATOM     11  C   UNL     1       1.866   9.885  18.466  0.00  0.00    +0.000 A 
ATOM     12  S   UNL     1       2.989   8.896  17.512  0.00  0.00    +0.000 S 
ATOM     13  C   UNL     1       2.510   7.504  18.435  0.00  0.00    +0.000 A 
ATOM     14  N   UNL     1       2.901   6.253  18.514  0.00  0.00    +0.000 NA
BRANCH  10  15
ATOM     15  C   UNL     1       0.185   9.728  20.370  0.00  0.00    +0.000 C 
BRANCH  15  16
ATOM     16  N   UNL     1       0.754  10.436  21.530  0.00  0.00    +0.000 NA
ATOM     17  C   UNL     1       0.448  11.871  21.520  0.00  0.00    +0.000 C 
ATOM     18  C   UNL     1       0.238   9.854  22.777  0.00  0.00    +0.000 C 
ENDBRANCH  15  16
ENDBRANCH  10  15
ENDBRANCH   6   7
BRANCH   1  21
ATOM     19  C   UNL     1       4.494   3.509  17.655  0.00  0.00    +0.000 C 
ATOM     20  O   UNL     1       3.671   2.735  17.164  0.00  0.00    +0.000 OA
ATOM     21  N   UNL     1       4.481   3.967  18.969  0.00  0.00    +0.000 N 
ATOM     22  H   UNL     1       5.142   4.680  19.270  0.00  0.00    +0.000 HD
BRANCH  19  25
ATOM     23  C   UNL     1       6.344   3.981  14.405  0.00  0.00    +0.000 A 
ATOM     24  C   UNL     1       5.593   3.435  15.455  0.00  0.00    +0.000 A 
ATOM     25  C   UNL     1       5.508   4.056  16.708  0.00  0.00    +0.000 A 
ATOM     26  C   UNL     1       6.310   5.161  16.952  0.00  0.00    +0.000 A 
ATOM     27  C   UNL     1       7.147   5.677  15.942  0.00  0.00    +0.000 A 
ATOM     28  C   UNL     1       7.167   5.097  14.647  0.00  0.00    +0.000 A 
BRANCH  23  30
ATOM     29  C   UNL     1       4.971   3.396  12.562  0.00  0.00    +0.000 C 
ATOM     30  O   UNL     1       6.276   3.419  13.155  0.00  0.00    +0.000 OA
ENDBRANCH  23  30
BRANCH  27  31
ATOM     31  O   UNL     1       7.846   6.768  16.400  0.00  0.00    +0.000 OA
ATOM     32  C   UNL     1       7.419   7.431  17.578  0.00  0.00    +0.000 C 
ENDBRANCH  27  31
BRANCH  28  33
ATOM     33  O   UNL     1       8.006   5.681  13.737  0.00  0.00    +0.000 OA
ATOM     34  C   UNL     1       7.829   5.481  12.345  0.00  0.00    +0.000 C 
ENDBRANCH  28  33
ENDBRANCH  19  25
ENDBRANCH   1  21
TORSDOF 8
ENDMDL
MODEL 5
REMARK VINA RESULT:      -6.9      7.621     10.490
REMARK  Name = 
REMARK  13 active torsions:
REMARK  status: ('A' for Active; 'I' for Inactive)
REMARK    1  A    between atoms: C_1  and  O_2
REMARK    2  A    between atoms: O_2  and  C_3
REMARK    3  A    between atoms: C_5  and  C_6
REMARK    4  A    between atoms: N_8  and  C_9
REMARK    5  A    between atoms: C_14  and  C_15
REMARK    6  A    between atoms: C_18  and  C_19
REMARK    7  A    between atoms: C_19  and  N_20
REMARK    8  A    between atoms: N_20  and  C_21
REMARK    9  A    between atoms: N_20  and  C_22
REMARK   10  A    between atoms: C_28  and  O_29
REMARK   11  A    between atoms: O_29  and  C_30
REMARK   12  A    between atoms: C_31  and  O_32
REMARK   13  A    between atoms: O_32  and  C_33
REMARK                            x       y       z     vdW  Elec       q    Type
REMARK                         _______ _______ _______ _____ _____    ______ ____
ROOT
ATOM      1  C   UNL     1       0.346  11.219  20.931  0.00  0.00    +0.000 A 
ATOM      2  C   UNL     1       0.967  10.036  20.483  0.00  0.00    +0.000 A 
ATOM      3  C   UNL     1       0.775   8.807  21.114  0.00  0.00    +0.000 A 
ATOM      4  C   UNL     1      -0.025   8.729  22.236  0.00  0.00    +0.000 A 
ATOM      5  C   UNL     1      -0.635   9.887  22.720  0.00  0.00    +0.000 A 
ATOM      6  C   UNL     1      -0.478  11.141  22.079  0.00  0.00    +0.000 A 
ENDROOT
BRANCH   6   7
ATOM      7  C   UNL     1      -1.183  12.276  22.672  0.00  0.00    +0.000 A 
ATOM      8  C   UNL     1      -2.569  12.373  22.759  0.00  0.00    +0.000 A 
ATOM      9  N   UNL     1      -2.795  13.406  23.615  0.00  0.00    +0.000 N 
ATOM     10  C   UNL     1      -3.880  13.955  24.281  0.00  0.00    +0.000 A 
ATOM     11  C   UNL     1      -3.487  14.988  25.053  0.00  0.00    +0.000 A 
ATOM     12  S   UNL     1      -1.742  15.304  24.972  0.00  0.00    +0.000 S 
ATOM     13  C   UNL     1      -1.578  13.972  23.867  0.00  0.00    +0.000 A 
ATOM     14  N   UNL     1      -0.573  13.345  23.300  0.00  0.00    +0.000 NA
BRANCH  10  15
ATOM     15  C   UNL     1      -5.281  13.428  24.148  0.00  0.00    +0.000 C 
BRANCH  15  16
ATOM     16  N   UNL     1      -5.979  13.800  22.904  0.00  0.00    +0.000 NA
ATOM     17  C   UNL     1      -6.985  12.810  22.505  0.00  0.00    +0.000 C 
ATOM     18  C   UNL     1      -6.639  15.103  23.067  0.00  0.00    +0.000 C 
ENDBRANCH  15  16
ENDBRANCH  10  15
ENDBRANCH   6   7
BRANCH   1  21
ATOM     19  C   UNL     1       1.568  13.355  20.468  0.00  0.00    +0.000 C 
ATOM     20  O   UNL     1       2.456  13.215  21.310  0.00  0.00    +0.000 OA
ATOM     21  N   UNL     1       0.534  12.453  20.236  0.00  0.00    +0.000 N 
ATOM     22  H   UNL     1      -0.106  12.597  19.458  0.00  0.00    +0.000 HD
BRANCH  19  25
ATOM     23  C   UNL     1       0.570  16.536  18.711  0.00  0.00    +0.000 A 
ATOM     24  C   UNL     1       0.539  15.286  19.344  0.00  0.00    +0.000 A 
ATOM     25  C   UNL     1       1.704  14.544  19.578  0.00  0.00    +0.000 A 
ATOM     26  C   UNL     1       2.896  14.998  19.033  0.00  0.00    +0.000 A 
ATOM     27  C   UNL     1       2.939  16.207  18.310  0.00  0.00    +0.000 A 
ATOM     28  C   UNL     1       1.773  16.999  18.147  0.00  0.00    +0.000 A 
BRANCH  23  30
ATOM     29  C   UNL     1      -1.576  16.983  19.614  0.00  0.00    +0.000 C 
ATOM     30  O   UNL     1      -0.574  17.292  18.638  0.00  0.00    +0.000 OA
ENDBRANCH  23  30
BRANCH  27  31
ATOM     31  O   UNL     1       4.214  16.462  17.865  0.00  0.00    +0.000 OA
ATOM     32  C   UNL     1       5.205  16.894  18.784  0.00  0.00    +0.000 C 
ENDBRANCH  27  31
BRANCH  28  33
ATOM     33  O   UNL     1       1.927  18.159  17.437  0.00  0.00    +0.000 OA
ATOM     34  C   UNL     1       1.251  18.360  16.207  0.00  0.00    +0.000 C 
ENDBRANCH  28  33
ENDBRANCH  19  25
ENDBRANCH   1  21
TORSDOF 8
ENDMDL
MODEL 6
REMARK VINA RESULT:      -6.9      3.570      7.548
REMARK  Name = 
REMARK  13 active torsions:
REMARK  status: ('A' for Active; 'I' for Inactive)
REMARK    1  A    between atoms: C_1  and  O_2
REMARK    2  A    between atoms: O_2  and  C_3
REMARK    3  A    between atoms: C_5  and  C_6
REMARK    4  A    between atoms: N_8  and  C_9
REMARK    5  A    between atoms: C_14  and  C_15
REMARK    6  A    between atoms: C_18  and  C_19
REMARK    7  A    between atoms: C_19  and  N_20
REMARK    8  A    between atoms: N_20  and  C_21
REMARK    9  A    between atoms: N_20  and  C_22
REMARK   10  A    between atoms: C_28  and  O_29
REMARK   11  A    between atoms: O_29  and  C_30
REMARK   12  A    between atoms: C_31  and  O_32
REMARK   13  A    between atoms: O_32  and  C_33
REMARK                            x       y       z     vdW  Elec       q    Type
REMARK                         _______ _______ _______ _____ _____    ______ ____
ROOT
ATOM      1  C   UNL     1       0.901  11.924  20.079  0.00  0.00    +0.000 A 
ATOM      2  C   UNL     1       1.735  12.727  20.884  0.00  0.00    +0.000 A 
ATOM      3  C   UNL     1       1.368  14.008  21.293  0.00  0.00    +0.000 A 
ATOM      4  C   UNL     1       0.163  14.542  20.883  0.00  0.00    +0.000 A 
ATOM      5  C   UNL     1      -0.674  13.783  20.064  0.00  0.00    +0.000 A 
ATOM      6  C   UNL     1      -0.336  12.467  19.660  0.00  0.00    +0.000 A 
ENDROOT
BRANCH   6   7
ATOM      7  C   UNL     1      -1.306  11.769  18.816  0.00  0.00    +0.000 A 
ATOM      8  C   UNL     1      -2.655  12.102  18.742  0.00  0.00    +0.000 A 
ATOM      9  N   UNL     1      -3.124  11.424  17.659  0.00  0.00    +0.000 N 
ATOM     10  C   UNL     1      -4.286  11.396  16.903  0.00  0.00    +0.000 A 
ATOM     11  C   UNL     1      -4.165  10.518  15.886  0.00  0.00    +0.000 A 
ATOM     12  S   UNL     1      -2.590   9.702  15.842  0.00  0.00    +0.000 S 
ATOM     13  C   UNL     1      -2.108  10.611  17.242  0.00  0.00    +0.000 A 
ATOM     14  N   UNL     1      -0.996  10.760  17.924  0.00  0.00    +0.000 NA
BRANCH  10  15
ATOM     15  C   UNL     1      -5.483  12.254  17.200  0.00  0.00    +0.000 C 
BRANCH  15  16
ATOM     16  N   UNL     1      -6.622  11.555  17.819  0.00  0.00    +0.000 NA
ATOM     17  C   UNL     1      -6.201  10.568  18.820  0.00  0.00    +0.000 C 
ATOM     18  C   UNL     1      -7.517  12.526  18.464  0.00  0.00    +0.000 C 
ENDBRANCH  15  16
ENDBRANCH  10  15
ENDBRANCH   6   7
BRANCH   1  21
ATOM     19  C   UNL     1       1.367   9.515  20.579  0.00  0.00    +0.000 C 
ATOM     20  O   UNL     1       1.116   9.551  21.784  0.00  0.00    +0.000 OA
ATOM     21  N   UNL     1       1.292  10.600  19.710  0.00  0.00    +0.000 N 
ATOM     22  H   UNL     1       1.424  10.466  18.710  0.00  0.00    +0.000 HD
BRANCH  19  25
ATOM     23  C   UNL     1       2.812   6.948  18.228  0.00  0.00    +0.000 A 
ATOM     24  C   UNL     1       2.281   8.129  18.763  0.00  0.00    +0.000 A 
ATOM     25  C   UNL     1       1.671   8.165  20.024  0.00  0.00    +0.000 A 
ATOM     26  C   UNL     1       1.460   6.965  20.688  0.00  0.00    +0.000 A 
ATOM     27  C   UNL     1       1.901   5.749  20.129  0.00  0.00    +0.000 A 
ATOM     28  C   UNL     1       2.594   5.726  18.891  0.00  0.00    +0.000 A 
BRANCH  23  30
ATOM     29  C   UNL     1       4.952   7.084  17.217  0.00  0.00    +0.000 C 
ATOM     30  O   UNL     1       3.531   6.992  17.059  0.00  0.00    +0.000 OA
ENDBRANCH  23  30
BRANCH  27  31
ATOM     31  O   UNL     1       1.591   4.694  20.954  0.00  0.00    +0.000 OA
ATOM     32  C   UNL     1       0.880   3.582  20.433  0.00  0.00    +0.000 C 
ENDBRANCH  27  31
BRANCH  28  33
ATOM     33  O   UNL     1       2.988   4.495  18.443  0.00  0.00    +0.000 OA
ATOM     34  C   UNL     1       4.245   3.950  18.809  0.00  0.00    +0.000 C 
ENDBRANCH  28  33
ENDBRANCH  19  25
ENDBRANCH   1  21
TORSDOF 8
ENDMDL
MODEL 7
REMARK VINA RESULT:      -6.9      6.979     11.275
REMARK  Name = 
REMARK  13 active torsions:
REMARK  status: ('A' for Active; 'I' for Inactive)
REMARK    1  A    between atoms: C_1  and  O_2
REMARK    2  A    between atoms: O_2  and  C_3
REMARK    3  A    between atoms: C_5  and  C_6
REMARK    4  A    between atoms: N_8  and  C_9
REMARK    5  A    between atoms: C_14  and  C_15
REMARK    6  A    between atoms: C_18  and  C_19
REMARK    7  A    between atoms: C_19  and  N_20
REMARK    8  A    between atoms: N_20  and  C_21
REMARK    9  A    between atoms: N_20  and  C_22
REMARK   10  A    between atoms: C_28  and  O_29
REMARK   11  A    between atoms: O_29  and  C_30
REMARK   12  A    between atoms: C_31  and  O_32
REMARK   13  A    between atoms: O_32  and  C_33
REMARK                            x       y       z     vdW  Elec       q    Type
REMARK                         _______ _______ _______ _____ _____    ______ ____
ROOT
ATOM      1  C   UNL     1      -4.507  14.603  22.782  0.00  0.00    +0.000 A 
ATOM      2  C   UNL     1      -4.301  15.615  23.742  0.00  0.00    +0.000 A 
ATOM      3  C   UNL     1      -5.356  16.245  24.401  0.00  0.00    +0.000 A 
ATOM      4  C   UNL     1      -6.658  15.901  24.097  0.00  0.00    +0.000 A 
ATOM      5  C   UNL     1      -6.897  14.922  23.133  0.00  0.00    +0.000 A 
ATOM      6  C   UNL     1      -5.841  14.247  22.472  0.00  0.00    +0.000 A 
ENDROOT
BRANCH   6   7
ATOM      7  C   UNL     1      -6.220  13.226  21.495  0.00  0.00    +0.000 A 
ATOM      8  C   UNL     1      -5.737  13.180  20.191  0.00  0.00    +0.000 A 
ATOM      9  N   UNL     1      -6.095  11.952  19.728  0.00  0.00    +0.000 N 
ATOM     10  C   UNL     1      -5.826  11.166  18.618  0.00  0.00    +0.000 A 
ATOM     11  C   UNL     1      -6.454   9.977  18.718  0.00  0.00    +0.000 A 
ATOM     12  S   UNL     1      -7.401   9.804  20.209  0.00  0.00    +0.000 S 
ATOM     13  C   UNL     1      -6.894  11.395  20.687  0.00  0.00    +0.000 A 
ATOM     14  N   UNL     1      -7.025  12.136  21.763  0.00  0.00    +0.000 NA
BRANCH  10  15
ATOM     15  C   UNL     1      -4.935  11.609  17.492  0.00  0.00    +0.000 C 
BRANCH  15  16
ATOM     16  N   UNL     1      -4.129  10.544  16.869  0.00  0.00    +0.000 NA
ATOM     17  C   UNL     1      -3.565  10.947  15.576  0.00  0.00    +0.000 C 
ATOM     18  C   UNL     1      -3.027  10.161  17.763  0.00  0.00    +0.000 C 
ENDBRANCH  15  16
ENDBRANCH  10  15
ENDBRANCH   6   7
BRANCH   1  21
ATOM     19  C   UNL     1      -2.798  12.782  22.606  0.00  0.00    +0.000 C 
ATOM     20  O   UNL     1      -3.129  12.154  23.613  0.00  0.00    +0.000 OA
ATOM     21  N   UNL     1      -3.400  13.952  22.155  0.00  0.00    +0.000 N 
ATOM     22  H   UNL     1      -3.128  14.357  21.262  0.00  0.00    +0.000 HD
BRANCH  19  25
ATOM     23  C   UNL     1      -0.624  12.165  19.590  0.00  0.00    +0.000 A 
ATOM     24  C   UNL     1      -1.696  12.512  20.423  0.00  0.00    +0.000 A 
ATOM     25  C   UNL     1      -1.730  12.151  21.777  0.00  0.00    +0.000 A 
ATOM     26  C   UNL     1      -0.745  11.302  22.259  0.00  0.00    +0.000 A 
ATOM     27  C   UNL     1       0.296  10.862  21.416  0.00  0.00    +0.000 A 
ATOM     28  C   UNL     1       0.375  11.297  20.068  0.00  0.00    +0.000 A 
BRANCH  23  30
ATOM     29  C   UNL     1       0.044  13.961  18.193  0.00  0.00    +0.000 C 
ATOM     30  O   UNL     1      -0.562  12.668  18.314  0.00  0.00    +0.000 OA
ENDBRANCH  23  30
BRANCH  27  31
ATOM     31  O   UNL     1       1.156  10.035  22.099  0.00  0.00    +0.000 OA
ATOM     32  C   UNL     1       1.095   8.633  21.891  0.00  0.00    +0.000 C 
ENDBRANCH  27  31
BRANCH  28  33
ATOM     33  O   UNL     1       1.431  10.818  19.341  0.00  0.00    +0.000 OA
ATOM     34  C   UNL     1       1.242   9.843  18.329  0.00  0.00    +0.000 C 
ENDBRANCH  28  33
ENDBRANCH  19  25
ENDBRANCH   1  21
TORSDOF 8
ENDMDL
MODEL 8
REMARK VINA RESULT:      -6.8      6.388     10.472
REMARK  Name = 
REMARK  13 active torsions:
REMARK  status: ('A' for Active; 'I' for Inactive)
REMARK    1  A    between atoms: C_1  and  O_2
REMARK    2  A    between atoms: O_2  and  C_3
REMARK    3  A    between atoms: C_5  and  C_6
REMARK    4  A    between atoms: N_8  and  C_9
REMARK    5  A    between atoms: C_14  and  C_15
REMARK    6  A    between atoms: C_18  and  C_19
REMARK    7  A    between atoms: C_19  and  N_20
REMARK    8  A    between atoms: N_20  and  C_21
REMARK    9  A    between atoms: N_20  and  C_22
REMARK   10  A    between atoms: C_28  and  O_29
REMARK   11  A    between atoms: O_29  and  C_30
REMARK   12  A    between atoms: C_31  and  O_32
REMARK   13  A    between atoms: O_32  and  C_33
REMARK                            x       y       z     vdW  Elec       q    Type
REMARK                         _______ _______ _______ _____ _____    ______ ____
ROOT
ATOM      1  C   UNL     1      -3.164  13.968  22.807  0.00  0.00    +0.000 A 
ATOM      2  C   UNL     1      -2.575  14.816  23.766  0.00  0.00    +0.000 A 
ATOM      3  C   UNL     1      -3.321  15.719  24.523  0.00  0.00    +0.000 A 
ATOM      4  C   UNL     1      -4.682  15.824  24.321  0.00  0.00    +0.000 A 
ATOM      5  C   UNL     1      -5.293  15.017  23.362  0.00  0.00    +0.000 A 
ATOM      6  C   UNL     1      -4.561  14.071  22.602  0.00  0.00    +0.000 A 
ENDROOT
BRANCH   6   7
ATOM      7  C   UNL     1      -5.318  13.271  21.640  0.00  0.00    +0.000 A 
ATOM      8  C   UNL     1      -5.066  13.256  20.271  0.00  0.00    +0.000 A 
ATOM      9  N   UNL     1      -5.773  12.195  19.796  0.00  0.00    +0.000 N 
ATOM     10  C   UNL     1      -5.873  11.490  18.606  0.00  0.00    +0.000 A 
ATOM     11  C   UNL     1      -6.744  10.469  18.734  0.00  0.00    +0.000 A 
ATOM     12  S   UNL     1      -7.465  10.355  20.352  0.00  0.00    +0.000 S 
ATOM     13  C   UNL     1      -6.525  11.733  20.840  0.00  0.00    +0.000 A 
ATOM     14  N   UNL     1      -6.308  12.366  21.970  0.00  0.00    +0.000 NA
BRANCH  10  15
ATOM     15  C   UNL     1      -5.087  11.839  17.374  0.00  0.00    +0.000 C 
BRANCH  15  16
ATOM     16  N   UNL     1      -4.051  10.864  16.990  0.00  0.00    +0.000 NA
ATOM     17  C   UNL     1      -3.647  10.995  15.585  0.00  0.00    +0.000 C 
ATOM     18  C   UNL     1      -2.862  11.032  17.838  0.00  0.00    +0.000 C 
ENDBRANCH  15  16
ENDBRANCH  10  15
ENDBRANCH   6   7
BRANCH   1  21
ATOM     19  C   UNL     1      -1.561  13.333  20.991  0.00  0.00    +0.000 C 
ATOM     20  O   UNL     1      -1.418  14.455  20.505  0.00  0.00    +0.000 OA
ATOM     21  N   UNL     1      -2.375  13.026  22.077  0.00  0.00    +0.000 N 
ATOM     22  H   UNL     1      -2.365  12.091  22.478  0.00  0.00    +0.000 HD
BRANCH  19  25
ATOM     23  C   UNL     1       1.172  11.804  18.895  0.00  0.00    +0.000 A 
ATOM     24  C   UNL     1       0.166  12.651  19.377  0.00  0.00    +0.000 A 
ATOM     25  C   UNL     1      -0.700  12.264  20.408  0.00  0.00    +0.000 A 
ATOM     26  C   UNL     1      -0.648  10.952  20.855  0.00  0.00    +0.000 A 
ATOM     27  C   UNL     1       0.294  10.049  20.321  0.00  0.00    +0.000 A 
ATOM     28  C   UNL     1       1.226  10.468  19.337  0.00  0.00    +0.000 A 
BRANCH  23  30
ATOM     29  C   UNL     1       2.803  13.453  18.402  0.00  0.00    +0.000 C 
ATOM     30  O   UNL     1       2.090  12.280  17.992  0.00  0.00    +0.000 OA
ENDBRANCH  23  30
BRANCH  27  31
ATOM     31  O   UNL     1       0.168   8.812  20.907  0.00  0.00    +0.000 OA
ATOM     32  C   UNL     1      -0.466   8.695  22.170  0.00  0.00    +0.000 C 
ENDBRANCH  27  31
BRANCH  28  33
ATOM     33  O   UNL     1       2.104   9.517  18.893  0.00  0.00    +0.000 OA
ATOM     34  C   UNL     1       1.818   8.734  17.746  0.00  0.00    +0.000 C 
ENDBRANCH  28  33
ENDBRANCH  19  25
ENDBRANCH   1  21
TORSDOF 8
ENDMDL
MODEL 9
REMARK VINA RESULT:      -6.8      3.496      7.519
REMARK  Name = 
REMARK  13 active torsions:
REMARK  status: ('A' for Active; 'I' for Inactive)
REMARK    1  A    between atoms: C_1  and  O_2
REMARK    2  A    between atoms: O_2  and  C_3
REMARK    3  A    between atoms: C_5  and  C_6
REMARK    4  A    between atoms: N_8  and  C_9
REMARK    5  A    between atoms: C_14  and  C_15
REMARK    6  A    between atoms: C_18  and  C_19
REMARK    7  A    between atoms: C_19  and  N_20
REMARK    8  A    between atoms: N_20  and  C_21
REMARK    9  A    between atoms: N_20  and  C_22
REMARK   10  A    between atoms: C_28  and  O_29
REMARK   11  A    between atoms: O_29  and  C_30
REMARK   12  A    between atoms: C_31  and  O_32
REMARK   13  A    between atoms: O_32  and  C_33
REMARK                            x       y       z     vdW  Elec       q    Type
REMARK                         _______ _______ _______ _____ _____    ______ ____
ROOT
ATOM      1  C   UNL     1       1.373  12.304  19.405  0.00  0.00    +0.000 A 
ATOM      2  C   UNL     1       2.472  13.161  19.618  0.00  0.00    +0.000 A 
ATOM      3  C   UNL     1       2.332  14.545  19.711  0.00  0.00    +0.000 A 
ATOM      4  C   UNL     1       1.086  15.121  19.563  0.00  0.00    +0.000 A 
ATOM      5  C   UNL     1      -0.018  14.303  19.326  0.00  0.00    +0.000 A 
ATOM      6  C   UNL     1       0.095  12.891  19.257  0.00  0.00    +0.000 A 
ENDROOT
BRANCH   6   7
ATOM      7  C   UNL     1      -1.140  12.143  19.022  0.00  0.00    +0.000 A 
ATOM      8  C   UNL     1      -2.360  12.448  19.617  0.00  0.00    +0.000 A 
ATOM      9  N   UNL     1      -3.279  11.721  18.925  0.00  0.00    +0.000 N 
ATOM     10  C   UNL     1      -4.661  11.642  18.845  0.00  0.00    +0.000 A 
ATOM     11  C   UNL     1      -5.028  10.728  17.923  0.00  0.00    +0.000 A 
ATOM     12  S   UNL     1      -3.653   9.940  17.125  0.00  0.00    +0.000 S 
ATOM     13  C   UNL     1      -2.574  10.911  18.080  0.00  0.00    +0.000 A 
ATOM     14  N   UNL     1      -1.276  11.107  18.118  0.00  0.00    +0.000 NA
BRANCH  10  15
ATOM     15  C   UNL     1      -5.584  12.489  19.674  0.00  0.00    +0.000 C 
BRANCH  15  16
ATOM     16  N   UNL     1      -5.996  11.900  20.960  0.00  0.00    +0.000 NA
ATOM     17  C   UNL     1      -5.759  12.800  22.094  0.00  0.00    +0.000 C 
ATOM     18  C   UNL     1      -7.424  11.558  20.922  0.00  0.00    +0.000 C 
ENDBRANCH  15  16
ENDBRANCH  10  15
ENDBRANCH   6   7
BRANCH   1  21
ATOM     19  C   UNL     1       2.095  10.184  18.285  0.00  0.00    +0.000 C 
ATOM     20  O   UNL     1       2.493  10.686  17.234  0.00  0.00    +0.000 OA
ATOM     21  N   UNL     1       1.548  10.886  19.354  0.00  0.00    +0.000 N 
ATOM     22  H   UNL     1       1.330  10.407  20.225  0.00  0.00    +0.000 HD
BRANCH  19  25
ATOM     23  C   UNL     1       3.605   6.802  17.587  0.00  0.00    +0.000 A 
ATOM     24  C   UNL     1       3.134   8.115  17.453  0.00  0.00    +0.000 A 
ATOM     25  C   UNL     1       2.327   8.717  18.427  0.00  0.00    +0.000 A 
ATOM     26  C   UNL     1       1.867   7.936  19.477  0.00  0.00    +0.000 A 
ATOM     27  C   UNL     1       2.250   6.584  19.586  0.00  0.00    +0.000 A 
ATOM     28  C   UNL     1       3.135   6.000  18.643  0.00  0.00    +0.000 A 
BRANCH  23  30
ATOM     29  C   UNL     1       5.870   6.719  16.888  0.00  0.00    +0.000 C 
ATOM     30  O   UNL     1       4.513   6.308  16.683  0.00  0.00    +0.000 OA
ENDBRANCH  23  30
BRANCH  27  31
ATOM     31  O   UNL     1       1.681   6.006  20.695  0.00  0.00    +0.000 OA
ATOM     32  C   UNL     1       1.155   4.691  20.611  0.00  0.00    +0.000 C 
ENDBRANCH  27  31
BRANCH  28  33
ATOM     33  O   UNL     1       3.451   4.685  18.848  0.00  0.00    +0.000 OA
ATOM     34  C   UNL     1       4.718   4.307  19.361  0.00  0.00    +0.000 C 
ENDBRANCH  28  33
ENDBRANCH  19  25
ENDBRANCH   1  21
TORSDOF 8
ENDMDL
