MODEL 1
REMARK VINA RESULT:      -6.3      0.000      0.000
REMARK  Name = 
REMARK  4 active torsions:
REMARK  status: ('A' for Active; 'I' for Inactive)
REMARK    1  A    between atoms: C_2  and  C_15
REMARK    2  A    between atoms: N_3  and  C_4
REMARK    3  A    between atoms: C_8  and  C_9
REMARK    4  A    between atoms: C_9  and  O_11
REMARK                            x       y       z     vdW  Elec       q    Type
REMARK                         _______ _______ _______ _____ _____    ______ ____
ROOT
ATOM      1  C   UNL     1       3.414   4.214  17.443  0.00  0.00    +0.000 A 
ATOM      2  S   UNL     1       2.952   2.610  17.817  0.00  0.00    +0.000 S 
ATOM      3  C   UNL     1       2.454   3.105  19.332  0.00  0.00    +0.000 A 
ATOM      4  C   UNL     1       2.516   4.457  19.534  0.00  0.00    +0.000 A 
ATOM      5  C   UNL     1       3.051   5.156  18.403  0.00  0.00    +0.000 A 
ATOM      6  C   UNL     1       1.916   4.802  20.855  0.00  0.00    +0.000 C 
ATOM      7  C   UNL     1       1.866   3.417  21.574  0.00  0.00    +0.000 C 
ATOM      8  C   UNL     1       1.877   2.334  20.458  0.00  0.00    +0.000 C 
ENDROOT
BRANCH   1  11
ATOM      9  O   UNL     1       6.160   4.400  17.257  0.00  0.00    +0.000 OA
ATOM     10  C   UNL     1       5.463   4.411  16.249  0.00  0.00    +0.000 C 
ATOM     11  N   UNL     1       4.076   4.320  16.241  0.00  0.00    +0.000 N 
ATOM     12  H   UNL     1       3.683   3.812  15.460  0.00  0.00    +0.000 HD
BRANCH  10  13
ATOM     13  C   UNL     1       6.053   4.366  14.907  0.00  0.00    +0.000 A 
ATOM     14  C   UNL     1       5.554   3.584  13.809  0.00  0.00    +0.000 A 
ATOM     15  C   UNL     1       6.312   3.722  12.665  0.00  0.00    +0.000 A 
ATOM     16  S   UNL     1       7.640   4.769  12.905  0.00  0.00    +0.000 S 
ATOM     17  C   UNL     1       7.198   5.049  14.534  0.00  0.00    +0.000 A 
ENDBRANCH  10  13
ENDBRANCH   1  11
BRANCH   5  18
ATOM     18  C   UNL     1       3.137   6.599  18.169  0.00  0.00    +0.000 C 
ATOM     19  O   UNL     1       2.236   7.384  18.437  0.00  0.00    +0.000 OA
BRANCH  18  20
ATOM     20  O   UNL     1       4.328   7.036  17.687  0.00  0.00    +0.000 OA
ATOM     21  H   UNL     1       4.209   7.665  16.957  0.00  0.00    +0.000 HD
ENDBRANCH  18  20
ENDBRANCH   5  18
TORSDOF 4
ENDMDL
MODEL 2
REMARK VINA RESULT:      -6.3      1.446      1.810
REMARK  Name = 
REMARK  4 active torsions:
REMARK  status: ('A' for Active; 'I' for Inactive)
REMARK    1  A    between atoms: C_2  and  C_15
REMARK    2  A    between atoms: N_3  and  C_4
REMARK    3  A    between atoms: C_8  and  C_9
REMARK    4  A    between atoms: C_9  and  O_11
REMARK                            x       y       z     vdW  Elec       q    Type
REMARK                         _______ _______ _______ _____ _____    ______ ____
ROOT
ATOM      1  C   UNL     1       3.909   3.721  17.481  0.00  0.00    +0.000 A 
ATOM      2  S   UNL     1       2.248   3.348  17.313  0.00  0.00    +0.000 S 
ATOM      3  C   UNL     1       2.069   3.393  18.973  0.00  0.00    +0.000 A 
ATOM      4  C   UNL     1       3.189   3.791  19.651  0.00  0.00    +0.000 A 
ATOM      5  C   UNL     1       4.301   4.034  18.780  0.00  0.00    +0.000 A 
ATOM      6  C   UNL     1       2.879   3.936  21.102  0.00  0.00    +0.000 C 
ATOM      7  C   UNL     1       1.524   3.172  21.235  0.00  0.00    +0.000 C 
ATOM      8  C   UNL     1       0.877   3.160  19.821  0.00  0.00    +0.000 C 
ENDROOT
BRANCH   1  11
ATOM      9  O   UNL     1       4.782   5.961  16.126  0.00  0.00    +0.000 OA
ATOM     10  C   UNL     1       4.998   4.838  15.682  0.00  0.00    +0.000 C 
ATOM     11  N   UNL     1       4.601   3.654  16.292  0.00  0.00    +0.000 N 
ATOM     12  H   UNL     1       5.243   2.879  16.184  0.00  0.00    +0.000 HD
BRANCH  10  13
ATOM     13  C   UNL     1       5.853   4.627  14.510  0.00  0.00    +0.000 A 
ATOM     14  C   UNL     1       5.567   3.726  13.428  0.00  0.00    +0.000 A 
ATOM     15  C   UNL     1       6.552   3.718  12.462  0.00  0.00    +0.000 A 
ATOM     16  S   UNL     1       7.836   4.773  12.856  0.00  0.00    +0.000 S 
ATOM     17  C   UNL     1       7.074   5.249  14.313  0.00  0.00    +0.000 A 
ENDBRANCH  10  13
ENDBRANCH   1  11
BRANCH   5  18
ATOM     18  C   UNL     1       5.609   4.609  19.096  0.00  0.00    +0.000 C 
ATOM     19  O   UNL     1       5.766   5.569  19.841  0.00  0.00    +0.000 OA
BRANCH  18  20
ATOM     20  O   UNL     1       6.671   3.959  18.557  0.00  0.00    +0.000 OA
ATOM     21  H   UNL     1       6.974   4.387  17.739  0.00  0.00    +0.000 HD
ENDBRANCH  18  20
ENDBRANCH   5  18
TORSDOF 4
ENDMDL
MODEL 3
REMARK VINA RESULT:      -5.8      1.820      6.516
REMARK  Name = 
REMARK  4 active torsions:
REMARK  status: ('A' for Active; 'I' for Inactive)
REMARK    1  A    between atoms: C_2  and  C_15
REMARK    2  A    between atoms: N_3  and  C_4
REMARK    3  A    between atoms: C_8  and  C_9
REMARK    4  A    between atoms: C_9  and  O_11
REMARK                            x       y       z     vdW  Elec       q    Type
REMARK                         _______ _______ _______ _____ _____    ______ ____
ROOT
ATOM      1  C   UNL     1       5.805   4.177  16.501  0.00  0.00    +0.000 A 
ATOM      2  S   UNL     1       5.347   3.054  15.296  0.00  0.00    +0.000 S 
ATOM      3  C   UNL     1       6.253   3.890  14.170  0.00  0.00    +0.000 A 
ATOM      4  C   UNL     1       6.984   4.924  14.689  0.00  0.00    +0.000 A 
ATOM      5  C   UNL     1       6.767   5.098  16.094  0.00  0.00    +0.000 A 
ATOM      6  C   UNL     1       7.862   5.505  13.632  0.00  0.00    +0.000 C 
ATOM      7  C   UNL     1       7.239   4.928  12.322  0.00  0.00    +0.000 C 
ATOM      8  C   UNL     1       6.464   3.642  12.724  0.00  0.00    +0.000 C 
ENDROOT
BRANCH   1  11
ATOM      9  O   UNL     1       3.645   5.710  17.274  0.00  0.00    +0.000 OA
ATOM     10  C   UNL     1       4.067   4.815  17.997  0.00  0.00    +0.000 C 
ATOM     11  N   UNL     1       5.144   3.990  17.695  0.00  0.00    +0.000 N 
ATOM     12  H   UNL     1       5.061   3.037  18.023  0.00  0.00    +0.000 HD
BRANCH  10  13
ATOM     13  C   UNL     1       3.359   4.417  19.218  0.00  0.00    +0.000 A 
ATOM     14  C   UNL     1       2.579   5.294  20.047  0.00  0.00    +0.000 A 
ATOM     15  C   UNL     1       2.034   4.655  21.140  0.00  0.00    +0.000 A 
ATOM     16  S   UNL     1       2.471   3.005  21.195  0.00  0.00    +0.000 S 
ATOM     17  C   UNL     1       3.381   3.140  19.752  0.00  0.00    +0.000 A 
ENDBRANCH  10  13
ENDBRANCH   1  11
BRANCH   5  18
ATOM     18  C   UNL     1       7.465   5.981  17.031  0.00  0.00    +0.000 C 
ATOM     19  O   UNL     1       7.747   7.147  16.782  0.00  0.00    +0.000 OA
BRANCH  18  20
ATOM     20  O   UNL     1       7.728   5.440  18.247  0.00  0.00    +0.000 OA
ATOM     21  H   UNL     1       6.936   5.034  18.636  0.00  0.00    +0.000 HD
ENDBRANCH  18  20
ENDBRANCH   5  18
TORSDOF 4
ENDMDL
MODEL 4
REMARK VINA RESULT:      -5.8      1.977      2.597
REMARK  Name = 
REMARK  4 active torsions:
REMARK  status: ('A' for Active; 'I' for Inactive)
REMARK    1  A    between atoms: C_2  and  C_15
REMARK    2  A    between atoms: N_3  and  C_4
REMARK    3  A    between atoms: C_8  and  C_9
REMARK    4  A    between atoms: C_9  and  O_11
REMARK                            x       y       z     vdW  Elec       q    Type
REMARK                         _______ _______ _______ _____ _____    ______ ____
ROOT
ATOM      1  C   UNL     1       3.778   5.142  17.219  0.00  0.00    +0.000 A 
ATOM      2  S   UNL     1       3.835   6.713  17.895  0.00  0.00    +0.000 S 
ATOM      3  C   UNL     1       2.822   6.219  19.128  0.00  0.00    +0.000 A 
ATOM      4  C   UNL     1       2.529   4.882  19.117  0.00  0.00    +0.000 A 
ATOM      5  C   UNL     1       3.121   4.200  18.005  0.00  0.00    +0.000 A 
ATOM      6  C   UNL     1       1.744   4.525  20.334  0.00  0.00    +0.000 C 
ATOM      7  C   UNL     1       1.270   5.919  20.851  0.00  0.00    +0.000 C 
ATOM      8  C   UNL     1       2.263   6.970  20.277  0.00  0.00    +0.000 C 
ENDROOT
BRANCH   1  11
ATOM      9  O   UNL     1       6.413   4.380  16.922  0.00  0.00    +0.000 OA
ATOM     10  C   UNL     1       5.732   4.668  15.944  0.00  0.00    +0.000 C 
ATOM     11  N   UNL     1       4.399   5.060  15.992  0.00  0.00    +0.000 N 
ATOM     12  H   UNL     1       3.831   4.747  15.216  0.00  0.00    +0.000 HD
BRANCH  10  13
ATOM     13  C   UNL     1       6.228   4.473  14.578  0.00  0.00    +0.000 A 
ATOM     14  C   UNL     1       5.665   3.570  13.613  0.00  0.00    +0.000 A 
ATOM     15  C   UNL     1       6.340   3.581  12.411  0.00  0.00    +0.000 A 
ATOM     16  S   UNL     1       7.668   4.655  12.437  0.00  0.00    +0.000 S 
ATOM     17  C   UNL     1       7.336   5.115  14.052  0.00  0.00    +0.000 A 
ENDBRANCH  10  13
ENDBRANCH   1  11
BRANCH   5  18
ATOM     18  C   UNL     1       3.169   2.763  17.726  0.00  0.00    +0.000 C 
ATOM     19  O   UNL     1       2.183   2.093  17.447  0.00  0.00    +0.000 OA
BRANCH  18  20
ATOM     20  O   UNL     1       4.411   2.217  17.730  0.00  0.00    +0.000 OA
ATOM     21  H   UNL     1       4.397   1.296  17.420  0.00  0.00    +0.000 HD
ENDBRANCH  18  20
ENDBRANCH   5  18
TORSDOF 4
ENDMDL
MODEL 5
REMARK VINA RESULT:      -5.8      3.592      6.927
REMARK  Name = 
REMARK  4 active torsions:
REMARK  status: ('A' for Active; 'I' for Inactive)
REMARK    1  A    between atoms: C_2  and  C_15
REMARK    2  A    between atoms: N_3  and  C_4
REMARK    3  A    between atoms: C_8  and  C_9
REMARK    4  A    between atoms: C_9  and  O_11
REMARK                            x       y       z     vdW  Elec       q    Type
REMARK                         _______ _______ _______ _____ _____    ______ ____
ROOT
ATOM      1  C   UNL     1       3.303   6.405  18.351  0.00  0.00    +0.000 A 
ATOM      2  S   UNL     1       4.633   7.178  17.603  0.00  0.00    +0.000 S 
ATOM      3  C   UNL     1       5.022   5.754  16.821  0.00  0.00    +0.000 A 
ATOM      4  C   UNL     1       4.122   4.741  17.011  0.00  0.00    +0.000 A 
ATOM      5  C   UNL     1       3.056   5.113  17.894  0.00  0.00    +0.000 A 
ATOM      6  C   UNL     1       4.485   3.573  16.159  0.00  0.00    +0.000 C 
ATOM      7  C   UNL     1       5.957   3.898  15.751  0.00  0.00    +0.000 C 
ATOM      8  C   UNL     1       6.129   5.437  15.889  0.00  0.00    +0.000 C 
ENDROOT
BRANCH   1  11
ATOM      9  O   UNL     1       1.675   8.533  17.690  0.00  0.00    +0.000 OA
ATOM     10  C   UNL     1       1.881   8.244  18.864  0.00  0.00    +0.000 C 
ATOM     11  N   UNL     1       2.681   7.192  19.294  0.00  0.00    +0.000 N 
ATOM     12  H   UNL     1       2.364   6.728  20.135  0.00  0.00    +0.000 HD
BRANCH  10  13
ATOM     13  C   UNL     1       1.159   8.905  19.955  0.00  0.00    +0.000 A 
ATOM     14  C   UNL     1       0.313  10.058  19.809  0.00  0.00    +0.000 A 
ATOM     15  C   UNL     1      -0.230  10.479  21.005  0.00  0.00    +0.000 A 
ATOM     16  S   UNL     1       0.287   9.511  22.314  0.00  0.00    +0.000 S 
ATOM     17  C   UNL     1       1.230   8.522  21.283  0.00  0.00    +0.000 A 
ENDBRANCH  10  13
ENDBRANCH   1  11
BRANCH   5  18
ATOM     18  C   UNL     1       1.835   4.375  18.224  0.00  0.00    +0.000 C 
ATOM     19  O   UNL     1       1.176   3.752  17.402  0.00  0.00    +0.000 OA
BRANCH  18  20
ATOM     20  O   UNL     1       1.506   4.366  19.541  0.00  0.00    +0.000 OA
ATOM     21  H   UNL     1       0.975   5.143  19.781  0.00  0.00    +0.000 HD
ENDBRANCH  18  20
ENDBRANCH   5  18
TORSDOF 4
ENDMDL
MODEL 6
REMARK VINA RESULT:      -5.8      3.665      6.961
REMARK  Name = 
REMARK  4 active torsions:
REMARK  status: ('A' for Active; 'I' for Inactive)
REMARK    1  A    between atoms: C_2  and  C_15
REMARK    2  A    between atoms: N_3  and  C_4
REMARK    3  A    between atoms: C_8  and  C_9
REMARK    4  A    between atoms: C_9  and  O_11
REMARK                            x       y       z     vdW  Elec       q    Type
REMARK                         _______ _______ _______ _____ _____    ______ ____
ROOT
ATOM      1  C   UNL     1       3.179   6.450  18.443  0.00  0.00    +0.000 A 
ATOM      2  S   UNL     1       4.408   7.228  17.544  0.00  0.00    +0.000 S 
ATOM      3  C   UNL     1       4.806   5.773  16.827  0.00  0.00    +0.000 A 
ATOM      4  C   UNL     1       3.975   4.737  17.153  0.00  0.00    +0.000 A 
ATOM      5  C   UNL     1       2.962   5.120  18.091  0.00  0.00    +0.000 A 
ATOM      6  C   UNL     1       4.330   3.530  16.352  0.00  0.00    +0.000 C 
ATOM      7  C   UNL     1       5.748   3.891  15.809  0.00  0.00    +0.000 C 
ATOM      8  C   UNL     1       5.854   5.442  15.833  0.00  0.00    +0.000 C 
ENDROOT
BRANCH   1  11
ATOM      9  O   UNL     1       1.566   8.584  17.765  0.00  0.00    +0.000 OA
ATOM     10  C   UNL     1       1.797   8.323  18.941  0.00  0.00    +0.000 C 
ATOM     11  N   UNL     1       2.592   7.271  19.380  0.00  0.00    +0.000 N 
ATOM     12  H   UNL     1       2.290   6.834  20.240  0.00  0.00    +0.000 HD
BRANCH  10  13
ATOM     13  C   UNL     1       1.113   9.025  20.032  0.00  0.00    +0.000 A 
ATOM     14  C   UNL     1       1.011   8.553  21.385  0.00  0.00    +0.000 A 
ATOM     15  C   UNL     1       0.300   9.409  22.199  0.00  0.00    +0.000 A 
ATOM     16  S   UNL     1      -0.271  10.772  21.344  0.00  0.00    +0.000 S 
ATOM     17  C   UNL     1       0.440  10.226  19.886  0.00  0.00    +0.000 A 
ENDBRANCH  10  13
ENDBRANCH   1  11
BRANCH   5  18
ATOM     18  C   UNL     1       1.808   4.353  18.565  0.00  0.00    +0.000 C 
ATOM     19  O   UNL     1       1.418   4.361  19.725  0.00  0.00    +0.000 OA
BRANCH  18  20
ATOM     20  O   UNL     1       1.137   3.668  17.604  0.00  0.00    +0.000 OA
ATOM     21  H   UNL     1       1.154   4.138  16.754  0.00  0.00    +0.000 HD
ENDBRANCH  18  20
ENDBRANCH   5  18
TORSDOF 4
ENDMDL
MODEL 7
REMARK VINA RESULT:      -5.7      3.921      7.215
REMARK  Name = 
REMARK  4 active torsions:
REMARK  status: ('A' for Active; 'I' for Inactive)
REMARK    1  A    between atoms: C_2  and  C_15
REMARK    2  A    between atoms: N_3  and  C_4
REMARK    3  A    between atoms: C_8  and  C_9
REMARK    4  A    between atoms: C_9  and  O_11
REMARK                            x       y       z     vdW  Elec       q    Type
REMARK                         _______ _______ _______ _____ _____    ______ ____
ROOT
ATOM      1  C   UNL     1       2.811   6.583  18.951  0.00  0.00    +0.000 A 
ATOM      2  S   UNL     1       3.839   7.386  17.844  0.00  0.00    +0.000 S 
ATOM      3  C   UNL     1       4.265   5.917  17.173  0.00  0.00    +0.000 A 
ATOM      4  C   UNL     1       3.577   4.846  17.675  0.00  0.00    +0.000 A 
ATOM      5  C   UNL     1       2.667   5.218  18.717  0.00  0.00    +0.000 A 
ATOM      6  C   UNL     1       3.927   3.614  16.911  0.00  0.00    +0.000 C 
ATOM      7  C   UNL     1       5.225   4.043  16.157  0.00  0.00    +0.000 C 
ATOM      8  C   UNL     1       5.197   5.595  16.068  0.00  0.00    +0.000 C 
ENDROOT
BRANCH   1  11
ATOM      9  O   UNL     1       1.285   8.794  18.322  0.00  0.00    +0.000 OA
ATOM     10  C   UNL     1       1.529   8.515  19.491  0.00  0.00    +0.000 C 
ATOM     11  N   UNL     1       2.283   7.424  19.906  0.00  0.00    +0.000 N 
ATOM     12  H   UNL     1       1.980   6.995  20.770  0.00  0.00    +0.000 HD
BRANCH  10  13
ATOM     13  C   UNL     1       0.901   9.239  20.601  0.00  0.00    +0.000 A 
ATOM     14  C   UNL     1       0.817   8.768  21.956  0.00  0.00    +0.000 A 
ATOM     15  C   UNL     1       0.162   9.648  22.790  0.00  0.00    +0.000 A 
ATOM     16  S   UNL     1      -0.379  11.035  21.952  0.00  0.00    +0.000 S 
ATOM     17  C   UNL     1       0.272  10.466  20.475  0.00  0.00    +0.000 A 
ENDBRANCH  10  13
ENDBRANCH   1  11
BRANCH   5  18
ATOM     18  C   UNL     1       1.656   4.401  19.392  0.00  0.00    +0.000 C 
ATOM     19  O   UNL     1       1.100   3.443  18.871  0.00  0.00    +0.000 OA
BRANCH  18  20
ATOM     20  O   UNL     1       1.415   4.734  20.686  0.00  0.00    +0.000 OA
ATOM     21  H   UNL     1       0.524   5.102  20.799  0.00  0.00    +0.000 HD
ENDBRANCH  18  20
ENDBRANCH   5  18
TORSDOF 4
ENDMDL
MODEL 8
REMARK VINA RESULT:      -5.6      1.756      6.498
REMARK  Name = 
REMARK  4 active torsions:
REMARK  status: ('A' for Active; 'I' for Inactive)
REMARK    1  A    between atoms: C_2  and  C_15
REMARK    2  A    between atoms: N_3  and  C_4
REMARK    3  A    between atoms: C_8  and  C_9
REMARK    4  A    between atoms: C_9  and  O_11
REMARK                            x       y       z     vdW  Elec       q    Type
REMARK                         _______ _______ _______ _____ _____    ______ ____
ROOT
ATOM      1  C   UNL     1       5.564   3.908  16.054  0.00  0.00    +0.000 A 
ATOM      2  S   UNL     1       5.087   3.175  14.583  0.00  0.00    +0.000 S 
ATOM      3  C   UNL     1       6.262   4.040  13.770  0.00  0.00    +0.000 A 
ATOM      4  C   UNL     1       7.081   4.779  14.580  0.00  0.00    +0.000 A 
ATOM      5  C   UNL     1       6.712   4.689  15.962  0.00  0.00    +0.000 A 
ATOM      6  C   UNL     1       8.176   5.389  13.772  0.00  0.00    +0.000 C 
ATOM      7  C   UNL     1       7.645   5.235  12.312  0.00  0.00    +0.000 C 
ATOM      8  C   UNL     1       6.617   4.068  12.332  0.00  0.00    +0.000 C 
ENDROOT
BRANCH   1  11
ATOM      9  O   UNL     1       3.825   5.739  17.164  0.00  0.00    +0.000 OA
ATOM     10  C   UNL     1       3.889   4.595  17.599  0.00  0.00    +0.000 C 
ATOM     11  N   UNL     1       4.729   3.604  17.105  0.00  0.00    +0.000 N 
ATOM     12  H   UNL     1       4.346   2.668  17.125  0.00  0.00    +0.000 HD
BRANCH  10  13
ATOM     13  C   UNL     1       2.947   4.104  18.611  0.00  0.00    +0.000 A 
ATOM     14  C   UNL     1       1.683   3.480  18.332  0.00  0.00    +0.000 A 
ATOM     15  C   UNL     1       0.996   3.128  19.475  0.00  0.00    +0.000 A 
ATOM     16  S   UNL     1       1.849   3.563  20.889  0.00  0.00    +0.000 S 
ATOM     17  C   UNL     1       3.143   4.214  19.977  0.00  0.00    +0.000 A 
ENDBRANCH  10  13
ENDBRANCH   1  11
BRANCH   5  18
ATOM     18  C   UNL     1       7.419   5.202  17.137  0.00  0.00    +0.000 C 
ATOM     19  O   UNL     1       7.716   6.380  17.290  0.00  0.00    +0.000 OA
BRANCH  18  20
ATOM     20  O   UNL     1       7.672   4.284  18.104  0.00  0.00    +0.000 OA
ATOM     21  H   UNL     1       6.851   3.955  18.507  0.00  0.00    +0.000 HD
ENDBRANCH  18  20
ENDBRANCH   5  18
TORSDOF 4
ENDMDL
MODEL 9
REMARK VINA RESULT:      -5.5      7.602     10.660
REMARK  Name = 
REMARK  4 active torsions:
REMARK  status: ('A' for Active; 'I' for Inactive)
REMARK    1  A    between atoms: C_2  and  C_15
REMARK    2  A    between atoms: N_3  and  C_4
REMARK    3  A    between atoms: C_8  and  C_9
REMARK    4  A    between atoms: C_9  and  O_11
REMARK                            x       y       z     vdW  Elec       q    Type
REMARK                         _______ _______ _______ _____ _____    ______ ____
ROOT
ATOM      1  C   UNL     1      -0.192  10.427  20.856  0.00  0.00    +0.000 A 
ATOM      2  S   UNL     1       0.708   9.156  21.563  0.00  0.00    +0.000 S 
ATOM      3  C   UNL     1       1.314   8.747  20.061  0.00  0.00    +0.000 A 
ATOM      4  C   UNL     1       0.954   9.602  19.055  0.00  0.00    +0.000 A 
ATOM      5  C   UNL     1       0.081  10.645  19.508  0.00  0.00    +0.000 A 
ATOM      6  C   UNL     1       1.661   9.231  17.796  0.00  0.00    +0.000 C 
ATOM      7  C   UNL     1       2.172   7.789  18.109  0.00  0.00    +0.000 C 
ATOM      8  C   UNL     1       2.244   7.667  19.657  0.00  0.00    +0.000 C 
ENDROOT
BRANCH   1  11
ATOM      9  O   UNL     1       0.373  12.841  22.066  0.00  0.00    +0.000 OA
ATOM     10  C   UNL     1      -0.677  12.254  22.302  0.00  0.00    +0.000 C 
ATOM     11  N   UNL     1      -1.051  11.039  21.741  0.00  0.00    +0.000 N 
ATOM     12  H   UNL     1      -2.040  10.937  21.558  0.00  0.00    +0.000 HD
BRANCH  10  13
ATOM     13  C   UNL     1      -1.737  12.872  23.104  0.00  0.00    +0.000 A 
ATOM     14  C   UNL     1      -3.027  12.291  23.360  0.00  0.00    +0.000 A 
ATOM     15  C   UNL     1      -3.833  13.097  24.136  0.00  0.00    +0.000 A 
ATOM     16  S   UNL     1      -3.060  14.564  24.546  0.00  0.00    +0.000 S 
ATOM     17  C   UNL     1      -1.643  14.120  23.694  0.00  0.00    +0.000 A 
ENDBRANCH  10  13
ENDBRANCH   1  11
BRANCH   5  18
ATOM     18  C   UNL     1      -0.396  11.824  18.783  0.00  0.00    +0.000 C 
ATOM     19  O   UNL     1      -1.556  12.215  18.813  0.00  0.00    +0.000 OA
BRANCH  18  20
ATOM     20  O   UNL     1       0.561  12.516  18.114  0.00  0.00    +0.000 OA
ATOM     21  H   UNL     1       0.175  13.224  17.571  0.00  0.00    +0.000 HD
ENDBRANCH  18  20
ENDBRANCH   5  18
TORSDOF 4
ENDMDL
