MODEL 1
REMARK VINA RESULT:      -6.3      0.000      0.000
REMARK  Name = 
REMARK  9 active torsions:
REMARK  status: ('A' for Active; 'I' for Inactive)
REMARK    1  A    between atoms: C_1  and  O_2
REMARK    2  A    between atoms: O_2  and  C_3
REMARK    3  A    between atoms: C_6  and  C_7
REMARK    4  A    between atoms: C_9  and  C_10
REMARK    5  A    between atoms: C_9  and  C_18
REMARK    6  A    between atoms: C_13  and  O_14
REMARK    7  A    between atoms: O_14  and  C_15
REMARK    8  A    between atoms: C_21  and  O_22
REMARK    9  A    between atoms: O_22  and  C_23
REMARK                            x       y       z     vdW  Elec       q    Type
REMARK                         _______ _______ _______ _____ _____    ______ ____
ROOT
ATOM      1  C   UNL     1       0.224  12.912  19.052  0.00  0.00    +0.000 C 
ATOM      2 CL   UNL     1      -0.799  14.329  18.862  0.00  0.00    +0.000 Cl
ATOM      3  C   UNL     1      -0.272  11.656  18.939  0.00  0.00    +0.000 C 
ENDROOT
BRANCH   1   7
ATOM      4  C   UNL     1       4.183  14.408  19.709  0.00  0.00    +0.000 A 
ATOM      5  C   UNL     1       3.711  14.197  18.414  0.00  0.00    +0.000 A 
ATOM      6  C   UNL     1       2.440  13.654  18.201  0.00  0.00    +0.000 A 
ATOM      7  C   UNL     1       1.629  13.298  19.287  0.00  0.00    +0.000 A 
ATOM      8  C   UNL     1       2.131  13.454  20.585  0.00  0.00    +0.000 A 
ATOM      9  C   UNL     1       3.402  14.006  20.796  0.00  0.00    +0.000 A 
BRANCH   4  11
ATOM     10  C   UNL     1       6.058  14.877  21.069  0.00  0.00    +0.000 C 
ATOM     11  O   UNL     1       5.421  14.986  19.798  0.00  0.00    +0.000 OA
ENDBRANCH   4  11
ENDBRANCH   1   7
BRANCH   3  12
ATOM     12  C   UNL     1       0.589  10.464  19.148  0.00  0.00    +0.000 A 
ATOM     13  C   UNL     1       0.577   9.798  20.379  0.00  0.00    +0.000 A 
ATOM     14  C   UNL     1       1.270   8.594  20.538  0.00  0.00    +0.000 A 
ATOM     15  C   UNL     1       1.959   8.029  19.463  0.00  0.00    +0.000 A 
ATOM     16  C   UNL     1       2.006   8.709  18.244  0.00  0.00    +0.000 A 
ATOM     17  C   UNL     1       1.326   9.919  18.089  0.00  0.00    +0.000 A 
BRANCH  15  18
ATOM     18  O   UNL     1       2.577   6.835  19.718  0.00  0.00    +0.000 OA
ATOM     19  C   UNL     1       3.300   6.283  18.621  0.00  0.00    +0.000 C 
ENDBRANCH  15  18
ENDBRANCH   3  12
BRANCH   3  20
ATOM     20  C   UNL     1      -1.697  11.463  18.546  0.00  0.00    +0.000 A 
ATOM     21  C   UNL     1      -2.704  12.084  19.296  0.00  0.00    +0.000 A 
ATOM     22  C   UNL     1      -4.048  11.898  18.965  0.00  0.00    +0.000 A 
ATOM     23  C   UNL     1      -4.408  11.107  17.873  0.00  0.00    +0.000 A 
ATOM     24  C   UNL     1      -3.410  10.486  17.121  0.00  0.00    +0.000 A 
ATOM     25  C   UNL     1      -2.059  10.666  17.455  0.00  0.00    +0.000 A 
BRANCH  23  26
ATOM     26  O   UNL     1      -5.754  10.980  17.676  0.00  0.00    +0.000 OA
ATOM     27  C   UNL     1      -6.506  10.490  18.779  0.00  0.00    +0.000 C 
ENDBRANCH  23  26
ENDBRANCH   3  20
TORSDOF 6
ENDMDL
MODEL 2
REMARK VINA RESULT:      -6.2      0.714      6.955
REMARK  Name = 
REMARK  9 active torsions:
REMARK  status: ('A' for Active; 'I' for Inactive)
REMARK    1  A    between atoms: C_1  and  O_2
REMARK    2  A    between atoms: O_2  and  C_3
REMARK    3  A    between atoms: C_6  and  C_7
REMARK    4  A    between atoms: C_9  and  C_10
REMARK    5  A    between atoms: C_9  and  C_18
REMARK    6  A    between atoms: C_13  and  O_14
REMARK    7  A    between atoms: O_14  and  C_15
REMARK    8  A    between atoms: C_21  and  O_22
REMARK    9  A    between atoms: O_22  and  C_23
REMARK                            x       y       z     vdW  Elec       q    Type
REMARK                         _______ _______ _______ _____ _____    ______ ____
ROOT
ATOM      1  C   UNL     1      -0.207  12.905  18.728  0.00  0.00    +0.000 C 
ATOM      2 CL   UNL     1      -0.403  14.644  18.565  0.00  0.00    +0.000 Cl
ATOM      3  C   UNL     1       0.993  12.349  19.028  0.00  0.00    +0.000 C 
ENDROOT
BRANCH   1   7
ATOM      4  C   UNL     1      -4.082  11.209  18.054  0.00  0.00    +0.000 A 
ATOM      5  C   UNL     1      -3.806  11.900  19.234  0.00  0.00    +0.000 A 
ATOM      6  C   UNL     1      -2.524  12.403  19.479  0.00  0.00    +0.000 A 
ATOM      7  C   UNL     1      -1.494  12.205  18.550  0.00  0.00    +0.000 A 
ATOM      8  C   UNL     1      -1.759  11.458  17.396  0.00  0.00    +0.000 A 
ATOM      9  C   UNL     1      -3.047  10.961  17.149  0.00  0.00    +0.000 A 
BRANCH   4  11
ATOM     10  C   UNL     1      -6.355  11.841  17.927  0.00  0.00    +0.000 C 
ATOM     11  O   UNL     1      -5.380  10.801  17.900  0.00  0.00    +0.000 OA
ENDBRANCH   4  11
ENDBRANCH   1   7
BRANCH   3  12
ATOM     12  C   UNL     1       1.161  10.876  19.117  0.00  0.00    +0.000 A 
ATOM     13  C   UNL     1       1.739  10.170  18.056  0.00  0.00    +0.000 A 
ATOM     14  C   UNL     1       2.035   8.810  18.190  0.00  0.00    +0.000 A 
ATOM     15  C   UNL     1       1.780   8.148  19.392  0.00  0.00    +0.000 A 
ATOM     16  C   UNL     1       1.168   8.838  20.440  0.00  0.00    +0.000 A 
ATOM     17  C   UNL     1       0.859  10.193  20.303  0.00  0.00    +0.000 A 
BRANCH  15  18
ATOM     18  O   UNL     1       2.135   6.826  19.426  0.00  0.00    +0.000 OA
ATOM     19  C   UNL     1       2.722   6.328  18.227  0.00  0.00    +0.000 C 
ENDBRANCH  15  18
ENDBRANCH   3  12
BRANCH   3  20
ATOM     20  C   UNL     1       2.156  13.232  19.324  0.00  0.00    +0.000 A 
ATOM     21  C   UNL     1       2.939  13.712  18.265  0.00  0.00    +0.000 A 
ATOM     22  C   UNL     1       4.050  14.519  18.517  0.00  0.00    +0.000 A 
ATOM     23  C   UNL     1       4.388  14.875  19.824  0.00  0.00    +0.000 A 
ATOM     24  C   UNL     1       3.612  14.402  20.884  0.00  0.00    +0.000 A 
ATOM     25  C   UNL     1       2.499  13.586  20.633  0.00  0.00    +0.000 A 
BRANCH  23  26
ATOM     26  O   UNL     1       5.514  15.640  19.936  0.00  0.00    +0.000 OA
ATOM     27  C   UNL     1       6.731  15.030  19.525  0.00  0.00    +0.000 C 
ENDBRANCH  23  26
ENDBRANCH   3  20
TORSDOF 6
ENDMDL
MODEL 3
REMARK VINA RESULT:      -6.1      3.387      6.103
REMARK  Name = 
REMARK  9 active torsions:
REMARK  status: ('A' for Active; 'I' for Inactive)
REMARK    1  A    between atoms: C_1  and  O_2
REMARK    2  A    between atoms: O_2  and  C_3
REMARK    3  A    between atoms: C_6  and  C_7
REMARK    4  A    between atoms: C_9  and  C_10
REMARK    5  A    between atoms: C_9  and  C_18
REMARK    6  A    between atoms: C_13  and  O_14
REMARK    7  A    between atoms: O_14  and  C_15
REMARK    8  A    between atoms: C_21  and  O_22
REMARK    9  A    between atoms: O_22  and  C_23
REMARK                            x       y       z     vdW  Elec       q    Type
REMARK                         _______ _______ _______ _____ _____    ______ ____
ROOT
ATOM      1  C   UNL     1       0.577   9.918  20.851  0.00  0.00    +0.000 C 
ATOM      2 CL   UNL     1       1.285   9.821  22.457  0.00  0.00    +0.000 Cl
ATOM      3  C   UNL     1      -0.396  10.815  20.555  0.00  0.00    +0.000 C 
ENDROOT
BRANCH   1   7
ATOM      4  C   UNL     1       2.781   7.301  18.274  0.00  0.00    +0.000 A 
ATOM      5  C   UNL     1       2.353   8.548  17.819  0.00  0.00    +0.000 A 
ATOM      6  C   UNL     1       1.584   9.378  18.641  0.00  0.00    +0.000 A 
ATOM      7  C   UNL     1       1.217   8.960  19.928  0.00  0.00    +0.000 A 
ATOM      8  C   UNL     1       1.597   7.683  20.358  0.00  0.00    +0.000 A 
ATOM      9  C   UNL     1       2.375   6.856  19.535  0.00  0.00    +0.000 A 
BRANCH   4  11
ATOM     10  C   UNL     1       4.352   5.558  17.989  0.00  0.00    +0.000 C 
ATOM     11  O   UNL     1       3.566   6.594  17.403  0.00  0.00    +0.000 OA
ENDBRANCH   4  11
ENDBRANCH   1   7
BRANCH   3  12
ATOM     12  C   UNL     1      -1.022  10.859  19.209  0.00  0.00    +0.000 A 
ATOM     13  C   UNL     1      -1.883   9.834  18.802  0.00  0.00    +0.000 A 
ATOM     14  C   UNL     1      -2.589   9.940  17.600  0.00  0.00    +0.000 A 
ATOM     15  C   UNL     1      -2.463  11.080  16.805  0.00  0.00    +0.000 A 
ATOM     16  C   UNL     1      -1.576  12.088  17.187  0.00  0.00    +0.000 A 
ATOM     17  C   UNL     1      -0.859  11.977  18.381  0.00  0.00    +0.000 A 
BRANCH  15  18
ATOM     18  O   UNL     1      -3.221  11.095  15.666  0.00  0.00    +0.000 OA
ATOM     19  C   UNL     1      -2.916  10.069  14.724  0.00  0.00    +0.000 C 
ENDBRANCH  15  18
ENDBRANCH   3  12
BRANCH   3  20
ATOM     20  C   UNL     1      -0.812  11.810  21.583  0.00  0.00    +0.000 A 
ATOM     21  C   UNL     1      -0.128  13.030  21.672  0.00  0.00    +0.000 A 
ATOM     22  C   UNL     1      -0.480  13.969  22.643  0.00  0.00    +0.000 A 
ATOM     23  C   UNL     1      -1.529  13.715  23.529  0.00  0.00    +0.000 A 
ATOM     24  C   UNL     1      -2.215  12.503  23.446  0.00  0.00    +0.000 A 
ATOM     25  C   UNL     1      -1.859  11.555  22.475  0.00  0.00    +0.000 A 
BRANCH  23  26
ATOM     26  O   UNL     1      -1.751  14.699  24.450  0.00  0.00    +0.000 OA
ATOM     27  C   UNL     1      -2.987  15.393  24.343  0.00  0.00    +0.000 C 
ENDBRANCH  23  26
ENDBRANCH   3  20
TORSDOF 6
ENDMDL
MODEL 4
REMARK VINA RESULT:      -6.1      0.725      6.902
REMARK  Name = 
REMARK  9 active torsions:
REMARK  status: ('A' for Active; 'I' for Inactive)
REMARK    1  A    between atoms: C_1  and  O_2
REMARK    2  A    between atoms: O_2  and  C_3
REMARK    3  A    between atoms: C_6  and  C_7
REMARK    4  A    between atoms: C_9  and  C_10
REMARK    5  A    between atoms: C_9  and  C_18
REMARK    6  A    between atoms: C_13  and  O_14
REMARK    7  A    between atoms: O_14  and  C_15
REMARK    8  A    between atoms: C_21  and  O_22
REMARK    9  A    between atoms: O_22  and  C_23
REMARK                            x       y       z     vdW  Elec       q    Type
REMARK                         _______ _______ _______ _____ _____    ______ ____
ROOT
ATOM      1  C   UNL     1      -0.170  12.857  18.707  0.00  0.00    +0.000 C 
ATOM      2 CL   UNL     1      -0.365  14.601  18.594  0.00  0.00    +0.000 Cl
ATOM      3  C   UNL     1       1.028  12.292  18.998  0.00  0.00    +0.000 C 
ENDROOT
BRANCH   1   7
ATOM      4  C   UNL     1      -4.030  11.174  17.928  0.00  0.00    +0.000 A 
ATOM      5  C   UNL     1      -3.798  11.905  19.092  0.00  0.00    +0.000 A 
ATOM      6  C   UNL     1      -2.523  12.405  19.374  0.00  0.00    +0.000 A 
ATOM      7  C   UNL     1      -1.456  12.163  18.499  0.00  0.00    +0.000 A 
ATOM      8  C   UNL     1      -1.678  11.376  17.363  0.00  0.00    +0.000 A 
ATOM      9  C   UNL     1      -2.960  10.883  17.078  0.00  0.00    +0.000 A 
BRANCH   4  11
ATOM     10  C   UNL     1      -6.164  10.828  18.884  0.00  0.00    +0.000 C 
ATOM     11  O   UNL     1      -5.325  10.773  17.732  0.00  0.00    +0.000 OA
ENDBRANCH   4  11
ENDBRANCH   1   7
BRANCH   3  12
ATOM     12  C   UNL     1       1.195  10.817  19.045  0.00  0.00    +0.000 A 
ATOM     13  C   UNL     1       1.796  10.145  17.975  0.00  0.00    +0.000 A 
ATOM     14  C   UNL     1       2.090   8.782  18.072  0.00  0.00    +0.000 A 
ATOM     15  C   UNL     1       1.811   8.082  19.247  0.00  0.00    +0.000 A 
ATOM     16  C   UNL     1       1.177   8.738  20.303  0.00  0.00    +0.000 A 
ATOM     17  C   UNL     1       0.869  10.098  20.202  0.00  0.00    +0.000 A 
BRANCH  15  18
ATOM     18  O   UNL     1       2.166   6.760  19.247  0.00  0.00    +0.000 OA
ATOM     19  C   UNL     1       1.945   6.075  20.478  0.00  0.00    +0.000 C 
ENDBRANCH  15  18
ENDBRANCH   3  12
BRANCH   3  20
ATOM     20  C   UNL     1       2.189  13.166  19.329  0.00  0.00    +0.000 A 
ATOM     21  C   UNL     1       2.460  13.468  20.670  0.00  0.00    +0.000 A 
ATOM     22  C   UNL     1       3.526  14.305  21.004  0.00  0.00    +0.000 A 
ATOM     23  C   UNL     1       4.347  14.841  20.011  0.00  0.00    +0.000 A 
ATOM     24  C   UNL     1       4.084  14.546  18.673  0.00  0.00    +0.000 A 
ATOM     25  C   UNL     1       3.010  13.708  18.334  0.00  0.00    +0.000 A 
BRANCH  23  26
ATOM     26  O   UNL     1       5.332  15.670  20.468  0.00  0.00    +0.000 OA
ATOM     27  C   UNL     1       6.512  15.038  20.951  0.00  0.00    +0.000 C 
ENDBRANCH  23  26
ENDBRANCH   3  20
TORSDOF 6
ENDMDL
MODEL 5
REMARK VINA RESULT:      -6.1      0.738      1.184
REMARK  Name = 
REMARK  9 active torsions:
REMARK  status: ('A' for Active; 'I' for Inactive)
REMARK    1  A    between atoms: C_1  and  O_2
REMARK    2  A    between atoms: O_2  and  C_3
REMARK    3  A    between atoms: C_6  and  C_7
REMARK    4  A    between atoms: C_9  and  C_10
REMARK    5  A    between atoms: C_9  and  C_18
REMARK    6  A    between atoms: C_13  and  O_14
REMARK    7  A    between atoms: O_14  and  C_15
REMARK    8  A    between atoms: C_21  and  O_22
REMARK    9  A    between atoms: O_22  and  C_23
REMARK                            x       y       z     vdW  Elec       q    Type
REMARK                         _______ _______ _______ _____ _____    ______ ____
ROOT
ATOM      1  C   UNL     1       0.248  13.319  19.256  0.00  0.00    +0.000 C 
ATOM      2 CL   UNL     1      -0.697  14.794  19.106  0.00  0.00    +0.000 Cl
ATOM      3  C   UNL     1      -0.331  12.094  19.210  0.00  0.00    +0.000 C 
ENDROOT
BRANCH   1   7
ATOM      4  C   UNL     1       4.330  14.576  19.574  0.00  0.00    +0.000 A 
ATOM      5  C   UNL     1       3.761  14.329  18.326  0.00  0.00    +0.000 A 
ATOM      6  C   UNL     1       2.446  13.862  18.225  0.00  0.00    +0.000 A 
ATOM      7  C   UNL     1       1.688  13.621  19.379  0.00  0.00    +0.000 A 
ATOM      8  C   UNL     1       2.284  13.811  20.631  0.00  0.00    +0.000 A 
ATOM      9  C   UNL     1       3.600  14.286  20.729  0.00  0.00    +0.000 A 
BRANCH   4  11
ATOM     10  C   UNL     1       6.314  15.001  20.787  0.00  0.00    +0.000 C 
ATOM     11  O   UNL     1       5.606  15.072  19.551  0.00  0.00    +0.000 OA
ENDBRANCH   4  11
ENDBRANCH   1   7
BRANCH   3  12
ATOM     12  C   UNL     1       0.469  10.855  19.385  0.00  0.00    +0.000 A 
ATOM     13  C   UNL     1       0.463  10.185  20.614  0.00  0.00    +0.000 A 
ATOM     14  C   UNL     1       1.092   8.943  20.744  0.00  0.00    +0.000 A 
ATOM     15  C   UNL     1       1.711   8.346  19.644  0.00  0.00    +0.000 A 
ATOM     16  C   UNL     1       1.752   9.028  18.427  0.00  0.00    +0.000 A 
ATOM     17  C   UNL     1       1.136  10.275  18.299  0.00  0.00    +0.000 A 
BRANCH  15  18
ATOM     18  O   UNL     1       2.269   7.118  19.874  0.00  0.00    +0.000 OA
ATOM     19  C   UNL     1       2.830   6.486  18.726  0.00  0.00    +0.000 C 
ENDBRANCH  15  18
ENDBRANCH   3  12
BRANCH   3  20
ATOM     20  C   UNL     1      -1.790  11.984  18.926  0.00  0.00    +0.000 A 
ATOM     21  C   UNL     1      -2.211  11.556  17.660  0.00  0.00    +0.000 A 
ATOM     22  C   UNL     1      -3.572  11.470  17.360  0.00  0.00    +0.000 A 
ATOM     23  C   UNL     1      -4.533  11.791  18.320  0.00  0.00    +0.000 A 
ATOM     24  C   UNL     1      -4.121  12.218  19.583  0.00  0.00    +0.000 A 
ATOM     25  C   UNL     1      -2.754  12.311  19.885  0.00  0.00    +0.000 A 
BRANCH  23  26
ATOM     26  O   UNL     1      -5.826  11.697  17.889  0.00  0.00    +0.000 OA
ATOM     27  C   UNL     1      -6.309  12.782  17.106  0.00  0.00    +0.000 C 
ENDBRANCH  23  26
ENDBRANCH   3  20
TORSDOF 6
ENDMDL
MODEL 6
REMARK VINA RESULT:      -6.1      0.940      1.083
REMARK  Name = 
REMARK  9 active torsions:
REMARK  status: ('A' for Active; 'I' for Inactive)
REMARK    1  A    between atoms: C_1  and  O_2
REMARK    2  A    between atoms: O_2  and  C_3
REMARK    3  A    between atoms: C_6  and  C_7
REMARK    4  A    between atoms: C_9  and  C_10
REMARK    5  A    between atoms: C_9  and  C_18
REMARK    6  A    between atoms: C_13  and  O_14
REMARK    7  A    between atoms: O_14  and  C_15
REMARK    8  A    between atoms: C_21  and  O_22
REMARK    9  A    between atoms: O_22  and  C_23
REMARK                            x       y       z     vdW  Elec       q    Type
REMARK                         _______ _______ _______ _____ _____    ______ ____
ROOT
ATOM      1  C   UNL     1       0.151  13.488  19.430  0.00  0.00    +0.000 C 
ATOM      2 CL   UNL     1      -0.767  14.981  19.295  0.00  0.00    +0.000 Cl
ATOM      3  C   UNL     1      -0.460  12.278  19.476  0.00  0.00    +0.000 C 
ENDROOT
BRANCH   1   7
ATOM      4  C   UNL     1       4.275  14.644  19.400  0.00  0.00    +0.000 A 
ATOM      5  C   UNL     1       3.596  14.411  18.205  0.00  0.00    +0.000 A 
ATOM      6  C   UNL     1       2.266  13.977  18.217  0.00  0.00    +0.000 A 
ATOM      7  C   UNL     1       1.603  13.754  19.431  0.00  0.00    +0.000 A 
ATOM      8  C   UNL     1       2.307  13.929  20.628  0.00  0.00    +0.000 A 
ATOM      9  C   UNL     1       3.637  14.372  20.614  0.00  0.00    +0.000 A 
BRANCH   4  11
ATOM     10  C   UNL     1       6.197  14.798  18.034  0.00  0.00    +0.000 C 
ATOM     11  O   UNL     1       5.556  15.109  19.269  0.00  0.00    +0.000 OA
ENDBRANCH   4  11
ENDBRANCH   1   7
BRANCH   3  12
ATOM     12  C   UNL     1       0.320  11.025  19.638  0.00  0.00    +0.000 A 
ATOM     13  C   UNL     1       0.348  10.371  20.875  0.00  0.00    +0.000 A 
ATOM     14  C   UNL     1       0.956   9.118  20.999  0.00  0.00    +0.000 A 
ATOM     15  C   UNL     1       1.519   8.494  19.885  0.00  0.00    +0.000 A 
ATOM     16  C   UNL     1       1.528   9.159  18.657  0.00  0.00    +0.000 A 
ATOM     17  C   UNL     1       0.934  10.417  18.535  0.00  0.00    +0.000 A 
BRANCH  15  18
ATOM     18  O   UNL     1       2.061   7.258  20.110  0.00  0.00    +0.000 OA
ATOM     19  C   UNL     1       2.672   6.650  18.975  0.00  0.00    +0.000 C 
ENDBRANCH  15  18
ENDBRANCH   3  12
BRANCH   3  20
ATOM     20  C   UNL     1      -1.938  12.198  19.309  0.00  0.00    +0.000 A 
ATOM     21  C   UNL     1      -2.770  12.662  20.336  0.00  0.00    +0.000 A 
ATOM     22  C   UNL     1      -4.158  12.573  20.216  0.00  0.00    +0.000 A 
ATOM     23  C   UNL     1      -4.739  12.038  19.065  0.00  0.00    +0.000 A 
ATOM     24  C   UNL     1      -3.917  11.574  18.037  0.00  0.00    +0.000 A 
ATOM     25  C   UNL     1      -2.522  11.656  18.158  0.00  0.00    +0.000 A 
BRANCH  23  26
ATOM     26  O   UNL     1      -6.104  11.978  19.087  0.00  0.00    +0.000 OA
ATOM     27  C   UNL     1      -6.692  10.830  18.487  0.00  0.00    +0.000 C 
ENDBRANCH  23  26
ENDBRANCH   3  20
TORSDOF 6
ENDMDL
MODEL 7
REMARK VINA RESULT:      -6.1      3.396      6.107
REMARK  Name = 
REMARK  9 active torsions:
REMARK  status: ('A' for Active; 'I' for Inactive)
REMARK    1  A    between atoms: C_1  and  O_2
REMARK    2  A    between atoms: O_2  and  C_3
REMARK    3  A    between atoms: C_6  and  C_7
REMARK    4  A    between atoms: C_9  and  C_10
REMARK    5  A    between atoms: C_9  and  C_18
REMARK    6  A    between atoms: C_13  and  O_14
REMARK    7  A    between atoms: O_14  and  C_15
REMARK    8  A    between atoms: C_21  and  O_22
REMARK    9  A    between atoms: O_22  and  C_23
REMARK                            x       y       z     vdW  Elec       q    Type
REMARK                         _______ _______ _______ _____ _____    ______ ____
ROOT
ATOM      1  C   UNL     1       0.532   9.839  21.028  0.00  0.00    +0.000 C 
ATOM      2 CL   UNL     1       1.199   9.736  22.651  0.00  0.00    +0.000 Cl
ATOM      3  C   UNL     1      -0.375  10.788  20.689  0.00  0.00    +0.000 C 
ENDROOT
BRANCH   1   7
ATOM      4  C   UNL     1       2.614   7.013  18.573  0.00  0.00    +0.000 A 
ATOM      5  C   UNL     1       2.310   8.285  18.088  0.00  0.00    +0.000 A 
ATOM      6  C   UNL     1       1.580   9.187  18.868  0.00  0.00    +0.000 A 
ATOM      7  C   UNL     1       1.127   8.819  20.142  0.00  0.00    +0.000 A 
ATOM      8  C   UNL     1       1.381   7.521  20.601  0.00  0.00    +0.000 A 
ATOM      9  C   UNL     1       2.120   6.621  19.820  0.00  0.00    +0.000 A 
BRANCH   4  11
ATOM     10  C   UNL     1       4.464   6.892  17.107  0.00  0.00    +0.000 C 
ATOM     11  O   UNL     1       3.372   6.232  17.742  0.00  0.00    +0.000 OA
ENDBRANCH   4  11
ENDBRANCH   1   7
BRANCH   3  12
ATOM     12  C   UNL     1      -0.969  10.839  19.329  0.00  0.00    +0.000 A 
ATOM     13  C   UNL     1      -1.874   9.852  18.921  0.00  0.00    +0.000 A 
ATOM     14  C   UNL     1      -2.548   9.971  17.702  0.00  0.00    +0.000 A 
ATOM     15  C   UNL     1      -2.345  11.088  16.890  0.00  0.00    +0.000 A 
ATOM     16  C   UNL     1      -1.415  12.056  17.273  0.00  0.00    +0.000 A 
ATOM     17  C   UNL     1      -0.730  11.931  18.485  0.00  0.00    +0.000 A 
BRANCH  15  18
ATOM     18  O   UNL     1      -3.077  11.119  15.734  0.00  0.00    +0.000 OA
ATOM     19  C   UNL     1      -2.814  10.055  14.823  0.00  0.00    +0.000 C 
ENDBRANCH  15  18
ENDBRANCH   3  12
BRANCH   3  20
ATOM     20  C   UNL     1      -0.746  11.834  21.683  0.00  0.00    +0.000 A 
ATOM     21  C   UNL     1      -1.830  11.609  22.542  0.00  0.00    +0.000 A 
ATOM     22  C   UNL     1      -2.215  12.584  23.465  0.00  0.00    +0.000 A 
ATOM     23  C   UNL     1      -1.517  13.789  23.558  0.00  0.00    +0.000 A 
ATOM     24  C   UNL     1      -0.436  14.021  22.706  0.00  0.00    +0.000 A 
ATOM     25  C   UNL     1      -0.051  13.045  21.774  0.00  0.00    +0.000 A 
BRANCH  23  26
ATOM     26  O   UNL     1      -2.014  14.670  24.476  0.00  0.00    +0.000 OA
ATOM     27  C   UNL     1      -2.716  15.792  23.955  0.00  0.00    +0.000 C 
ENDBRANCH  23  26
ENDBRANCH   3  20
TORSDOF 6
ENDMDL
MODEL 8
REMARK VINA RESULT:      -6.1      3.471      6.793
REMARK  Name = 
REMARK  9 active torsions:
REMARK  status: ('A' for Active; 'I' for Inactive)
REMARK    1  A    between atoms: C_1  and  O_2
REMARK    2  A    between atoms: O_2  and  C_3
REMARK    3  A    between atoms: C_6  and  C_7
REMARK    4  A    between atoms: C_9  and  C_10
REMARK    5  A    between atoms: C_9  and  C_18
REMARK    6  A    between atoms: C_13  and  O_14
REMARK    7  A    between atoms: O_14  and  C_15
REMARK    8  A    between atoms: C_21  and  O_22
REMARK    9  A    between atoms: O_22  and  C_23
REMARK                            x       y       z     vdW  Elec       q    Type
REMARK                         _______ _______ _______ _____ _____    ______ ____
ROOT
ATOM      1  C   UNL     1      -3.550  12.095  19.411  0.00  0.00    +0.000 C 
ATOM      2 CL   UNL     1      -5.229  12.172  19.927  0.00  0.00    +0.000 Cl
ATOM      3  C   UNL     1      -2.553  12.645  20.146  0.00  0.00    +0.000 C 
ENDROOT
BRANCH   1   7
ATOM      4  C   UNL     1      -2.927  10.180  15.630  0.00  0.00    +0.000 A 
ATOM      5  C   UNL     1      -3.965  11.095  15.798  0.00  0.00    +0.000 A 
ATOM      6  C   UNL     1      -4.204  11.676  17.047  0.00  0.00    +0.000 A 
ATOM      7  C   UNL     1      -3.415  11.333  18.153  0.00  0.00    +0.000 A 
ATOM      8  C   UNL     1      -2.413  10.368  17.995  0.00  0.00    +0.000 A 
ATOM      9  C   UNL     1      -2.170   9.793  16.740  0.00  0.00    +0.000 A 
BRANCH   4  11
ATOM     10  C   UNL     1      -3.838   9.958  13.461  0.00  0.00    +0.000 C 
ATOM     11  O   UNL     1      -2.756   9.710  14.356  0.00  0.00    +0.000 OA
ENDBRANCH   4  11
ENDBRANCH   1   7
BRANCH   3  12
ATOM     12  C   UNL     1      -1.144  12.617  19.680  0.00  0.00    +0.000 A 
ATOM     13  C   UNL     1      -0.698  13.550  18.736  0.00  0.00    +0.000 A 
ATOM     14  C   UNL     1       0.657  13.625  18.402  0.00  0.00    +0.000 A 
ATOM     15  C   UNL     1       1.585  12.788  19.024  0.00  0.00    +0.000 A 
ATOM     16  C   UNL     1       1.141  11.830  19.938  0.00  0.00    +0.000 A 
ATOM     17  C   UNL     1      -0.215  11.745  20.262  0.00  0.00    +0.000 A 
BRANCH  15  18
ATOM     18  O   UNL     1       2.889  12.965  18.646  0.00  0.00    +0.000 OA
ATOM     19  C   UNL     1       3.399  14.282  18.837  0.00  0.00    +0.000 C 
ENDBRANCH  15  18
ENDBRANCH   3  12
BRANCH   3  20
ATOM     20  C   UNL     1      -2.868  13.245  21.474  0.00  0.00    +0.000 A 
ATOM     21  C   UNL     1      -3.062  14.629  21.571  0.00  0.00    +0.000 A 
ATOM     22  C   UNL     1      -3.331  15.219  22.807  0.00  0.00    +0.000 A 
ATOM     23  C   UNL     1      -3.429  14.440  23.961  0.00  0.00    +0.000 A 
ATOM     24  C   UNL     1      -3.237  13.060  23.872  0.00  0.00    +0.000 A 
ATOM     25  C   UNL     1      -2.961  12.465  22.632  0.00  0.00    +0.000 A 
BRANCH  23  26
ATOM     26  O   UNL     1      -3.663  15.142  25.109  0.00  0.00    +0.000 OA
ATOM     27  C   UNL     1      -3.576  16.559  25.008  0.00  0.00    +0.000 C 
ENDBRANCH  23  26
ENDBRANCH   3  20
TORSDOF 6
ENDMDL
MODEL 9
REMARK VINA RESULT:      -6.0      2.619      6.184
REMARK  Name = 
REMARK  9 active torsions:
REMARK  status: ('A' for Active; 'I' for Inactive)
REMARK    1  A    between atoms: C_1  and  O_2
REMARK    2  A    between atoms: O_2  and  C_3
REMARK    3  A    between atoms: C_6  and  C_7
REMARK    4  A    between atoms: C_9  and  C_10
REMARK    5  A    between atoms: C_9  and  C_18
REMARK    6  A    between atoms: C_13  and  O_14
REMARK    7  A    between atoms: O_14  and  C_15
REMARK    8  A    between atoms: C_21  and  O_22
REMARK    9  A    between atoms: O_22  and  C_23
REMARK                            x       y       z     vdW  Elec       q    Type
REMARK                         _______ _______ _______ _____ _____    ______ ____
ROOT
ATOM      1  C   UNL     1       0.549  12.899  19.722  0.00  0.00    +0.000 C 
ATOM      2 CL   UNL     1       2.197  12.868  20.334  0.00  0.00    +0.000 Cl
ATOM      3  C   UNL     1      -0.086  11.769  19.326  0.00  0.00    +0.000 C 
ENDROOT
BRANCH   1   7
ATOM      4  C   UNL     1      -1.359  16.732  19.605  0.00  0.00    +0.000 A 
ATOM      5  C   UNL     1      -0.455  16.361  18.611  0.00  0.00    +0.000 A 
ATOM      6  C   UNL     1       0.212  15.133  18.681  0.00  0.00    +0.000 A 
ATOM      7  C   UNL     1      -0.007  14.266  19.760  0.00  0.00    +0.000 A 
ATOM      8  C   UNL     1      -0.868  14.670  20.787  0.00  0.00    +0.000 A 
ATOM      9  C   UNL     1      -1.541  15.898  20.711  0.00  0.00    +0.000 A 
BRANCH   4  11
ATOM     10  C   UNL     1      -1.862  18.486  18.103  0.00  0.00    +0.000 C 
ATOM     11  O   UNL     1      -1.986  17.934  19.412  0.00  0.00    +0.000 OA
ENDBRANCH   4  11
ENDBRANCH   1   7
BRANCH   3  12
ATOM     12  C   UNL     1      -1.460  11.810  18.766  0.00  0.00    +0.000 A 
ATOM     13  C   UNL     1      -1.676  11.516  17.415  0.00  0.00    +0.000 A 
ATOM     14  C   UNL     1      -2.977  11.409  16.914  0.00  0.00    +0.000 A 
ATOM     15  C   UNL     1      -4.075  11.568  17.761  0.00  0.00    +0.000 A 
ATOM     16  C   UNL     1      -3.866  11.899  19.101  0.00  0.00    +0.000 A 
ATOM     17  C   UNL     1      -2.566  12.021  19.600  0.00  0.00    +0.000 A 
BRANCH  15  18
ATOM     18  O   UNL     1      -5.302  11.413  17.175  0.00  0.00    +0.000 OA
ATOM     19  C   UNL     1      -6.410  11.479  18.068  0.00  0.00    +0.000 C 
ENDBRANCH  15  18
ENDBRANCH   3  12
BRANCH   3  20
ATOM     20  C   UNL     1       0.588  10.451  19.504  0.00  0.00    +0.000 A 
ATOM     21  C   UNL     1       1.312   9.902  18.438  0.00  0.00    +0.000 A 
ATOM     22  C   UNL     1       1.930   8.657  18.570  0.00  0.00    +0.000 A 
ATOM     23  C   UNL     1       1.850   7.948  19.770  0.00  0.00    +0.000 A 
ATOM     24  C   UNL     1       1.130   8.488  20.837  0.00  0.00    +0.000 A 
ATOM     25  C   UNL     1       0.504   9.736  20.705  0.00  0.00    +0.000 A 
BRANCH  23  26
ATOM     26  O   UNL     1       2.469   6.730  19.758  0.00  0.00    +0.000 OA
ATOM     27  C   UNL     1       1.847   5.701  20.518  0.00  0.00    +0.000 C 
ENDBRANCH  23  26
ENDBRANCH   3  20
TORSDOF 6
ENDMDL
