MODEL 1
REMARK VINA RESULT:      -9.3      0.000      0.000
REMARK  Name = 
REMARK  7 active torsions:
REMARK  status: ('A' for Active; 'I' for Inactive)
REMARK    1  A    between atoms: C_2  and  C_4
REMARK    2  A    between atoms: C_4  and  C_5
REMARK    3  A    between atoms: C_5  and  C_6
REMARK    4  A    between atoms: C_6  and  C_7
REMARK    5  A    between atoms: C_7  and  C_8
REMARK    6  A    between atoms: C_11  and  N_12
REMARK    7  A    between atoms: N_12  and  C_13
REMARK                            x       y       z     vdW  Elec       q    Type
REMARK                         _______ _______ _______ _____ _____    ______ ____
ROOT
ATOM      1  N   UNL     1       3.265   6.333  19.966  0.00  0.00    +0.000 N 
ATOM      2  H   UNL     1       3.436   6.135  20.949  0.00  0.00    +0.000 HD
ENDROOT
BRANCH   1   3
ATOM      3  C   UNL     1       3.589   5.180  19.174  0.00  0.00    +0.000 A 
ATOM      4  C   UNL     1       4.221   5.205  17.870  0.00  0.00    +0.000 A 
ATOM      5  C   UNL     1       4.387   6.285  16.965  0.00  0.00    +0.000 A 
ATOM      6  C   UNL     1       5.162   6.184  15.808  0.00  0.00    +0.000 A 
ATOM      7  C   UNL     1       5.768   4.979  15.503  0.00  0.00    +0.000 A 
ATOM      8  C   UNL     1       5.445   3.861  16.261  0.00  0.00    +0.000 A 
ATOM      9  C   UNL     1       4.582   3.960  17.343  0.00  0.00    +0.000 A 
ATOM     10  N   UNL     1       3.952   2.861  17.739  0.00  0.00    +0.000 NA
ATOM     11  C   UNL     1       2.961   3.056  18.610  0.00  0.00    +0.000 A 
ATOM     12  C   UNL     1       1.636   2.894  18.235  0.00  0.00    +0.000 A 
ATOM     13  C   UNL     1       0.598   3.227  19.112  0.00  0.00    +0.000 A 
ATOM     14  C   UNL     1       0.918   3.503  20.436  0.00  0.00    +0.000 A 
ATOM     15  C   UNL     1       2.244   3.769  20.741  0.00  0.00    +0.000 A 
ATOM     16  C   UNL     1       3.109   3.927  19.648  0.00  0.00    +0.000 A 
ENDBRANCH   1   3
BRANCH   1  20
ATOM     17  C   UNL     1       0.618   9.599  19.617  0.00  0.00    +0.000 A 
ATOM     18  C   UNL     1       1.417   9.214  18.533  0.00  0.00    +0.000 A 
ATOM     19  C   UNL     1       2.248   8.091  18.630  0.00  0.00    +0.000 A 
ATOM     20  C   UNL     1       2.289   7.332  19.808  0.00  0.00    +0.000 A 
ATOM     21  C   UNL     1       1.393   7.649  20.824  0.00  0.00    +0.000 A 
ATOM     22  C   UNL     1       0.635   8.815  20.772  0.00  0.00    +0.000 A 
BRANCH  17  23
ATOM     23  C   UNL     1      -0.272  10.817  19.586  0.00  0.00    +0.000 C 
BRANCH  23  24
ATOM     24  C   UNL     1      -0.987  11.050  18.254  0.00  0.00    +0.000 C 
BRANCH  24  25
ATOM     25  C   UNL     1      -1.907   9.922  17.789  0.00  0.00    +0.000 C 
BRANCH  25  26
ATOM     26  C   UNL     1      -3.400  10.233  17.613  0.00  0.00    +0.000 C 
BRANCH  26  28
ATOM     27  N   UNL     1      -4.680  12.095  16.754  0.00  0.00    +0.000 N 
ATOM     28  C   UNL     1      -3.774  11.115  16.432  0.00  0.00    +0.000 C 
ATOM     29  O   UNL     1      -3.271  11.075  15.329  0.00  0.00    +0.000 OA
ATOM     30  H   UNL     1      -5.016  12.719  16.031  0.00  0.00    +0.000 HD
ATOM     31  H   UNL     1      -5.108  12.173  17.671  0.00  0.00    +0.000 HD
ENDBRANCH  26  28
ENDBRANCH  25  26
ENDBRANCH  24  25
ENDBRANCH  23  24
ENDBRANCH  17  23
ENDBRANCH   1  20
TORSDOF 7
ENDMDL
MODEL 2
REMARK VINA RESULT:      -9.1      1.407      1.884
REMARK  Name = 
REMARK  7 active torsions:
REMARK  status: ('A' for Active; 'I' for Inactive)
REMARK    1  A    between atoms: C_2  and  C_4
REMARK    2  A    between atoms: C_4  and  C_5
REMARK    3  A    between atoms: C_5  and  C_6
REMARK    4  A    between atoms: C_6  and  C_7
REMARK    5  A    between atoms: C_7  and  C_8
REMARK    6  A    between atoms: C_11  and  N_12
REMARK    7  A    between atoms: N_12  and  C_13
REMARK                            x       y       z     vdW  Elec       q    Type
REMARK                         _______ _______ _______ _____ _____    ______ ____
ROOT
ATOM      1  N   UNL     1       2.316   6.365  18.640  0.00  0.00    +0.000 N 
ATOM      2  H   UNL     1       1.895   6.084  17.757  0.00  0.00    +0.000 HD
ENDROOT
BRANCH   1   3
ATOM      3  C   UNL     1       3.494   5.582  18.888  0.00  0.00    +0.000 A 
ATOM      4  C   UNL     1       4.827   5.893  18.411  0.00  0.00    +0.000 A 
ATOM      5  C   UNL     1       5.239   6.799  17.399  0.00  0.00    +0.000 A 
ATOM      6  C   UNL     1       6.581   7.103  17.163  0.00  0.00    +0.000 A 
ATOM      7  C   UNL     1       7.558   6.478  17.915  0.00  0.00    +0.000 A 
ATOM      8  C   UNL     1       7.186   5.439  18.759  0.00  0.00    +0.000 A 
ATOM      9  C   UNL     1       5.854   5.076  18.896  0.00  0.00    +0.000 A 
ATOM     10  N   UNL     1       5.584   3.847  19.317  0.00  0.00    +0.000 NA
ATOM     11  C   UNL     1       4.311   3.471  19.196  0.00  0.00    +0.000 A 
ATOM     12  C   UNL     1       3.928   2.528  18.253  0.00  0.00    +0.000 A 
ATOM     13  C   UNL     1       2.577   2.235  18.041  0.00  0.00    +0.000 A 
ATOM     14  C   UNL     1       1.646   2.733  18.945  0.00  0.00    +0.000 A 
ATOM     15  C   UNL     1       2.046   3.754  19.792  0.00  0.00    +0.000 A 
ATOM     16  C   UNL     1       3.299   4.324  19.523  0.00  0.00    +0.000 A 
ENDBRANCH   1   3
BRANCH   1  20
ATOM     17  C   UNL     1       0.952  10.255  19.535  0.00  0.00    +0.000 A 
ATOM     18  C   UNL     1       1.056   9.289  20.544  0.00  0.00    +0.000 A 
ATOM     19  C   UNL     1       1.568   8.019  20.257  0.00  0.00    +0.000 A 
ATOM     20  C   UNL     1       1.991   7.695  18.961  0.00  0.00    +0.000 A 
ATOM     21  C   UNL     1       2.005   8.704  18.004  0.00  0.00    +0.000 A 
ATOM     22  C   UNL     1       1.412   9.937  18.256  0.00  0.00    +0.000 A 
BRANCH  17  23
ATOM     23  C   UNL     1       0.377  11.629  19.774  0.00  0.00    +0.000 C 
BRANCH  23  24
ATOM     24  C   UNL     1      -0.343  12.237  18.569  0.00  0.00    +0.000 C 
BRANCH  24  25
ATOM     25  C   UNL     1      -1.779  11.765  18.347  0.00  0.00    +0.000 C 
BRANCH  25  26
ATOM     26  C   UNL     1      -2.028  10.678  17.293  0.00  0.00    +0.000 C 
BRANCH  26  28
ATOM     27  N   UNL     1      -4.058  11.813  16.631  0.00  0.00    +0.000 N 
ATOM     28  C   UNL     1      -3.029  11.014  16.197  0.00  0.00    +0.000 C 
ATOM     29  O   UNL     1      -2.919  10.729  15.024  0.00  0.00    +0.000 OA
ATOM     30  H   UNL     1      -4.793  12.072  15.984  0.00  0.00    +0.000 HD
ATOM     31  H   UNL     1      -4.173  12.089  17.601  0.00  0.00    +0.000 HD
ENDBRANCH  26  28
ENDBRANCH  25  26
ENDBRANCH  24  25
ENDBRANCH  23  24
ENDBRANCH  17  23
ENDBRANCH   1  20
TORSDOF 7
ENDMDL
MODEL 3
REMARK VINA RESULT:      -8.9      2.362      2.828
REMARK  Name = 
REMARK  7 active torsions:
REMARK  status: ('A' for Active; 'I' for Inactive)
REMARK    1  A    between atoms: C_2  and  C_4
REMARK    2  A    between atoms: C_4  and  C_5
REMARK    3  A    between atoms: C_5  and  C_6
REMARK    4  A    between atoms: C_6  and  C_7
REMARK    5  A    between atoms: C_7  and  C_8
REMARK    6  A    between atoms: C_11  and  N_12
REMARK    7  A    between atoms: N_12  and  C_13
REMARK                            x       y       z     vdW  Elec       q    Type
REMARK                         _______ _______ _______ _____ _____    ______ ____
ROOT
ATOM      1  N   UNL     1       3.368   6.464  19.785  0.00  0.00    +0.000 N 
ATOM      2  H   UNL     1       3.576   6.335  20.773  0.00  0.00    +0.000 HD
ENDROOT
BRANCH   1   3
ATOM      3  C   UNL     1       3.691   5.268  19.059  0.00  0.00    +0.000 A 
ATOM      4  C   UNL     1       4.326   5.219  17.757  0.00  0.00    +0.000 A 
ATOM      5  C   UNL     1       4.498   6.247  16.794  0.00  0.00    +0.000 A 
ATOM      6  C   UNL     1       5.276   6.080  15.647  0.00  0.00    +0.000 A 
ATOM      7  C   UNL     1       5.879   4.858  15.411  0.00  0.00    +0.000 A 
ATOM      8  C   UNL     1       5.551   3.785  16.229  0.00  0.00    +0.000 A 
ATOM      9  C   UNL     1       4.685   3.946  17.301  0.00  0.00    +0.000 A 
ATOM     10  N   UNL     1       4.051   2.873  17.757  0.00  0.00    +0.000 NA
ATOM     11  C   UNL     1       3.059   3.118  18.613  0.00  0.00    +0.000 A 
ATOM     12  C   UNL     1       1.734   2.940  18.244  0.00  0.00    +0.000 A 
ATOM     13  C   UNL     1       0.695   3.323  19.099  0.00  0.00    +0.000 A 
ATOM     14  C   UNL     1       1.013   3.671  20.406  0.00  0.00    +0.000 A 
ATOM     15  C   UNL     1       2.339   3.950  20.699  0.00  0.00    +0.000 A 
ATOM     16  C   UNL     1       3.207   4.046  19.601  0.00  0.00    +0.000 A 
ENDBRANCH   1   3
BRANCH   1  20
ATOM     17  C   UNL     1       0.649   9.650  19.284  0.00  0.00    +0.000 A 
ATOM     18  C   UNL     1       1.356   9.141  18.188  0.00  0.00    +0.000 A 
ATOM     19  C   UNL     1       2.211   8.043  18.344  0.00  0.00    +0.000 A 
ATOM     20  C   UNL     1       2.367   7.432  19.596  0.00  0.00    +0.000 A 
ATOM     21  C   UNL     1       1.558   7.865  20.642  0.00  0.00    +0.000 A 
ATOM     22  C   UNL     1       0.780   9.012  20.518  0.00  0.00    +0.000 A 
BRANCH  17  23
ATOM     23  C   UNL     1      -0.259  10.851  19.186  0.00  0.00    +0.000 C 
BRANCH  23  24
ATOM     24  C   UNL     1      -0.145  11.833  20.352  0.00  0.00    +0.000 C 
BRANCH  24  25
ATOM     25  C   UNL     1       0.877  12.955  20.178  0.00  0.00    +0.000 C 
BRANCH  25  26
ATOM     26  C   UNL     1       1.006  13.607  18.794  0.00  0.00    +0.000 C 
BRANCH  26  28
ATOM     27  N   UNL     1       2.651  12.397  17.499  0.00  0.00    +0.000 N 
ATOM     28  C   UNL     1       2.386  13.575  18.155  0.00  0.00    +0.000 C 
ATOM     29  O   UNL     1       3.165  14.502  18.101  0.00  0.00    +0.000 OA
ATOM     30  H   UNL     1       3.554  12.264  17.062  0.00  0.00    +0.000 HD
ATOM     31  H   UNL     1       2.015  11.606  17.505  0.00  0.00    +0.000 HD
ENDBRANCH  26  28
ENDBRANCH  25  26
ENDBRANCH  24  25
ENDBRANCH  23  24
ENDBRANCH  17  23
ENDBRANCH   1  20
TORSDOF 7
ENDMDL
MODEL 4
REMARK VINA RESULT:      -8.9      1.887      2.265
REMARK  Name = 
REMARK  7 active torsions:
REMARK  status: ('A' for Active; 'I' for Inactive)
REMARK    1  A    between atoms: C_2  and  C_4
REMARK    2  A    between atoms: C_4  and  C_5
REMARK    3  A    between atoms: C_5  and  C_6
REMARK    4  A    between atoms: C_6  and  C_7
REMARK    5  A    between atoms: C_7  and  C_8
REMARK    6  A    between atoms: C_11  and  N_12
REMARK    7  A    between atoms: N_12  and  C_13
REMARK                            x       y       z     vdW  Elec       q    Type
REMARK                         _______ _______ _______ _____ _____    ______ ____
ROOT
ATOM      1  N   UNL     1       2.580   6.855  18.019  0.00  0.00    +0.000 N 
ATOM      2  H   UNL     1       2.674   6.984  17.014  0.00  0.00    +0.000 HD
ENDROOT
BRANCH   1   3
ATOM      3  C   UNL     1       3.608   5.973  18.494  0.00  0.00    +0.000 A 
ATOM      4  C   UNL     1       5.031   6.146  18.283  0.00  0.00    +0.000 A 
ATOM      5  C   UNL     1       5.714   6.986  17.364  0.00  0.00    +0.000 A 
ATOM      6  C   UNL     1       7.099   7.158  17.390  0.00  0.00    +0.000 A 
ATOM      7  C   UNL     1       7.850   6.463  18.321  0.00  0.00    +0.000 A 
ATOM      8  C   UNL     1       7.225   5.484  19.083  0.00  0.00    +0.000 A 
ATOM      9  C   UNL     1       5.863   5.249  18.961  0.00  0.00    +0.000 A 
ATOM     10  N   UNL     1       5.401   4.061  19.329  0.00  0.00    +0.000 NA
ATOM     11  C   UNL     1       4.144   3.802  18.967  0.00  0.00    +0.000 A 
ATOM     12  C   UNL     1       3.861   2.877  17.973  0.00  0.00    +0.000 A 
ATOM     13  C   UNL     1       2.554   2.705  17.505  0.00  0.00    +0.000 A 
ATOM     14  C   UNL     1       1.519   3.309  18.209  0.00  0.00    +0.000 A 
ATOM     15  C   UNL     1       1.845   4.309  19.112  0.00  0.00    +0.000 A 
ATOM     16  C   UNL     1       3.175   4.754  19.087  0.00  0.00    +0.000 A 
ENDBRANCH   1   3
BRANCH   1  20
ATOM     17  C   UNL     1       1.029  10.308  19.882  0.00  0.00    +0.000 A 
ATOM     18  C   UNL     1       1.259  10.289  18.501  0.00  0.00    +0.000 A 
ATOM     19  C   UNL     1       1.714   9.122  17.875  0.00  0.00    +0.000 A 
ATOM     20  C   UNL     1       1.940   7.954  18.617  0.00  0.00    +0.000 A 
ATOM     21  C   UNL     1       1.580   7.952  19.961  0.00  0.00    +0.000 A 
ATOM     22  C   UNL     1       1.219   9.130  20.607  0.00  0.00    +0.000 A 
BRANCH  17  23
ATOM     23  C   UNL     1       0.572  11.543  20.618  0.00  0.00    +0.000 C 
BRANCH  23  24
ATOM     24  C   UNL     1      -0.890  11.512  21.068  0.00  0.00    +0.000 C 
BRANCH  24  25
ATOM     25  C   UNL     1      -1.794  12.581  20.458  0.00  0.00    +0.000 C 
BRANCH  25  26
ATOM     26  C   UNL     1      -2.800  12.149  19.381  0.00  0.00    +0.000 C 
BRANCH  26  28
ATOM     27  N   UNL     1      -1.547  12.293  17.318  0.00  0.00    +0.000 N 
ATOM     28  C   UNL     1      -2.225  11.446  18.161  0.00  0.00    +0.000 C 
ATOM     29  O   UNL     1      -2.236  10.251  17.960  0.00  0.00    +0.000 OA
ATOM     30  H   UNL     1      -1.150  11.928  16.462  0.00  0.00    +0.000 HD
ATOM     31  H   UNL     1      -1.499  13.296  17.464  0.00  0.00    +0.000 HD
ENDBRANCH  26  28
ENDBRANCH  25  26
ENDBRANCH  24  25
ENDBRANCH  23  24
ENDBRANCH  17  23
ENDBRANCH   1  20
TORSDOF 7
ENDMDL
MODEL 5
REMARK VINA RESULT:      -8.8      1.070      1.086
REMARK  Name = 
REMARK  7 active torsions:
REMARK  status: ('A' for Active; 'I' for Inactive)
REMARK    1  A    between atoms: C_2  and  C_4
REMARK    2  A    between atoms: C_4  and  C_5
REMARK    3  A    between atoms: C_5  and  C_6
REMARK    4  A    between atoms: C_6  and  C_7
REMARK    5  A    between atoms: C_7  and  C_8
REMARK    6  A    between atoms: C_11  and  N_12
REMARK    7  A    between atoms: N_12  and  C_13
REMARK                            x       y       z     vdW  Elec       q    Type
REMARK                         _______ _______ _______ _____ _____    ______ ____
ROOT
ATOM      1  N   UNL     1       3.404   6.547  19.708  0.00  0.00    +0.000 N 
ATOM      2  H   UNL     1       3.662   6.468  20.689  0.00  0.00    +0.000 HD
ENDROOT
BRANCH   1   3
ATOM      3  C   UNL     1       3.730   5.330  19.020  0.00  0.00    +0.000 A 
ATOM      4  C   UNL     1       4.368   5.242  17.721  0.00  0.00    +0.000 A 
ATOM      5  C   UNL     1       4.540   6.241  16.727  0.00  0.00    +0.000 A 
ATOM      6  C   UNL     1       5.321   6.040  15.587  0.00  0.00    +0.000 A 
ATOM      7  C   UNL     1       5.926   4.812  15.390  0.00  0.00    +0.000 A 
ATOM      8  C   UNL     1       5.598   3.764  16.240  0.00  0.00    +0.000 A 
ATOM      9  C   UNL     1       4.729   3.956  17.305  0.00  0.00    +0.000 A 
ATOM     10  N   UNL     1       4.096   2.896  17.791  0.00  0.00    +0.000 NA
ATOM     11  C   UNL     1       3.102   3.167  18.638  0.00  0.00    +0.000 A 
ATOM     12  C   UNL     1       1.778   2.975  18.272  0.00  0.00    +0.000 A 
ATOM     13  C   UNL     1       0.737   3.383  19.112  0.00  0.00    +0.000 A 
ATOM     14  C   UNL     1       1.051   3.771  20.409  0.00  0.00    +0.000 A 
ATOM     15  C   UNL     1       2.376   4.061  20.696  0.00  0.00    +0.000 A 
ATOM     16  C   UNL     1       3.246   4.124  19.598  0.00  0.00    +0.000 A 
ENDBRANCH   1   3
BRANCH   1  20
ATOM     17  C   UNL     1       0.561   9.626  19.221  0.00  0.00    +0.000 A 
ATOM     18  C   UNL     1       1.271   9.134  18.119  0.00  0.00    +0.000 A 
ATOM     19  C   UNL     1       2.167   8.069  18.272  0.00  0.00    +0.000 A 
ATOM     20  C   UNL     1       2.364   7.476  19.526  0.00  0.00    +0.000 A 
ATOM     21  C   UNL     1       1.556   7.887  20.581  0.00  0.00    +0.000 A 
ATOM     22  C   UNL     1       0.734   9.004  20.459  0.00  0.00    +0.000 A 
BRANCH  17  23
ATOM     23  C   UNL     1      -0.392  10.791  19.127  0.00  0.00    +0.000 C 
BRANCH  23  24
ATOM     24  C   UNL     1      -1.698  10.488  18.391  0.00  0.00    +0.000 C 
BRANCH  24  25
ATOM     25  C   UNL     1      -2.569  11.698  18.059  0.00  0.00    +0.000 C 
BRANCH  25  26
ATOM     26  C   UNL     1      -3.945  11.805  18.731  0.00  0.00    +0.000 C 
BRANCH  26  28
ATOM     27  N   UNL     1      -5.014  11.358  16.609  0.00  0.00    +0.000 N 
ATOM     28  C   UNL     1      -5.119  11.208  17.970  0.00  0.00    +0.000 C 
ATOM     29  O   UNL     1      -6.020  10.557  18.453  0.00  0.00    +0.000 OA
ATOM     30  H   UNL     1      -5.759  11.019  16.013  0.00  0.00    +0.000 HD
ATOM     31  H   UNL     1      -4.264  11.879  16.166  0.00  0.00    +0.000 HD
ENDBRANCH  26  28
ENDBRANCH  25  26
ENDBRANCH  24  25
ENDBRANCH  23  24
ENDBRANCH  17  23
ENDBRANCH   1  20
TORSDOF 7
ENDMDL
MODEL 6
REMARK VINA RESULT:      -8.8      1.313      3.589
REMARK  Name = 
REMARK  7 active torsions:
REMARK  status: ('A' for Active; 'I' for Inactive)
REMARK    1  A    between atoms: C_2  and  C_4
REMARK    2  A    between atoms: C_4  and  C_5
REMARK    3  A    between atoms: C_5  and  C_6
REMARK    4  A    between atoms: C_6  and  C_7
REMARK    5  A    between atoms: C_7  and  C_8
REMARK    6  A    between atoms: C_11  and  N_12
REMARK    7  A    between atoms: N_12  and  C_13
REMARK                            x       y       z     vdW  Elec       q    Type
REMARK                         _______ _______ _______ _____ _____    ______ ____
ROOT
ATOM      1  N   UNL     1       2.906   7.388  19.109  0.00  0.00    +0.000 N 
ATOM      2  H   UNL     1       3.422   7.359  19.986  0.00  0.00    +0.000 HD
ENDROOT
BRANCH   1   3
ATOM      3  C   UNL     1       2.941   6.097  18.482  0.00  0.00    +0.000 A 
ATOM      4  C   UNL     1       2.267   4.908  18.964  0.00  0.00    +0.000 A 
ATOM      5  C   UNL     1       1.703   4.642  20.240  0.00  0.00    +0.000 A 
ATOM      6  C   UNL     1       0.944   3.500  20.502  0.00  0.00    +0.000 A 
ATOM      7  C   UNL     1       0.757   2.567  19.498  0.00  0.00    +0.000 A 
ATOM      8  C   UNL     1       1.473   2.708  18.316  0.00  0.00    +0.000 A 
ATOM      9  C   UNL     1       2.312   3.796  18.118  0.00  0.00    +0.000 A 
ATOM     10  N   UNL     1       3.291   3.673  17.230  0.00  0.00    +0.000 NA
ATOM     11  C   UNL     1       4.206   4.642  17.255  0.00  0.00    +0.000 A 
ATOM     12  C   UNL     1       5.488   4.405  17.729  0.00  0.00    +0.000 A 
ATOM     13  C   UNL     1       6.402   5.453  17.876  0.00  0.00    +0.000 A 
ATOM     14  C   UNL     1       6.081   6.689  17.328  0.00  0.00    +0.000 A 
ATOM     15  C   UNL     1       4.760   6.917  16.973  0.00  0.00    +0.000 A 
ATOM     16  C   UNL     1       3.834   5.947  17.384  0.00  0.00    +0.000 A 
ENDBRANCH   1   3
BRANCH   1  20
ATOM     17  C   UNL     1      -0.315  10.112  19.113  0.00  0.00    +0.000 A 
ATOM     18  C   UNL     1       0.128   9.534  20.309  0.00  0.00    +0.000 A 
ATOM     19  C   UNL     1       1.237   8.679  20.314  0.00  0.00    +0.000 A 
ATOM     20  C   UNL     1       1.925   8.394  19.127  0.00  0.00    +0.000 A 
ATOM     21  C   UNL     1       1.555   9.079  17.974  0.00  0.00    +0.000 A 
ATOM     22  C   UNL     1       0.400   9.854  17.942  0.00  0.00    +0.000 A 
BRANCH  17  23
ATOM     23  C   UNL     1      -1.523  11.013  19.037  0.00  0.00    +0.000 C 
BRANCH  23  24
ATOM     24  C   UNL     1      -1.854  11.518  17.632  0.00  0.00    +0.000 C 
BRANCH  24  25
ATOM     25  C   UNL     1      -2.762  10.616  16.799  0.00  0.00    +0.000 C 
BRANCH  25  26
ATOM     26  C   UNL     1      -4.123  11.171  16.356  0.00  0.00    +0.000 C 
BRANCH  26  28
ATOM     27  N   UNL     1      -5.683  12.774  17.274  0.00  0.00    +0.000 N 
ATOM     28  C   UNL     1      -5.095  11.547  17.464  0.00  0.00    +0.000 C 
ATOM     29  O   UNL     1      -5.437  10.832  18.381  0.00  0.00    +0.000 OA
ATOM     30  H   UNL     1      -6.326  13.130  17.971  0.00  0.00    +0.000 HD
ATOM     31  H   UNL     1      -5.436  13.393  16.508  0.00  0.00    +0.000 HD
ENDBRANCH  26  28
ENDBRANCH  25  26
ENDBRANCH  24  25
ENDBRANCH  23  24
ENDBRANCH  17  23
ENDBRANCH   1  20
TORSDOF 7
ENDMDL
MODEL 7
REMARK VINA RESULT:      -8.8      2.428      4.433
REMARK  Name = 
REMARK  7 active torsions:
REMARK  status: ('A' for Active; 'I' for Inactive)
REMARK    1  A    between atoms: C_2  and  C_4
REMARK    2  A    between atoms: C_4  and  C_5
REMARK    3  A    between atoms: C_5  and  C_6
REMARK    4  A    between atoms: C_6  and  C_7
REMARK    5  A    between atoms: C_7  and  C_8
REMARK    6  A    between atoms: C_11  and  N_12
REMARK    7  A    between atoms: N_12  and  C_13
REMARK                            x       y       z     vdW  Elec       q    Type
REMARK                         _______ _______ _______ _____ _____    ______ ____
ROOT
ATOM      1  N   UNL     1       2.774   7.309  19.235  0.00  0.00    +0.000 N 
ATOM      2  H   UNL     1       3.191   7.236  20.161  0.00  0.00    +0.000 HD
ENDROOT
BRANCH   1   3
ATOM      3  C   UNL     1       2.816   6.032  18.581  0.00  0.00    +0.000 A 
ATOM      4  C   UNL     1       2.192   4.817  19.065  0.00  0.00    +0.000 A 
ATOM      5  C   UNL     1       1.686   4.511  20.356  0.00  0.00    +0.000 A 
ATOM      6  C   UNL     1       0.967   3.345  20.624  0.00  0.00    +0.000 A 
ATOM      7  C   UNL     1       0.764   2.427  19.610  0.00  0.00    +0.000 A 
ATOM      8  C   UNL     1       1.429   2.610  18.404  0.00  0.00    +0.000 A 
ATOM      9  C   UNL     1       2.231   3.722  18.195  0.00  0.00    +0.000 A 
ATOM     10  N   UNL     1       3.177   3.642  17.268  0.00  0.00    +0.000 NA
ATOM     11  C   UNL     1       4.068   4.634  17.277  0.00  0.00    +0.000 A 
ATOM     12  C   UNL     1       5.373   4.421  17.695  0.00  0.00    +0.000 A 
ATOM     13  C   UNL     1       6.266   5.489  17.828  0.00  0.00    +0.000 A 
ATOM     14  C   UNL     1       5.892   6.726  17.318  0.00  0.00    +0.000 A 
ATOM     15  C   UNL     1       4.553   6.927  17.020  0.00  0.00    +0.000 A 
ATOM     16  C   UNL     1       3.669   5.926  17.447  0.00  0.00    +0.000 A 
ENDBRANCH   1   3
BRANCH   1  20
ATOM     17  C   UNL     1      -0.308  10.183  19.042  0.00  0.00    +0.000 A 
ATOM     18  C   UNL     1       0.142   9.706  20.279  0.00  0.00    +0.000 A 
ATOM     19  C   UNL     1       1.208   8.800  20.344  0.00  0.00    +0.000 A 
ATOM     20  C   UNL     1       1.844   8.361  19.174  0.00  0.00    +0.000 A 
ATOM     21  C   UNL     1       1.474   8.944  17.967  0.00  0.00    +0.000 A 
ATOM     22  C   UNL     1       0.357   9.771  17.885  0.00  0.00    +0.000 A 
BRANCH  17  23
ATOM     23  C   UNL     1      -1.472  11.133  18.905  0.00  0.00    +0.000 C 
BRANCH  23  24
ATOM     24  C   UNL     1      -1.184  12.563  19.363  0.00  0.00    +0.000 C 
BRANCH  24  25
ATOM     25  C   UNL     1      -0.172  13.338  18.522  0.00  0.00    +0.000 C 
BRANCH  25  26
ATOM     26  C   UNL     1       1.206  13.626  19.134  0.00  0.00    +0.000 C 
BRANCH  26  28
ATOM     27  N   UNL     1       2.604  12.478  17.530  0.00  0.00    +0.000 N 
ATOM     28  C   UNL     1       2.380  13.674  18.167  0.00  0.00    +0.000 C 
ATOM     29  O   UNL     1       3.012  14.663  17.866  0.00  0.00    +0.000 OA
ATOM     30  H   UNL     1       3.381  12.396  16.885  0.00  0.00    +0.000 HD
ATOM     31  H   UNL     1       2.083  11.632  17.740  0.00  0.00    +0.000 HD
ENDBRANCH  26  28
ENDBRANCH  25  26
ENDBRANCH  24  25
ENDBRANCH  23  24
ENDBRANCH  17  23
ENDBRANCH   1  20
TORSDOF 7
ENDMDL
MODEL 8
REMARK VINA RESULT:      -8.8      1.258      3.400
REMARK  Name = 
REMARK  7 active torsions:
REMARK  status: ('A' for Active; 'I' for Inactive)
REMARK    1  A    between atoms: C_2  and  C_4
REMARK    2  A    between atoms: C_4  and  C_5
REMARK    3  A    between atoms: C_5  and  C_6
REMARK    4  A    between atoms: C_6  and  C_7
REMARK    5  A    between atoms: C_7  and  C_8
REMARK    6  A    between atoms: C_11  and  N_12
REMARK    7  A    between atoms: N_12  and  C_13
REMARK                            x       y       z     vdW  Elec       q    Type
REMARK                         _______ _______ _______ _____ _____    ______ ____
ROOT
ATOM      1  N   UNL     1       3.246   7.381  18.342  0.00  0.00    +0.000 N 
ATOM      2  H   UNL     1       4.075   7.653  18.866  0.00  0.00    +0.000 HD
ENDROOT
BRANCH   1   3
ATOM      3  C   UNL     1       3.358   6.011  17.930  0.00  0.00    +0.000 A 
ATOM      4  C   UNL     1       2.608   4.901  18.483  0.00  0.00    +0.000 A 
ATOM      5  C   UNL     1       1.860   4.824  19.687  0.00  0.00    +0.000 A 
ATOM      6  C   UNL     1       1.058   3.726  20.005  0.00  0.00    +0.000 A 
ATOM      7  C   UNL     1       1.011   2.650  19.139  0.00  0.00    +0.000 A 
ATOM      8  C   UNL     1       1.894   2.619  18.067  0.00  0.00    +0.000 A 
ATOM      9  C   UNL     1       2.764   3.673  17.831  0.00  0.00    +0.000 A 
ATOM     10  N   UNL     1       3.861   3.429  17.126  0.00  0.00    +0.000 NA
ATOM     11  C   UNL     1       4.773   4.401  17.137  0.00  0.00    +0.000 A 
ATOM     12  C   UNL     1       5.969   4.254  17.824  0.00  0.00    +0.000 A 
ATOM     13  C   UNL     1       6.863   5.322  17.943  0.00  0.00    +0.000 A 
ATOM     14  C   UNL     1       6.639   6.457  17.172  0.00  0.00    +0.000 A 
ATOM     15  C   UNL     1       5.387   6.614  16.598  0.00  0.00    +0.000 A 
ATOM     16  C   UNL     1       4.401   5.706  17.011  0.00  0.00    +0.000 A 
ENDBRANCH   1   3
BRANCH   1  20
ATOM     17  C   UNL     1       0.169  10.035  19.475  0.00  0.00    +0.000 A 
ATOM     18  C   UNL     1       0.527   9.897  18.129  0.00  0.00    +0.000 A 
ATOM     19  C   UNL     1       1.504   8.970  17.748  0.00  0.00    +0.000 A 
ATOM     20  C   UNL     1       2.134   8.162  18.704  0.00  0.00    +0.000 A 
ATOM     21  C   UNL     1       1.674   8.217  20.016  0.00  0.00    +0.000 A 
ATOM     22  C   UNL     1       0.773   9.199  20.416  0.00  0.00    +0.000 A 
BRANCH  17  23
ATOM     23  C   UNL     1      -0.851  11.039  19.952  0.00  0.00    +0.000 C 
BRANCH  23  24
ATOM     24  C   UNL     1      -1.522  11.844  18.837  0.00  0.00    +0.000 C 
BRANCH  24  25
ATOM     25  C   UNL     1      -3.043  11.727  18.758  0.00  0.00    +0.000 C 
BRANCH  25  26
ATOM     26  C   UNL     1      -3.638  10.639  17.853  0.00  0.00    +0.000 C 
BRANCH  26  28
ATOM     27  N   UNL     1      -3.302  11.548  15.638  0.00  0.00    +0.000 N 
ATOM     28  C   UNL     1      -3.019  10.493  16.471  0.00  0.00    +0.000 C 
ATOM     29  O   UNL     1      -2.255   9.618  16.125  0.00  0.00    +0.000 OA
ATOM     30  H   UNL     1      -2.959  11.535  14.686  0.00  0.00    +0.000 HD
ATOM     31  H   UNL     1      -3.921  12.309  15.899  0.00  0.00    +0.000 HD
ENDBRANCH  26  28
ENDBRANCH  25  26
ENDBRANCH  24  25
ENDBRANCH  23  24
ENDBRANCH  17  23
ENDBRANCH   1  20
TORSDOF 7
ENDMDL
MODEL 9
REMARK VINA RESULT:      -8.8      1.089      3.501
REMARK  Name = 
REMARK  7 active torsions:
REMARK  status: ('A' for Active; 'I' for Inactive)
REMARK    1  A    between atoms: C_2  and  C_4
REMARK    2  A    between atoms: C_4  and  C_5
REMARK    3  A    between atoms: C_5  and  C_6
REMARK    4  A    between atoms: C_6  and  C_7
REMARK    5  A    between atoms: C_7  and  C_8
REMARK    6  A    between atoms: C_11  and  N_12
REMARK    7  A    between atoms: N_12  and  C_13
REMARK                            x       y       z     vdW  Elec       q    Type
REMARK                         _______ _______ _______ _____ _____    ______ ____
ROOT
ATOM      1  N   UNL     1       2.940   7.143  19.304  0.00  0.00    +0.000 N 
ATOM      2  H   UNL     1       3.304   6.995  20.243  0.00  0.00    +0.000 HD
ENDROOT
BRANCH   1   3
ATOM      3  C   UNL     1       2.904   5.896  18.594  0.00  0.00    +0.000 A 
ATOM      4  C   UNL     1       2.242   4.689  19.046  0.00  0.00    +0.000 A 
ATOM      5  C   UNL     1       1.764   4.348  20.338  0.00  0.00    +0.000 A 
ATOM      6  C   UNL     1       1.002   3.203  20.580  0.00  0.00    +0.000 A 
ATOM      7  C   UNL     1       0.726   2.341  19.534  0.00  0.00    +0.000 A 
ATOM      8  C   UNL     1       1.359   2.549  18.316  0.00  0.00    +0.000 A 
ATOM      9  C   UNL     1       2.204   3.634  18.128  0.00  0.00    +0.000 A 
ATOM     10  N   UNL     1       3.115   3.554  17.167  0.00  0.00    +0.000 NA
ATOM     11  C   UNL     1       4.049   4.505  17.189  0.00  0.00    +0.000 A 
ATOM     12  C   UNL     1       5.356   4.217  17.552  0.00  0.00    +0.000 A 
ATOM     13  C   UNL     1       6.300   5.239  17.701  0.00  0.00    +0.000 A 
ATOM     14  C   UNL     1       5.966   6.513  17.258  0.00  0.00    +0.000 A 
ATOM     15  C   UNL     1       4.628   6.785  17.015  0.00  0.00    +0.000 A 
ATOM     16  C   UNL     1       3.714   5.805  17.428  0.00  0.00    +0.000 A 
ENDBRANCH   1   3
BRANCH   1  20
ATOM     17  C   UNL     1       0.138  10.286  19.049  0.00  0.00    +0.000 A 
ATOM     18  C   UNL     1       0.338   9.609  20.258  0.00  0.00    +0.000 A 
ATOM     19  C   UNL     1       1.312   8.609  20.358  0.00  0.00    +0.000 A 
ATOM     20  C   UNL     1       2.108   8.275  19.252  0.00  0.00    +0.000 A 
ATOM     21  C   UNL     1       1.988   9.045  18.101  0.00  0.00    +0.000 A 
ATOM     22  C   UNL     1       0.961   9.974  17.965  0.00  0.00    +0.000 A 
BRANCH  17  23
ATOM     23  C   UNL     1      -0.919  11.348  18.870  0.00  0.00    +0.000 C 
BRANCH  23  24
ATOM     24  C   UNL     1      -2.330  10.809  18.633  0.00  0.00    +0.000 C 
BRANCH  24  25
ATOM     25  C   UNL     1      -2.479   9.823  17.476  0.00  0.00    +0.000 C 
BRANCH  25  26
ATOM     26  C   UNL     1      -2.449  10.378  16.045  0.00  0.00    +0.000 C 
BRANCH  26  28
ATOM     27  N   UNL     1      -4.729  11.182  15.976  0.00  0.00    +0.000 N 
ATOM     28  C   UNL     1      -3.782  10.438  15.314  0.00  0.00    +0.000 C 
ATOM     29  O   UNL     1      -4.006   9.992  14.210  0.00  0.00    +0.000 OA
ATOM     30  H   UNL     1      -5.660  11.261  15.586  0.00  0.00    +0.000 HD
ATOM     31  H   UNL     1      -4.572  11.587  16.893  0.00  0.00    +0.000 HD
ENDBRANCH  26  28
ENDBRANCH  25  26
ENDBRANCH  24  25
ENDBRANCH  23  24
ENDBRANCH  17  23
ENDBRANCH   1  20
TORSDOF 7
ENDMDL
