MODEL 1
REMARK VINA RESULT:      -9.1      0.000      0.000
REMARK  Name = 
REMARK  6 active torsions:
REMARK  status: ('A' for Active; 'I' for Inactive)
REMARK    1  A    between atoms: C_1  and  N_2
REMARK    2  A    between atoms: N_2  and  C_3
REMARK    3  A    between atoms: C_4  and  C_6
REMARK    4  A    between atoms: C_10  and  N_11
REMARK    5  A    between atoms: C_16  and  C_17
REMARK    6  A    between atoms: N_19  and  C_20
REMARK                            x       y       z     vdW  Elec       q    Type
REMARK                         _______ _______ _______ _____ _____    ______ ____
ROOT
ATOM      1  C   UNL     1       0.591  11.653  19.054  0.00  0.00    +0.000 A 
ATOM      2  C   UNL     1       0.606  10.883  20.209  0.00  0.00    +0.000 A 
ATOM      3  C   UNL     1       1.168   9.614  19.899  0.00  0.00    +0.000 A 
ATOM      4  C   UNL     1       1.394   8.427  20.631  0.00  0.00    +0.000 A 
ATOM      5  C   UNL     1       1.931   7.295  19.992  0.00  0.00    +0.000 A 
ATOM      6  C   UNL     1       2.316   7.423  18.649  0.00  0.00    +0.000 A 
ATOM      7  C   UNL     1       2.114   8.585  17.902  0.00  0.00    +0.000 A 
ATOM      8  C   UNL     1       1.533   9.659  18.562  0.00  0.00    +0.000 A 
ATOM      9  N   UNL     1       1.241  10.916  18.099  0.00  0.00    +0.000 N 
ATOM     10  H   UNL     1       1.488  11.248  17.178  0.00  0.00    +0.000 HD
ENDROOT
BRANCH   5  11
ATOM     11  N   UNL     1       2.085   6.096  20.718  0.00  0.00    +0.000 N 
ATOM     12  C   UNL     1       2.860   4.979  20.382  0.00  0.00    +0.000 A 
ATOM     13  N   UNL     1       2.458   3.794  20.862  0.00  0.00    +0.000 NA
ATOM     14  C   UNL     1       3.115   2.702  20.414  0.00  0.00    +0.000 A 
ATOM     15  C   UNL     1       4.150   2.743  19.512  0.00  0.00    +0.000 A 
ATOM     16  C   UNL     1       4.521   4.001  19.113  0.00  0.00    +0.000 A 
ATOM     17  N   UNL     1       3.896   5.108  19.552  0.00  0.00    +0.000 NA
ATOM     18  H   UNL     1       1.263   5.768  21.204  0.00  0.00    +0.000 HD
BRANCH  16  19
ATOM     19  C   UNL     1       5.604   4.227  18.167  0.00  0.00    +0.000 A 
ATOM     20  C   UNL     1       5.461   4.236  16.792  0.00  0.00    +0.000 A 
ATOM     21  N   UNL     1       6.703   4.502  16.301  0.00  0.00    +0.000 N 
ATOM     22  C   UNL     1       7.055   4.646  14.913  0.00  0.00    +0.000 C 
ATOM     23  C   UNL     1       7.550   4.622  17.364  0.00  0.00    +0.000 A 
ATOM     24  N   UNL     1       6.919   4.464  18.509  0.00  0.00    +0.000 NA
ENDBRANCH  16  19
ENDBRANCH   5  11
BRANCH   1  28
ATOM     25  C   UNL     1       0.390  15.405  19.005  0.00  0.00    +0.000 C 
ATOM     26  N   UNL     1       0.938  14.077  19.237  0.00  0.00    +0.000 N 
ATOM     27  C   UNL     1       2.385  13.970  19.357  0.00  0.00    +0.000 C 
ATOM     28  C   UNL     1       0.097  13.006  18.895  0.00  0.00    +0.000 C 
ATOM     29  O   UNL     1      -1.036  13.213  18.456  0.00  0.00    +0.000 OA
ENDBRANCH   1  28
TORSDOF 3
ENDMDL
MODEL 2
REMARK VINA RESULT:      -8.7      3.559      9.203
REMARK  Name = 
REMARK  6 active torsions:
REMARK  status: ('A' for Active; 'I' for Inactive)
REMARK    1  A    between atoms: C_1  and  N_2
REMARK    2  A    between atoms: N_2  and  C_3
REMARK    3  A    between atoms: C_4  and  C_6
REMARK    4  A    between atoms: C_10  and  N_11
REMARK    5  A    between atoms: C_16  and  C_17
REMARK    6  A    between atoms: N_19  and  C_20
REMARK                            x       y       z     vdW  Elec       q    Type
REMARK                         _______ _______ _______ _____ _____    ______ ____
ROOT
ATOM      1  C   UNL     1       3.192   5.057  19.054  0.00  0.00    +0.000 A 
ATOM      2  C   UNL     1       2.579   5.538  20.203  0.00  0.00    +0.000 A 
ATOM      3  C   UNL     1       2.121   6.861  19.950  0.00  0.00    +0.000 A 
ATOM      4  C   UNL     1       1.484   7.851  20.730  0.00  0.00    +0.000 A 
ATOM      5  C   UNL     1       1.211   9.116  20.177  0.00  0.00    +0.000 A 
ATOM      6  C   UNL     1       1.504   9.314  18.820  0.00  0.00    +0.000 A 
ATOM      7  C   UNL     1       2.125   8.352  18.023  0.00  0.00    +0.000 A 
ATOM      8  C   UNL     1       2.422   7.137  18.625  0.00  0.00    +0.000 A 
ATOM      9  N   UNL     1       3.000   6.013  18.093  0.00  0.00    +0.000 N 
ATOM     10  H   UNL     1       3.236   5.911  17.116  0.00  0.00    +0.000 HD
ENDROOT
BRANCH   5  11
ATOM     11  N   UNL     1       0.638  10.118  20.989  0.00  0.00    +0.000 N 
ATOM     12  C   UNL     1      -0.331  11.064  20.632  0.00  0.00    +0.000 A 
ATOM     13  N   UNL     1      -0.330  12.220  21.311  0.00  0.00    +0.000 NA
ATOM     14  C   UNL     1      -1.162  13.187  20.867  0.00  0.00    +0.000 A 
ATOM     15  C   UNL     1      -1.990  13.049  19.779  0.00  0.00    +0.000 A 
ATOM     16  C   UNL     1      -1.955  11.819  19.177  0.00  0.00    +0.000 A 
ATOM     17  N   UNL     1      -1.148  10.832  19.604  0.00  0.00    +0.000 NA
ATOM     18  H   UNL     1       1.258  10.547  21.661  0.00  0.00    +0.000 HD
BRANCH  16  19
ATOM     19  C   UNL     1      -2.774  11.500  18.017  0.00  0.00    +0.000 A 
ATOM     20  C   UNL     1      -2.292  10.980  16.831  0.00  0.00    +0.000 A 
ATOM     21  N   UNL     1      -3.386  10.817  16.036  0.00  0.00    +0.000 N 
ATOM     22  C   UNL     1      -3.395  10.269  14.705  0.00  0.00    +0.000 C 
ATOM     23  C   UNL     1      -4.473  11.252  16.737  0.00  0.00    +0.000 A 
ATOM     24  N   UNL     1      -4.141  11.671  17.940  0.00  0.00    +0.000 NA
ENDBRANCH  16  19
ENDBRANCH   5  11
BRANCH   1  28
ATOM     25  C   UNL     1       3.690   1.380  18.460  0.00  0.00    +0.000 C 
ATOM     26  N   UNL     1       2.995   2.634  18.704  0.00  0.00    +0.000 N 
ATOM     27  C   UNL     1       1.587   2.693  18.334  0.00  0.00    +0.000 C 
ATOM     28  C   UNL     1       3.815   3.763  18.855  0.00  0.00    +0.000 C 
ATOM     29  O   UNL     1       5.042   3.659  18.806  0.00  0.00    +0.000 OA
ENDBRANCH   1  28
TORSDOF 3
ENDMDL
MODEL 3
REMARK VINA RESULT:      -8.4      2.965      9.035
REMARK  Name = 
REMARK  6 active torsions:
REMARK  status: ('A' for Active; 'I' for Inactive)
REMARK    1  A    between atoms: C_1  and  N_2
REMARK    2  A    between atoms: N_2  and  C_3
REMARK    3  A    between atoms: C_4  and  C_6
REMARK    4  A    between atoms: C_10  and  N_11
REMARK    5  A    between atoms: C_16  and  C_17
REMARK    6  A    between atoms: N_19  and  C_20
REMARK                            x       y       z     vdW  Elec       q    Type
REMARK                         _______ _______ _______ _____ _____    ______ ____
ROOT
ATOM      1  C   UNL     1       3.080   5.837  19.238  0.00  0.00    +0.000 A 
ATOM      2  C   UNL     1       2.993   6.789  18.232  0.00  0.00    +0.000 A 
ATOM      3  C   UNL     1       2.238   7.892  18.718  0.00  0.00    +0.000 A 
ATOM      4  C   UNL     1       1.785   9.106  18.152  0.00  0.00    +0.000 A 
ATOM      5  C   UNL     1       0.984   9.980  18.909  0.00  0.00    +0.000 A 
ATOM      6  C   UNL     1       0.740   9.649  20.250  0.00  0.00    +0.000 A 
ATOM      7  C   UNL     1       1.181   8.463  20.838  0.00  0.00    +0.000 A 
ATOM      8  C   UNL     1       1.925   7.606  20.038  0.00  0.00    +0.000 A 
ATOM      9  N   UNL     1       2.502   6.402  20.345  0.00  0.00    +0.000 N 
ATOM     10  H   UNL     1       2.505   5.999  21.272  0.00  0.00    +0.000 HD
ENDROOT
BRANCH   5  11
ATOM     11  N   UNL     1       0.481  11.153  18.309  0.00  0.00    +0.000 N 
ATOM     12  C   UNL     1       0.767  12.483  18.645  0.00  0.00    +0.000 A 
ATOM     13  N   UNL     1      -0.176  13.395  18.373  0.00  0.00    +0.000 NA
ATOM     14  C   UNL     1       0.037  14.646  18.834  0.00  0.00    +0.000 A 
ATOM     15  C   UNL     1       1.145  15.023  19.552  0.00  0.00    +0.000 A 
ATOM     16  C   UNL     1       2.076  14.035  19.742  0.00  0.00    +0.000 A 
ATOM     17  N   UNL     1       1.899  12.783  19.283  0.00  0.00    +0.000 NA
ATOM     18  H   UNL     1      -0.479  11.112  17.999  0.00  0.00    +0.000 HD
BRANCH  16  19
ATOM     19  C   UNL     1       3.312  14.265  20.474  0.00  0.00    +0.000 A 
ATOM     20  C   UNL     1       4.398  14.969  19.988  0.00  0.00    +0.000 A 
ATOM     21  N   UNL     1       5.316  14.960  20.994  0.00  0.00    +0.000 N 
ATOM     22  C   UNL     1       6.605  15.599  20.973  0.00  0.00    +0.000 C 
ATOM     23  C   UNL     1       4.784  14.250  22.031  0.00  0.00    +0.000 A 
ATOM     24  N   UNL     1       3.572  13.816  21.753  0.00  0.00    +0.000 NA
ENDBRANCH  16  19
ENDBRANCH   5  11
BRANCH   1  28
ATOM     25  C   UNL     1       3.702   2.144  18.937  0.00  0.00    +0.000 C 
ATOM     26  N   UNL     1       2.963   3.394  19.026  0.00  0.00    +0.000 N 
ATOM     27  C   UNL     1       1.602   3.395  18.508  0.00  0.00    +0.000 C 
ATOM     28  C   UNL     1       3.743   4.549  19.188  0.00  0.00    +0.000 C 
ATOM     29  O   UNL     1       4.970   4.471  19.274  0.00  0.00    +0.000 OA
ENDBRANCH   1  28
TORSDOF 3
ENDMDL
MODEL 4
REMARK VINA RESULT:      -8.2      0.950      1.221
REMARK  Name = 
REMARK  6 active torsions:
REMARK  status: ('A' for Active; 'I' for Inactive)
REMARK    1  A    between atoms: C_1  and  N_2
REMARK    2  A    between atoms: N_2  and  C_3
REMARK    3  A    between atoms: C_4  and  C_6
REMARK    4  A    between atoms: C_10  and  N_11
REMARK    5  A    between atoms: C_16  and  C_17
REMARK    6  A    between atoms: N_19  and  C_20
REMARK                            x       y       z     vdW  Elec       q    Type
REMARK                         _______ _______ _______ _____ _____    ______ ____
ROOT
ATOM      1  C   UNL     1       0.761  11.701  19.663  0.00  0.00    +0.000 A 
ATOM      2  C   UNL     1       0.822  10.848  20.757  0.00  0.00    +0.000 A 
ATOM      3  C   UNL     1       1.252   9.568  20.307  0.00  0.00    +0.000 A 
ATOM      4  C   UNL     1       1.450   8.317  20.933  0.00  0.00    +0.000 A 
ATOM      5  C   UNL     1       1.837   7.201  20.168  0.00  0.00    +0.000 A 
ATOM      6  C   UNL     1       2.105   7.401  18.806  0.00  0.00    +0.000 A 
ATOM      7  C   UNL     1       1.926   8.627  18.163  0.00  0.00    +0.000 A 
ATOM      8  C   UNL     1       1.495   9.687  18.947  0.00  0.00    +0.000 A 
ATOM      9  N   UNL     1       1.260  10.993  18.602  0.00  0.00    +0.000 N 
ATOM     10  H   UNL     1       1.446  11.375  17.685  0.00  0.00    +0.000 HD
ENDROOT
BRANCH   5  11
ATOM     11  N   UNL     1       1.962   5.942  20.794  0.00  0.00    +0.000 N 
ATOM     12  C   UNL     1       2.736   4.850  20.382  0.00  0.00    +0.000 A 
ATOM     13  N   UNL     1       2.312   3.633  20.750  0.00  0.00    +0.000 NA
ATOM     14  C   UNL     1       2.971   2.576  20.226  0.00  0.00    +0.000 A 
ATOM     15  C   UNL     1       4.028   2.683  19.356  0.00  0.00    +0.000 A 
ATOM     16  C   UNL     1       4.419   3.966  19.074  0.00  0.00    +0.000 A 
ATOM     17  N   UNL     1       3.793   5.038  19.590  0.00  0.00    +0.000 NA
ATOM     18  H   UNL     1       1.125   5.583  21.230  0.00  0.00    +0.000 HD
BRANCH  16  19
ATOM     19  C   UNL     1       5.527   4.260  18.177  0.00  0.00    +0.000 A 
ATOM     20  C   UNL     1       5.442   4.275  16.798  0.00  0.00    +0.000 A 
ATOM     21  N   UNL     1       6.687   4.613  16.361  0.00  0.00    +0.000 N 
ATOM     22  C   UNL     1       7.088   4.790  14.990  0.00  0.00    +0.000 C 
ATOM     23  C   UNL     1       7.480   4.768  17.461  0.00  0.00    +0.000 A 
ATOM     24  N   UNL     1       6.811   4.565  18.576  0.00  0.00    +0.000 NA
ENDBRANCH  16  19
ENDBRANCH   5  11
BRANCH   1  28
ATOM     25  C   UNL     1      -1.324  14.826  19.747  0.00  0.00    +0.000 C 
ATOM     26  N   UNL     1      -1.005  13.407  19.724  0.00  0.00    +0.000 N 
ATOM     27  C   UNL     1      -2.023  12.491  20.218  0.00  0.00    +0.000 C 
ATOM     28  C   UNL     1       0.362  13.094  19.645  0.00  0.00    +0.000 C 
ATOM     29  O   UNL     1       1.207  13.988  19.575  0.00  0.00    +0.000 OA
ENDBRANCH   1  28
TORSDOF 3
ENDMDL
MODEL 5
REMARK VINA RESULT:      -8.2      2.826      8.862
REMARK  Name = 
REMARK  6 active torsions:
REMARK  status: ('A' for Active; 'I' for Inactive)
REMARK    1  A    between atoms: C_1  and  N_2
REMARK    2  A    between atoms: N_2  and  C_3
REMARK    3  A    between atoms: C_4  and  C_6
REMARK    4  A    between atoms: C_10  and  N_11
REMARK    5  A    between atoms: C_16  and  C_17
REMARK    6  A    between atoms: N_19  and  C_20
REMARK                            x       y       z     vdW  Elec       q    Type
REMARK                         _______ _______ _______ _____ _____    ______ ____
ROOT
ATOM      1  C   UNL     1       3.067   6.565  18.722  0.00  0.00    +0.000 A 
ATOM      2  C   UNL     1       2.844   7.595  17.819  0.00  0.00    +0.000 A 
ATOM      3  C   UNL     1       2.034   8.581  18.449  0.00  0.00    +0.000 A 
ATOM      4  C   UNL     1       1.453   9.799  18.029  0.00  0.00    +0.000 A 
ATOM      5  C   UNL     1       0.632  10.528  18.908  0.00  0.00    +0.000 A 
ATOM      6  C   UNL     1       0.496  10.054  20.221  0.00  0.00    +0.000 A 
ATOM      7  C   UNL     1       1.064   8.860  20.667  0.00  0.00    +0.000 A 
ATOM      8  C   UNL     1       1.824   8.148  19.749  0.00  0.00    +0.000 A 
ATOM      9  N   UNL     1       2.512   6.973  19.907  0.00  0.00    +0.000 N 
ATOM     10  H   UNL     1       2.603   6.487  20.788  0.00  0.00    +0.000 HD
ENDROOT
BRANCH   5  11
ATOM     11  N   UNL     1       0.003  11.705  18.452  0.00  0.00    +0.000 N 
ATOM     12  C   UNL     1       0.477  13.021  18.532  0.00  0.00    +0.000 A 
ATOM     13  N   UNL     1      -0.441  13.996  18.572  0.00  0.00    +0.000 NA
ATOM     14  C   UNL     1       0.011  15.248  18.801  0.00  0.00    +0.000 A 
ATOM     15  C   UNL     1       1.334  15.565  18.992  0.00  0.00    +0.000 A 
ATOM     16  C   UNL     1       2.203  14.510  18.888  0.00  0.00    +0.000 A 
ATOM     17  N   UNL     1       1.785  13.255  18.646  0.00  0.00    +0.000 NA
ATOM     18  H   UNL     1      -1.002  11.732  18.548  0.00  0.00    +0.000 HD
BRANCH  16  19
ATOM     19  C   UNL     1       3.640  14.671  19.055  0.00  0.00    +0.000 A 
ATOM     20  C   UNL     1       4.563  14.623  18.027  0.00  0.00    +0.000 A 
ATOM     21  N   UNL     1       5.772  14.840  18.616  0.00  0.00    +0.000 N 
ATOM     22  C   UNL     1       7.043  14.915  17.944  0.00  0.00    +0.000 C 
ATOM     23  C   UNL     1       5.557  14.988  19.955  0.00  0.00    +0.000 A 
ATOM     24  N   UNL     1       4.279  14.894  20.256  0.00  0.00    +0.000 NA
ENDBRANCH  16  19
ENDBRANCH   5  11
BRANCH   1  28
ATOM     25  C   UNL     1       3.959   2.979  18.040  0.00  0.00    +0.000 C 
ATOM     26  N   UNL     1       3.130   4.148  18.290  0.00  0.00    +0.000 N 
ATOM     27  C   UNL     1       1.741   4.079  17.859  0.00  0.00    +0.000 C 
ATOM     28  C   UNL     1       3.825   5.348  18.512  0.00  0.00    +0.000 C 
ATOM     29  O   UNL     1       5.058   5.369  18.514  0.00  0.00    +0.000 OA
ENDBRANCH   1  28
TORSDOF 3
ENDMDL
MODEL 6
REMARK VINA RESULT:      -8.1      1.372      1.423
REMARK  Name = 
REMARK  6 active torsions:
REMARK  status: ('A' for Active; 'I' for Inactive)
REMARK    1  A    between atoms: C_1  and  N_2
REMARK    2  A    between atoms: N_2  and  C_3
REMARK    3  A    between atoms: C_4  and  C_6
REMARK    4  A    between atoms: C_10  and  N_11
REMARK    5  A    between atoms: C_16  and  C_17
REMARK    6  A    between atoms: N_19  and  C_20
REMARK                            x       y       z     vdW  Elec       q    Type
REMARK                         _______ _______ _______ _____ _____    ______ ____
ROOT
ATOM      1  C   UNL     1      -0.284  11.571  19.874  0.00  0.00    +0.000 A 
ATOM      2  C   UNL     1      -0.047  10.666  20.900  0.00  0.00    +0.000 A 
ATOM      3  C   UNL     1       0.734   9.594  20.385  0.00  0.00    +0.000 A 
ATOM      4  C   UNL     1       1.232   8.387  20.924  0.00  0.00    +0.000 A 
ATOM      5  C   UNL     1       1.941   7.489  20.105  0.00  0.00    +0.000 A 
ATOM      6  C   UNL     1       2.210   7.880  18.785  0.00  0.00    +0.000 A 
ATOM      7  C   UNL     1       1.738   9.069  18.228  0.00  0.00    +0.000 A 
ATOM      8  C   UNL     1       1.000   9.900  19.058  0.00  0.00    +0.000 A 
ATOM      9  N   UNL     1       0.438  11.123  18.799  0.00  0.00    +0.000 N 
ATOM     10  H   UNL     1       0.558  11.624  17.930  0.00  0.00    +0.000 HD
ENDROOT
BRANCH   5  11
ATOM     11  N   UNL     1       2.372   6.256  20.639  0.00  0.00    +0.000 N 
ATOM     12  C   UNL     1       2.989   5.195  19.965  0.00  0.00    +0.000 A 
ATOM     13  N   UNL     1       2.812   3.968  20.473  0.00  0.00    +0.000 NA
ATOM     14  C   UNL     1       3.278   2.933  19.740  0.00  0.00    +0.000 A 
ATOM     15  C   UNL     1       3.910   3.072  18.528  0.00  0.00    +0.000 A 
ATOM     16  C   UNL     1       4.086   4.366  18.112  0.00  0.00    +0.000 A 
ATOM     17  N   UNL     1       3.646   5.417  18.825  0.00  0.00    +0.000 NA
ATOM     18  H   UNL     1       1.790   5.865  21.366  0.00  0.00    +0.000 HD
BRANCH  16  19
ATOM     19  C   UNL     1       4.743   4.693  16.855  0.00  0.00    +0.000 A 
ATOM     20  C   UNL     1       5.281   3.766  15.982  0.00  0.00    +0.000 A 
ATOM     21  N   UNL     1       5.769   4.492  14.938  0.00  0.00    +0.000 N 
ATOM     22  C   UNL     1       6.398   3.964  13.757  0.00  0.00    +0.000 C 
ATOM     23  C   UNL     1       5.538   5.810  15.209  0.00  0.00    +0.000 A 
ATOM     24  N   UNL     1       4.917   5.968  16.359  0.00  0.00    +0.000 NA
ENDBRANCH  16  19
ENDBRANCH   5  11
BRANCH   1  28
ATOM     25  C   UNL     1      -1.201  15.188  20.316  0.00  0.00    +0.000 C 
ATOM     26  N   UNL     1      -0.386  13.983  20.324  0.00  0.00    +0.000 N 
ATOM     27  C   UNL     1       1.059  14.161  20.287  0.00  0.00    +0.000 C 
ATOM     28  C   UNL     1      -1.042  12.804  19.935  0.00  0.00    +0.000 C 
ATOM     29  O   UNL     1      -2.239  12.820  19.638  0.00  0.00    +0.000 OA
ENDBRANCH   1  28
TORSDOF 3
ENDMDL
MODEL 7
REMARK VINA RESULT:      -7.9      3.451      9.229
REMARK  Name = 
REMARK  6 active torsions:
REMARK  status: ('A' for Active; 'I' for Inactive)
REMARK    1  A    between atoms: C_1  and  N_2
REMARK    2  A    between atoms: N_2  and  C_3
REMARK    3  A    between atoms: C_4  and  C_6
REMARK    4  A    between atoms: C_10  and  N_11
REMARK    5  A    between atoms: C_16  and  C_17
REMARK    6  A    between atoms: N_19  and  C_20
REMARK                            x       y       z     vdW  Elec       q    Type
REMARK                         _______ _______ _______ _____ _____    ______ ____
ROOT
ATOM      1  C   UNL     1       2.168   4.424  19.144  0.00  0.00    +0.000 A 
ATOM      2  C   UNL     1       1.619   4.994  20.284  0.00  0.00    +0.000 A 
ATOM      3  C   UNL     1       1.590   6.407  20.114  0.00  0.00    +0.000 A 
ATOM      4  C   UNL     1       1.200   7.493  20.929  0.00  0.00    +0.000 A 
ATOM      5  C   UNL     1       1.359   8.812  20.468  0.00  0.00    +0.000 A 
ATOM      6  C   UNL     1       1.820   8.997  19.157  0.00  0.00    +0.000 A 
ATOM      7  C   UNL     1       2.205   7.944  18.326  0.00  0.00    +0.000 A 
ATOM      8  C   UNL     1       2.079   6.661  18.841  0.00  0.00    +0.000 A 
ATOM      9  N   UNL     1       2.351   5.452  18.257  0.00  0.00    +0.000 N 
ATOM     10  H   UNL     1       2.636   5.344  17.293  0.00  0.00    +0.000 HD
ENDROOT
BRANCH   5  11
ATOM     11  N   UNL     1       1.031   9.888  21.320  0.00  0.00    +0.000 N 
ATOM     12  C   UNL     1       0.167  10.959  21.060  0.00  0.00    +0.000 A 
ATOM     13  N   UNL     1       0.408  12.106  21.711  0.00  0.00    +0.000 NA
ATOM     14  C   UNL     1      -0.328  13.178  21.347  0.00  0.00    +0.000 A 
ATOM     15  C   UNL     1      -1.289  13.154  20.366  0.00  0.00    +0.000 A 
ATOM     16  C   UNL     1      -1.497  11.929  19.788  0.00  0.00    +0.000 A 
ATOM     17  N   UNL     1      -0.790  10.840  20.139  0.00  0.00    +0.000 NA
ATOM     18  H   UNL     1       1.779  10.228  21.907  0.00  0.00    +0.000 HD
BRANCH  16  19
ATOM     19  C   UNL     1      -2.483  11.724  18.738  0.00  0.00    +0.000 A 
ATOM     20  C   UNL     1      -2.190  11.322  17.448  0.00  0.00    +0.000 A 
ATOM     21  N   UNL     1      -3.391  11.236  16.813  0.00  0.00    +0.000 N 
ATOM     22  C   UNL     1      -3.605  10.820  15.452  0.00  0.00    +0.000 C 
ATOM     23  C   UNL     1      -4.356  11.600  17.707  0.00  0.00    +0.000 A 
ATOM     24  N   UNL     1      -3.844  11.900  18.882  0.00  0.00    +0.000 NA
ENDBRANCH  16  19
ENDBRANCH   5  11
BRANCH   1  28
ATOM     25  C   UNL     1       3.883   1.130  18.575  0.00  0.00    +0.000 C 
ATOM     26  N   UNL     1       3.727   2.559  18.796  0.00  0.00    +0.000 N 
ATOM     27  C   UNL     1       4.874   3.273  19.341  0.00  0.00    +0.000 C 
ATOM     28  C   UNL     1       2.403   3.019  18.879  0.00  0.00    +0.000 C 
ATOM     29  O   UNL     1       1.458   2.240  18.742  0.00  0.00    +0.000 OA
ENDBRANCH   1  28
TORSDOF 3
ENDMDL
MODEL 8
REMARK VINA RESULT:      -7.8      3.629      9.484
REMARK  Name = 
REMARK  6 active torsions:
REMARK  status: ('A' for Active; 'I' for Inactive)
REMARK    1  A    between atoms: C_1  and  N_2
REMARK    2  A    between atoms: N_2  and  C_3
REMARK    3  A    between atoms: C_4  and  C_6
REMARK    4  A    between atoms: C_10  and  N_11
REMARK    5  A    between atoms: C_16  and  C_17
REMARK    6  A    between atoms: N_19  and  C_20
REMARK                            x       y       z     vdW  Elec       q    Type
REMARK                         _______ _______ _______ _____ _____    ______ ____
ROOT
ATOM      1  C   UNL     1       2.968   5.416  18.862  0.00  0.00    +0.000 A 
ATOM      2  C   UNL     1       2.517   5.835  20.106  0.00  0.00    +0.000 A 
ATOM      3  C   UNL     1       2.054   7.175  19.992  0.00  0.00    +0.000 A 
ATOM      4  C   UNL     1       1.540   8.124  20.903  0.00  0.00    +0.000 A 
ATOM      5  C   UNL     1       1.221   9.422  20.464  0.00  0.00    +0.000 A 
ATOM      6  C   UNL     1       1.339   9.697  19.094  0.00  0.00    +0.000 A 
ATOM      7  C   UNL     1       1.835   8.777  18.169  0.00  0.00    +0.000 A 
ATOM      8  C   UNL     1       2.186   7.526  18.657  0.00  0.00    +0.000 A 
ATOM      9  N   UNL     1       2.670   6.430  17.990  0.00  0.00    +0.000 N 
ATOM     10  H   UNL     1       2.776   6.383  16.986  0.00  0.00    +0.000 HD
ENDROOT
BRANCH   5  11
ATOM     11  N   UNL     1       0.776  10.380  21.399  0.00  0.00    +0.000 N 
ATOM     12  C   UNL     1      -0.222  11.348  21.230  0.00  0.00    +0.000 A 
ATOM     13  N   UNL     1      -0.115  12.465  21.964  0.00  0.00    +0.000 NA
ATOM     14  C   UNL     1      -0.988  13.458  21.691  0.00  0.00    +0.000 A 
ATOM     15  C   UNL     1      -1.958  13.384  20.721  0.00  0.00    +0.000 A 
ATOM     16  C   UNL     1      -2.021  12.188  20.054  0.00  0.00    +0.000 A 
ATOM     17  N   UNL     1      -1.175  11.176  20.313  0.00  0.00    +0.000 NA
ATOM     18  H   UNL     1       1.486  10.768  22.002  0.00  0.00    +0.000 HD
BRANCH  16  19
ATOM     19  C   UNL     1      -2.994  11.938  19.001  0.00  0.00    +0.000 A 
ATOM     20  C   UNL     1      -4.358  12.114  19.130  0.00  0.00    +0.000 A 
ATOM     21  N   UNL     1      -4.882  11.790  17.916  0.00  0.00    +0.000 N 
ATOM     22  C   UNL     1      -6.272  11.850  17.547  0.00  0.00    +0.000 C 
ATOM     23  C   UNL     1      -3.848  11.414  17.108  0.00  0.00    +0.000 A 
ATOM     24  N   UNL     1      -2.691  11.493  17.731  0.00  0.00    +0.000 NA
ENDBRANCH  16  19
ENDBRANCH   5  11
BRANCH   1  28
ATOM     25  C   UNL     1       3.337   1.753  18.110  0.00  0.00    +0.000 C 
ATOM     26  N   UNL     1       2.706   2.998  18.521  0.00  0.00    +0.000 N 
ATOM     27  C   UNL     1       1.252   3.053  18.466  0.00  0.00    +0.000 C 
ATOM     28  C   UNL     1       3.537   4.131  18.509  0.00  0.00    +0.000 C 
ATOM     29  O   UNL     1       4.724   4.035  18.193  0.00  0.00    +0.000 OA
ENDBRANCH   1  28
TORSDOF 3
ENDMDL
MODEL 9
REMARK VINA RESULT:      -7.8      0.871      1.157
REMARK  Name = 
REMARK  6 active torsions:
REMARK  status: ('A' for Active; 'I' for Inactive)
REMARK    1  A    between atoms: C_1  and  N_2
REMARK    2  A    between atoms: N_2  and  C_3
REMARK    3  A    between atoms: C_4  and  C_6
REMARK    4  A    between atoms: C_10  and  N_11
REMARK    5  A    between atoms: C_16  and  C_17
REMARK    6  A    between atoms: N_19  and  C_20
REMARK                            x       y       z     vdW  Elec       q    Type
REMARK                         _______ _______ _______ _____ _____    ______ ____
ROOT
ATOM      1  C   UNL     1       0.689  12.160  19.136  0.00  0.00    +0.000 A 
ATOM      2  C   UNL     1       0.589  11.411  20.300  0.00  0.00    +0.000 A 
ATOM      3  C   UNL     1       1.068  10.098  20.035  0.00  0.00    +0.000 A 
ATOM      4  C   UNL     1       1.167   8.910  20.794  0.00  0.00    +0.000 A 
ATOM      5  C   UNL     1       1.649   7.731  20.197  0.00  0.00    +0.000 A 
ATOM      6  C   UNL     1       2.109   7.807  18.874  0.00  0.00    +0.000 A 
ATOM      7  C   UNL     1       2.032   8.968  18.103  0.00  0.00    +0.000 A 
ATOM      8  C   UNL     1       1.502  10.094  18.718  0.00  0.00    +0.000 A 
ATOM      9  N   UNL     1       1.328  11.361  18.225  0.00  0.00    +0.000 N 
ATOM     10  H   UNL     1       1.645  11.658  17.313  0.00  0.00    +0.000 HD
ENDROOT
BRANCH   5  11
ATOM     11  N   UNL     1       1.676   6.536  20.947  0.00  0.00    +0.000 N 
ATOM     12  C   UNL     1       2.184   5.289  20.561  0.00  0.00    +0.000 A 
ATOM     13  N   UNL     1       1.639   4.207  21.135  0.00  0.00    +0.000 NA
ATOM     14  C   UNL     1       2.022   3.005  20.652  0.00  0.00    +0.000 A 
ATOM     15  C   UNL     1       2.920   2.839  19.626  0.00  0.00    +0.000 A 
ATOM     16  C   UNL     1       3.458   3.999  19.133  0.00  0.00    +0.000 A 
ATOM     17  N   UNL     1       3.108   5.210  19.602  0.00  0.00    +0.000 NA
ATOM     18  H   UNL     1       0.878   6.374  21.545  0.00  0.00    +0.000 HD
BRANCH  16  19
ATOM     19  C   UNL     1       4.431   4.004  18.051  0.00  0.00    +0.000 A 
ATOM     20  C   UNL     1       5.713   4.511  18.145  0.00  0.00    +0.000 A 
ATOM     21  N   UNL     1       6.279   4.295  16.925  0.00  0.00    +0.000 N 
ATOM     22  C   UNL     1       7.627   4.624  16.544  0.00  0.00    +0.000 C 
ATOM     23  C   UNL     1       5.340   3.697  16.136  0.00  0.00    +0.000 A 
ATOM     24  N   UNL     1       4.211   3.503  16.785  0.00  0.00    +0.000 NA
ENDBRANCH  16  19
ENDBRANCH   5  11
BRANCH   1  28
ATOM     25  C   UNL     1       0.744  15.917  19.097  0.00  0.00    +0.000 C 
ATOM     26  N   UNL     1       1.173  14.555  19.377  0.00  0.00    +0.000 N 
ATOM     27  C   UNL     1       2.587  14.352  19.659  0.00  0.00    +0.000 C 
ATOM     28  C   UNL     1       0.307  13.543  18.934  0.00  0.00    +0.000 C 
ATOM     29  O   UNL     1      -0.753  13.826  18.372  0.00  0.00    +0.000 OA
ENDBRANCH   1  28
TORSDOF 3
ENDMDL
