MODEL 1
REMARK VINA RESULT:      -8.2      0.000      0.000
REMARK  Name = 
REMARK  8 active torsions:
REMARK  status: ('A' for Active; 'I' for Inactive)
REMARK    1  A    between atoms: C_1  and  O_2
REMARK    2  A    between atoms: O_2  and  C_3
REMARK    3  A    between atoms: C_6  and  N_7
REMARK    4  A    between atoms: C_11  and  C_12
REMARK    5  A    between atoms: C_14  and  C_15
REMARK    6  A    between atoms: C_18  and  C_19
REMARK    7  A    between atoms: C_26  and  O_27
REMARK    8  A    between atoms: O_27  and  C_28
REMARK                            x       y       z     vdW  Elec       q    Type
REMARK                         _______ _______ _______ _____ _____    ______ ____
ROOT
ATOM      1  N   UNL     1       3.877   4.195  18.038  0.00  0.00    +0.000 N 
ATOM      2  C   UNL     1       3.283   5.235  18.787  0.00  0.00    +0.000 A 
ATOM      3  C   UNL     1       2.684   4.957  20.009  0.00  0.00    +0.000 A 
ATOM      4  C   UNL     1       2.061   5.984  20.720  0.00  0.00    +0.000 A 
ATOM      5  C   UNL     1       2.015   7.254  20.165  0.00  0.00    +0.000 A 
ATOM      6  N   UNL     1       2.586   7.508  18.974  0.00  0.00    +0.000 NA
ATOM      7  N   UNL     1       3.217   6.492  18.289  0.00  0.00    +0.000 NA
ATOM      8  H   UNL     1       4.143   3.412  18.626  0.00  0.00    +0.000 HD
ENDROOT
BRANCH   1  12
ATOM      9  C   UNL     1       6.957   5.021  15.243  0.00  0.00    +0.000 A 
ATOM     10  C   UNL     1       5.630   4.939  14.832  0.00  0.00    +0.000 A 
ATOM     11  C   UNL     1       4.627   4.644  15.747  0.00  0.00    +0.000 A 
ATOM     12  C   UNL     1       4.929   4.408  17.098  0.00  0.00    +0.000 A 
ATOM     13  C   UNL     1       6.268   4.537  17.528  0.00  0.00    +0.000 A 
ATOM     14  C   UNL     1       7.274   4.813  16.588  0.00  0.00    +0.000 A 
BRANCH   9  16
ATOM     15  C   UNL     1       7.508   4.888  12.933  0.00  0.00    +0.000 C 
ATOM     16  O   UNL     1       7.838   5.326  14.243  0.00  0.00    +0.000 OA
ENDBRANCH   9  16
BRANCH  13  17
ATOM     17  O   UNL     1       6.493   4.384  18.877  0.00  0.00    +0.000 OA
ATOM     18  C   UNL     1       7.060   5.490  19.570  0.00  0.00    +0.000 C 
ENDBRANCH  13  17
ENDBRANCH   1  12
BRANCH   5  19
ATOM     19  C   UNL     1       1.329   8.352  20.818  0.00  0.00    +0.000 A 
ATOM     20  N   UNL     1       0.389   9.149  20.358  0.00  0.00    +0.000 NA
ATOM     21  C   UNL     1       0.187  10.017  21.411  0.00  0.00    +0.000 A 
ATOM     22  N   UNL     1       0.962   9.769  22.479  0.00  0.00    +0.000 NA
ATOM     23  O   UNL     1       1.720   8.663  22.088  0.00  0.00    +0.000 OA
BRANCH  21  24
ATOM     24  C   UNL     1      -0.792  11.096  21.340  0.00  0.00    +0.000 A 
ATOM     25  C   UNL     1      -1.330  11.476  20.101  0.00  0.00    +0.000 A 
ATOM     26  C   UNL     1      -2.274  12.503  20.016  0.00  0.00    +0.000 A 
ATOM     27  C   UNL     1      -2.698  13.171  21.171  0.00  0.00    +0.000 A 
ATOM     28  C   UNL     1      -3.718  14.265  21.097  0.00  0.00    +0.000 C 
ATOM     29  C   UNL     1      -2.159  12.798  22.408  0.00  0.00    +0.000 A 
ATOM     30  C   UNL     1      -1.214  11.770  22.492  0.00  0.00    +0.000 A 
ENDBRANCH  21  24
ENDBRANCH   5  19
TORSDOF 5
ENDMDL
MODEL 2
REMARK VINA RESULT:      -8.1      2.219      3.552
REMARK  Name = 
REMARK  8 active torsions:
REMARK  status: ('A' for Active; 'I' for Inactive)
REMARK    1  A    between atoms: C_1  and  O_2
REMARK    2  A    between atoms: O_2  and  C_3
REMARK    3  A    between atoms: C_6  and  N_7
REMARK    4  A    between atoms: C_11  and  C_12
REMARK    5  A    between atoms: C_14  and  C_15
REMARK    6  A    between atoms: C_18  and  C_19
REMARK    7  A    between atoms: C_26  and  O_27
REMARK    8  A    between atoms: O_27  and  C_28
REMARK                            x       y       z     vdW  Elec       q    Type
REMARK                         _______ _______ _______ _____ _____    ______ ____
ROOT
ATOM      1  N   UNL     1       3.070   7.590  17.683  0.00  0.00    +0.000 N 
ATOM      2  C   UNL     1       2.209   8.270  18.573  0.00  0.00    +0.000 A 
ATOM      3  C   UNL     1       1.593   9.451  18.178  0.00  0.00    +0.000 A 
ATOM      4  C   UNL     1       0.779  10.138  19.080  0.00  0.00    +0.000 A 
ATOM      5  C   UNL     1       0.641   9.648  20.370  0.00  0.00    +0.000 A 
ATOM      6  N   UNL     1       1.254   8.511  20.745  0.00  0.00    +0.000 NA
ATOM      7  N   UNL     1       2.040   7.829  19.841  0.00  0.00    +0.000 NA
ATOM      8  H   UNL     1       2.868   7.819  16.715  0.00  0.00    +0.000 HD
ENDROOT
BRANCH   1  12
ATOM      9  C   UNL     1       3.755   3.406  17.704  0.00  0.00    +0.000 A 
ATOM     10  C   UNL     1       2.464   3.913  17.808  0.00  0.00    +0.000 A 
ATOM     11  C   UNL     1       2.246   5.286  17.826  0.00  0.00    +0.000 A 
ATOM     12  C   UNL     1       3.320   6.187  17.753  0.00  0.00    +0.000 A 
ATOM     13  C   UNL     1       4.627   5.677  17.599  0.00  0.00    +0.000 A 
ATOM     14  C   UNL     1       4.834   4.288  17.605  0.00  0.00    +0.000 A 
BRANCH   9  16
ATOM     15  C   UNL     1       3.509   1.364  18.898  0.00  0.00    +0.000 C 
ATOM     16  O   UNL     1       3.824   2.040  17.689  0.00  0.00    +0.000 OA
ENDBRANCH   9  16
BRANCH  13  17
ATOM     17  O   UNL     1       5.630   6.606  17.442  0.00  0.00    +0.000 OA
ATOM     18  C   UNL     1       6.958   6.184  17.731  0.00  0.00    +0.000 C 
ENDBRANCH  13  17
ENDBRANCH   1  12
BRANCH   5  19
ATOM     19  C   UNL     1      -0.135  10.345  21.376  0.00  0.00    +0.000 A 
ATOM     20  N   UNL     1      -1.105  11.223  21.233  0.00  0.00    +0.000 NA
ATOM     21  C   UNL     1      -1.401  11.562  22.536  0.00  0.00    +0.000 A 
ATOM     22  N   UNL     1      -0.654  10.921  23.450  0.00  0.00    +0.000 NA
ATOM     23  O   UNL     1       0.185  10.111  22.683  0.00  0.00    +0.000 OA
BRANCH  21  24
ATOM     24  C   UNL     1      -2.440  12.533  22.861  0.00  0.00    +0.000 A 
ATOM     25  C   UNL     1      -2.476  13.770  22.201  0.00  0.00    +0.000 A 
ATOM     26  C   UNL     1      -3.469  14.708  22.494  0.00  0.00    +0.000 A 
ATOM     27  C   UNL     1      -4.447  14.426  23.454  0.00  0.00    +0.000 A 
ATOM     28  C   UNL     1      -5.525  15.417  23.770  0.00  0.00    +0.000 C 
ATOM     29  C   UNL     1      -4.411  13.194  24.118  0.00  0.00    +0.000 A 
ATOM     30  C   UNL     1      -3.417  12.256  23.825  0.00  0.00    +0.000 A 
ENDBRANCH  21  24
ENDBRANCH   5  19
TORSDOF 5
ENDMDL
MODEL 3
REMARK VINA RESULT:      -8.0      1.206      1.265
REMARK  Name = 
REMARK  8 active torsions:
REMARK  status: ('A' for Active; 'I' for Inactive)
REMARK    1  A    between atoms: C_1  and  O_2
REMARK    2  A    between atoms: O_2  and  C_3
REMARK    3  A    between atoms: C_6  and  N_7
REMARK    4  A    between atoms: C_11  and  C_12
REMARK    5  A    between atoms: C_14  and  C_15
REMARK    6  A    between atoms: C_18  and  C_19
REMARK    7  A    between atoms: C_26  and  O_27
REMARK    8  A    between atoms: O_27  and  C_28
REMARK                            x       y       z     vdW  Elec       q    Type
REMARK                         _______ _______ _______ _____ _____    ______ ____
ROOT
ATOM      1  N   UNL     1       3.982   4.012  18.097  0.00  0.00    +0.000 N 
ATOM      2  C   UNL     1       3.303   5.024  18.812  0.00  0.00    +0.000 A 
ATOM      3  C   UNL     1       2.707   4.732  20.033  0.00  0.00    +0.000 A 
ATOM      4  C   UNL     1       2.001   5.727  20.710  0.00  0.00    +0.000 A 
ATOM      5  C   UNL     1       1.870   6.977  20.123  0.00  0.00    +0.000 A 
ATOM      6  N   UNL     1       2.439   7.243  18.934  0.00  0.00    +0.000 NA
ATOM      7  N   UNL     1       3.152   6.260  18.282  0.00  0.00    +0.000 NA
ATOM      8  H   UNL     1       4.296   3.265  18.709  0.00  0.00    +0.000 HD
ENDROOT
BRANCH   1  12
ATOM      9  C   UNL     1       7.026   4.991  15.313  0.00  0.00    +0.000 A 
ATOM     10  C   UNL     1       5.729   4.726  14.882  0.00  0.00    +0.000 A 
ATOM     11  C   UNL     1       4.740   4.382  15.796  0.00  0.00    +0.000 A 
ATOM     12  C   UNL     1       5.029   4.279  17.166  0.00  0.00    +0.000 A 
ATOM     13  C   UNL     1       6.331   4.593  17.612  0.00  0.00    +0.000 A 
ATOM     14  C   UNL     1       7.325   4.917  16.675  0.00  0.00    +0.000 A 
BRANCH   9  16
ATOM     15  C   UNL     1       7.515   4.987  12.985  0.00  0.00    +0.000 C 
ATOM     16  O   UNL     1       7.895   5.325  14.311  0.00  0.00    +0.000 OA
ENDBRANCH   9  16
BRANCH  13  17
ATOM     17  O   UNL     1       6.533   4.563  18.973  0.00  0.00    +0.000 OA
ATOM     18  C   UNL     1       7.317   5.609  19.537  0.00  0.00    +0.000 C 
ENDBRANCH  13  17
ENDBRANCH   1  12
BRANCH   5  19
ATOM     19  C   UNL     1       1.097   8.037  20.739  0.00  0.00    +0.000 A 
ATOM     20  N   UNL     1       1.231   9.342  20.642  0.00  0.00    +0.000 NA
ATOM     21  C   UNL     1       0.252   9.811  21.491  0.00  0.00    +0.000 A 
ATOM     22  N   UNL     1      -0.464   8.843  22.086  0.00  0.00    +0.000 NA
ATOM     23  O   UNL     1       0.094   7.665  21.587  0.00  0.00    +0.000 OA
BRANCH  21  24
ATOM     24  C   UNL     1       0.036  11.238  21.702  0.00  0.00    +0.000 A 
ATOM     25  C   UNL     1       0.744  12.176  20.937  0.00  0.00    +0.000 A 
ATOM     26  C   UNL     1       0.543  13.547  21.120  0.00  0.00    +0.000 A 
ATOM     27  C   UNL     1      -0.371  14.006  22.074  0.00  0.00    +0.000 A 
ATOM     28  C   UNL     1      -0.606  15.472  22.274  0.00  0.00    +0.000 C 
ATOM     29  C   UNL     1      -1.076  13.073  22.844  0.00  0.00    +0.000 A 
ATOM     30  C   UNL     1      -0.875  11.702  22.660  0.00  0.00    +0.000 A 
ENDBRANCH  21  24
ENDBRANCH   5  19
TORSDOF 5
ENDMDL
MODEL 4
REMARK VINA RESULT:      -7.8      1.389      1.805
REMARK  Name = 
REMARK  8 active torsions:
REMARK  status: ('A' for Active; 'I' for Inactive)
REMARK    1  A    between atoms: C_1  and  O_2
REMARK    2  A    between atoms: O_2  and  C_3
REMARK    3  A    between atoms: C_6  and  N_7
REMARK    4  A    between atoms: C_11  and  C_12
REMARK    5  A    between atoms: C_14  and  C_15
REMARK    6  A    between atoms: C_18  and  C_19
REMARK    7  A    between atoms: C_26  and  O_27
REMARK    8  A    between atoms: O_27  and  C_28
REMARK                            x       y       z     vdW  Elec       q    Type
REMARK                         _______ _______ _______ _____ _____    ______ ____
ROOT
ATOM      1  N   UNL     1       3.780   4.677  18.641  0.00  0.00    +0.000 N 
ATOM      2  C   UNL     1       3.112   5.864  19.016  0.00  0.00    +0.000 A 
ATOM      3  C   UNL     1       2.524   5.964  20.270  0.00  0.00    +0.000 A 
ATOM      4  C   UNL     1       1.828   7.124  20.614  0.00  0.00    +0.000 A 
ATOM      5  C   UNL     1       1.701   8.136  19.674  0.00  0.00    +0.000 A 
ATOM      6  N   UNL     1       2.263   8.022  18.458  0.00  0.00    +0.000 NA
ATOM      7  N   UNL     1       2.966   6.881  18.135  0.00  0.00    +0.000 NA
ATOM      8  H   UNL     1       4.094   4.150  19.450  0.00  0.00    +0.000 HD
ENDROOT
BRANCH   1  12
ATOM      9  C   UNL     1       6.830   4.747  15.696  0.00  0.00    +0.000 A 
ATOM     10  C   UNL     1       5.501   4.549  15.336  0.00  0.00    +0.000 A 
ATOM     11  C   UNL     1       4.508   4.502  16.306  0.00  0.00    +0.000 A 
ATOM     12  C   UNL     1       4.823   4.639  17.668  0.00  0.00    +0.000 A 
ATOM     13  C   UNL     1       6.163   4.888  18.034  0.00  0.00    +0.000 A 
ATOM     14  C   UNL     1       7.159   4.910  17.044  0.00  0.00    +0.000 A 
BRANCH   9  16
ATOM     15  C   UNL     1       7.158   4.563  13.348  0.00  0.00    +0.000 C 
ATOM     16  O   UNL     1       7.701   4.780  14.643  0.00  0.00    +0.000 OA
ENDBRANCH   9  16
BRANCH  13  17
ATOM     17  O   UNL     1       6.400   5.104  19.372  0.00  0.00    +0.000 OA
ATOM     18  C   UNL     1       7.675   5.625  19.731  0.00  0.00    +0.000 C 
ENDBRANCH  13  17
ENDBRANCH   1  12
BRANCH   5  19
ATOM     19  C   UNL     1       0.939   9.340  19.940  0.00  0.00    +0.000 A 
ATOM     20  N   UNL     1       0.812  10.026  21.056  0.00  0.00    +0.000 NA
ATOM     21  C   UNL     1      -0.076  11.019  20.700  0.00  0.00    +0.000 A 
ATOM     22  N   UNL     1      -0.480  10.958  19.421  0.00  0.00    +0.000 NA
ATOM     23  O   UNL     1       0.193   9.845  18.914  0.00  0.00    +0.000 OA
BRANCH  21  24
ATOM     24  C   UNL     1      -0.516  12.034  21.652  0.00  0.00    +0.000 A 
ATOM     25  C   UNL     1      -1.537  11.741  22.568  0.00  0.00    +0.000 A 
ATOM     26  C   UNL     1      -1.966  12.699  23.491  0.00  0.00    +0.000 A 
ATOM     27  C   UNL     1      -1.379  13.969  23.516  0.00  0.00    +0.000 A 
ATOM     28  C   UNL     1      -1.819  15.001  24.508  0.00  0.00    +0.000 C 
ATOM     29  C   UNL     1      -0.363  14.266  22.600  0.00  0.00    +0.000 A 
ATOM     30  C   UNL     1       0.065  13.307  21.676  0.00  0.00    +0.000 A 
ENDBRANCH  21  24
ENDBRANCH   5  19
TORSDOF 5
ENDMDL
MODEL 5
REMARK VINA RESULT:      -7.8      1.291      1.707
REMARK  Name = 
REMARK  8 active torsions:
REMARK  status: ('A' for Active; 'I' for Inactive)
REMARK    1  A    between atoms: C_1  and  O_2
REMARK    2  A    between atoms: O_2  and  C_3
REMARK    3  A    between atoms: C_6  and  N_7
REMARK    4  A    between atoms: C_11  and  C_12
REMARK    5  A    between atoms: C_14  and  C_15
REMARK    6  A    between atoms: C_18  and  C_19
REMARK    7  A    between atoms: C_26  and  O_27
REMARK    8  A    between atoms: O_27  and  C_28
REMARK                            x       y       z     vdW  Elec       q    Type
REMARK                         _______ _______ _______ _____ _____    ______ ____
ROOT
ATOM      1  N   UNL     1       3.825   4.951  18.553  0.00  0.00    +0.000 N 
ATOM      2  C   UNL     1       3.130   6.127  18.916  0.00  0.00    +0.000 A 
ATOM      3  C   UNL     1       2.512   6.213  20.157  0.00  0.00    +0.000 A 
ATOM      4  C   UNL     1       1.791   7.361  20.489  0.00  0.00    +0.000 A 
ATOM      5  C   UNL     1       1.669   8.374  19.549  0.00  0.00    +0.000 A 
ATOM      6  N   UNL     1       2.260   8.272  18.345  0.00  0.00    +0.000 NA
ATOM      7  N   UNL     1       2.987   7.143  18.034  0.00  0.00    +0.000 NA
ATOM      8  H   UNL     1       4.129   4.427  19.367  0.00  0.00    +0.000 HD
ENDROOT
BRANCH   1  12
ATOM      9  C   UNL     1       6.950   5.085  15.691  0.00  0.00    +0.000 A 
ATOM     10  C   UNL     1       5.623   4.982  15.287  0.00  0.00    +0.000 A 
ATOM     11  C   UNL     1       4.603   4.914  16.228  0.00  0.00    +0.000 A 
ATOM     12  C   UNL     1       4.889   4.932  17.603  0.00  0.00    +0.000 A 
ATOM     13  C   UNL     1       6.231   5.085  18.017  0.00  0.00    +0.000 A 
ATOM     14  C   UNL     1       7.252   5.130  17.054  0.00  0.00    +0.000 A 
BRANCH   9  16
ATOM     15  C   UNL     1       7.349   4.931  13.351  0.00  0.00    +0.000 C 
ATOM     16  O   UNL     1       7.848   5.152  14.662  0.00  0.00    +0.000 OA
ENDBRANCH   9  16
BRANCH  13  17
ATOM     17  O   UNL     1       6.443   5.188  19.373  0.00  0.00    +0.000 OA
ATOM     18  C   UNL     1       7.736   5.604  19.798  0.00  0.00    +0.000 C 
ENDBRANCH  13  17
ENDBRANCH   1  12
BRANCH   5  19
ATOM     19  C   UNL     1       0.882   9.564  19.801  0.00  0.00    +0.000 A 
ATOM     20  N   UNL     1       0.045   9.828  20.782  0.00  0.00    +0.000 NA
ATOM     21  C   UNL     1      -0.430  11.078  20.447  0.00  0.00    +0.000 A 
ATOM     22  N   UNL     1       0.090  11.573  19.312  0.00  0.00    +0.000 NA
ATOM     23  O   UNL     1       0.962  10.571  18.883  0.00  0.00    +0.000 OA
BRANCH  21  24
ATOM     24  C   UNL     1      -1.409  11.775  21.273  0.00  0.00    +0.000 A 
ATOM     25  C   UNL     1      -1.538  11.453  22.632  0.00  0.00    +0.000 A 
ATOM     26  C   UNL     1      -2.465  12.117  23.440  0.00  0.00    +0.000 A 
ATOM     27  C   UNL     1      -3.282  13.117  22.903  0.00  0.00    +0.000 A 
ATOM     28  C   UNL     1      -4.272  13.846  23.759  0.00  0.00    +0.000 C 
ATOM     29  C   UNL     1      -3.160  13.438  21.545  0.00  0.00    +0.000 A 
ATOM     30  C   UNL     1      -2.233  12.773  20.738  0.00  0.00    +0.000 A 
ENDBRANCH  21  24
ENDBRANCH   5  19
TORSDOF 5
ENDMDL
MODEL 6
REMARK VINA RESULT:      -7.7      2.493      3.375
REMARK  Name = 
REMARK  8 active torsions:
REMARK  status: ('A' for Active; 'I' for Inactive)
REMARK    1  A    between atoms: C_1  and  O_2
REMARK    2  A    between atoms: O_2  and  C_3
REMARK    3  A    between atoms: C_6  and  N_7
REMARK    4  A    between atoms: C_11  and  C_12
REMARK    5  A    between atoms: C_14  and  C_15
REMARK    6  A    between atoms: C_18  and  C_19
REMARK    7  A    between atoms: C_26  and  O_27
REMARK    8  A    between atoms: O_27  and  C_28
REMARK                            x       y       z     vdW  Elec       q    Type
REMARK                         _______ _______ _______ _____ _____    ______ ____
ROOT
ATOM      1  N   UNL     1       3.556   6.050  18.913  0.00  0.00    +0.000 N 
ATOM      2  C   UNL     1       2.651   7.134  18.946  0.00  0.00    +0.000 A 
ATOM      3  C   UNL     1       2.147   7.581  20.161  0.00  0.00    +0.000 A 
ATOM      4  C   UNL     1       1.219   8.624  20.181  0.00  0.00    +0.000 A 
ATOM      5  C   UNL     1       0.785   9.160  18.977  0.00  0.00    +0.000 A 
ATOM      6  N   UNL     1       1.270   8.709  17.807  0.00  0.00    +0.000 NA
ATOM      7  N   UNL     1       2.201   7.693  17.799  0.00  0.00    +0.000 NA
ATOM      8  H   UNL     1       4.044   5.940  19.796  0.00  0.00    +0.000 HD
ENDROOT
BRANCH   1  12
ATOM      9  C   UNL     1       6.493   5.378  15.930  0.00  0.00    +0.000 A 
ATOM     10  C   UNL     1       6.646   6.404  16.857  0.00  0.00    +0.000 A 
ATOM     11  C   UNL     1       5.670   6.636  17.818  0.00  0.00    +0.000 A 
ATOM     12  C   UNL     1       4.504   5.854  17.865  0.00  0.00    +0.000 A 
ATOM     13  C   UNL     1       4.367   4.782  16.957  0.00  0.00    +0.000 A 
ATOM     14  C   UNL     1       5.352   4.573  15.977  0.00  0.00    +0.000 A 
BRANCH   9  16
ATOM     15  C   UNL     1       7.222   4.780  13.746  0.00  0.00    +0.000 C 
ATOM     16  O   UNL     1       7.531   5.255  15.048  0.00  0.00    +0.000 OA
ENDBRANCH   9  16
BRANCH  13  17
ATOM     17  O   UNL     1       3.249   3.994  17.107  0.00  0.00    +0.000 OA
ATOM     18  C   UNL     1       3.426   2.728  17.733  0.00  0.00    +0.000 C 
ENDBRANCH  13  17
ENDBRANCH   1  12
BRANCH   5  19
ATOM     19  C   UNL     1      -0.223  10.200  18.920  0.00  0.00    +0.000 A 
ATOM     20  N   UNL     1      -1.520  10.104  18.720  0.00  0.00    +0.000 NA
ATOM     21  C   UNL     1      -1.924  11.423  18.716  0.00  0.00    +0.000 A 
ATOM     22  N   UNL     1      -0.925  12.299  18.910  0.00  0.00    +0.000 NA
ATOM     23  O   UNL     1       0.204  11.490  19.048  0.00  0.00    +0.000 OA
BRANCH  21  24
ATOM     24  C   UNL     1      -3.319  11.799  18.519  0.00  0.00    +0.000 A 
ATOM     25  C   UNL     1      -4.046  12.377  19.570  0.00  0.00    +0.000 A 
ATOM     26  C   UNL     1      -5.382  12.750  19.396  0.00  0.00    +0.000 A 
ATOM     27  C   UNL     1      -6.016  12.552  18.165  0.00  0.00    +0.000 A 
ATOM     28  C   UNL     1      -7.443  12.958  17.959  0.00  0.00    +0.000 C 
ATOM     29  C   UNL     1      -5.295  11.970  17.115  0.00  0.00    +0.000 A 
ATOM     30  C   UNL     1      -3.959  11.596  17.291  0.00  0.00    +0.000 A 
ENDBRANCH  21  24
ENDBRANCH   5  19
TORSDOF 5
ENDMDL
MODEL 7
REMARK VINA RESULT:      -7.7      2.837     11.145
REMARK  Name = 
REMARK  8 active torsions:
REMARK  status: ('A' for Active; 'I' for Inactive)
REMARK    1  A    between atoms: C_1  and  O_2
REMARK    2  A    between atoms: O_2  and  C_3
REMARK    3  A    between atoms: C_6  and  N_7
REMARK    4  A    between atoms: C_11  and  C_12
REMARK    5  A    between atoms: C_14  and  C_15
REMARK    6  A    between atoms: C_18  and  C_19
REMARK    7  A    between atoms: C_26  and  O_27
REMARK    8  A    between atoms: O_27  and  C_28
REMARK                            x       y       z     vdW  Elec       q    Type
REMARK                         _______ _______ _______ _____ _____    ______ ____
ROOT
ATOM      1  N   UNL     1      -1.530  12.969  20.545  0.00  0.00    +0.000 N 
ATOM      2  C   UNL     1      -0.666  11.892  20.246  0.00  0.00    +0.000 A 
ATOM      3  C   UNL     1      -0.050  11.821  19.003  0.00  0.00    +0.000 A 
ATOM      4  C   UNL     1       0.767  10.730  18.700  0.00  0.00    +0.000 A 
ATOM      5  C   UNL     1       0.906   9.715  19.636  0.00  0.00    +0.000 A 
ATOM      6  N   UNL     1       0.293   9.788  20.830  0.00  0.00    +0.000 NA
ATOM      7  N   UNL     1      -0.495  10.879  21.127  0.00  0.00    +0.000 NA
ATOM      8  H   UNL     1      -1.330  13.783  19.972  0.00  0.00    +0.000 HD
ENDROOT
BRANCH   1  12
ATOM      9  C   UNL     1      -2.319  14.503  24.418  0.00  0.00    +0.000 A 
ATOM     10  C   UNL     1      -1.115  14.780  23.778  0.00  0.00    +0.000 A 
ATOM     11  C   UNL     1      -0.850  14.255  22.519  0.00  0.00    +0.000 A 
ATOM     12  C   UNL     1      -1.781  13.425  21.873  0.00  0.00    +0.000 A 
ATOM     13  C   UNL     1      -3.023  13.181  22.499  0.00  0.00    +0.000 A 
ATOM     14  C   UNL     1      -3.267  13.700  23.781  0.00  0.00    +0.000 A 
BRANCH   9  16
ATOM     15  C   UNL     1      -1.288  15.679  26.211  0.00  0.00    +0.000 C 
ATOM     16  O   UNL     1      -2.451  15.090  25.646  0.00  0.00    +0.000 OA
ENDBRANCH   9  16
BRANCH  13  17
ATOM     17  O   UNL     1      -3.932  12.437  21.782  0.00  0.00    +0.000 OA
ATOM     18  C   UNL     1      -5.259  12.942  21.692  0.00  0.00    +0.000 C 
ENDBRANCH  13  17
ENDBRANCH   1  12
BRANCH   5  19
ATOM     19  C   UNL     1       1.686   8.523  19.364  0.00  0.00    +0.000 A 
ATOM     20  N   UNL     1       2.379   8.196  18.295  0.00  0.00    +0.000 NA
ATOM     21  C   UNL     1       2.842   6.936  18.607  0.00  0.00    +0.000 A 
ATOM     22  N   UNL     1       2.458   6.499  19.818  0.00  0.00    +0.000 NA
ATOM     23  O   UNL     1       1.693   7.551  20.323  0.00  0.00    +0.000 OA
BRANCH  21  24
ATOM     24  C   UNL     1       3.673   6.171  17.684  0.00  0.00    +0.000 A 
ATOM     25  C   UNL     1       3.559   4.774  17.628  0.00  0.00    +0.000 A 
ATOM     26  C   UNL     1       4.343   4.027  16.745  0.00  0.00    +0.000 A 
ATOM     27  C   UNL     1       5.256   4.665  15.898  0.00  0.00    +0.000 A 
ATOM     28  C   UNL     1       6.094   3.879  14.937  0.00  0.00    +0.000 C 
ATOM     29  C   UNL     1       5.377   6.059  15.955  0.00  0.00    +0.000 A 
ATOM     30  C   UNL     1       4.593   6.805  16.840  0.00  0.00    +0.000 A 
ENDBRANCH  21  24
ENDBRANCH   5  19
TORSDOF 5
ENDMDL
MODEL 8
REMARK VINA RESULT:      -7.7      3.084     11.131
REMARK  Name = 
REMARK  8 active torsions:
REMARK  status: ('A' for Active; 'I' for Inactive)
REMARK    1  A    between atoms: C_1  and  O_2
REMARK    2  A    between atoms: O_2  and  C_3
REMARK    3  A    between atoms: C_6  and  N_7
REMARK    4  A    between atoms: C_11  and  C_12
REMARK    5  A    between atoms: C_14  and  C_15
REMARK    6  A    between atoms: C_18  and  C_19
REMARK    7  A    between atoms: C_26  and  O_27
REMARK    8  A    between atoms: O_27  and  C_28
REMARK                            x       y       z     vdW  Elec       q    Type
REMARK                         _______ _______ _______ _____ _____    ______ ____
ROOT
ATOM      1  N   UNL     1      -1.891  13.030  19.384  0.00  0.00    +0.000 N 
ATOM      2  C   UNL     1      -0.955  11.974  19.318  0.00  0.00    +0.000 A 
ATOM      3  C   UNL     1       0.345  12.223  18.899  0.00  0.00    +0.000 A 
ATOM      4  C   UNL     1       1.250  11.164  18.795  0.00  0.00    +0.000 A 
ATOM      5  C   UNL     1       0.813   9.877  19.069  0.00  0.00    +0.000 A 
ATOM      6  N   UNL     1      -0.453   9.647  19.460  0.00  0.00    +0.000 NA
ATOM      7  N   UNL     1      -1.333  10.701  19.580  0.00  0.00    +0.000 NA
ATOM      8  H   UNL     1      -1.434  13.932  19.481  0.00  0.00    +0.000 HD
ENDROOT
BRANCH   1  12
ATOM      9  C   UNL     1      -5.276  13.198  21.931  0.00  0.00    +0.000 A 
ATOM     10  C   UNL     1      -4.042  13.674  22.360  0.00  0.00    +0.000 A 
ATOM     11  C   UNL     1      -2.930  13.595  21.532  0.00  0.00    +0.000 A 
ATOM     12  C   UNL     1      -3.022  13.022  20.253  0.00  0.00    +0.000 A 
ATOM     13  C   UNL     1      -4.283  12.581  19.795  0.00  0.00    +0.000 A 
ATOM     14  C   UNL     1      -5.393  12.647  20.652  0.00  0.00    +0.000 A 
BRANCH   9  16
ATOM     15  C   UNL     1      -6.120  12.709  24.100  0.00  0.00    +0.000 C 
ATOM     16  O   UNL     1      -6.286  13.346  22.842  0.00  0.00    +0.000 OA
ENDBRANCH   9  16
BRANCH  13  17
ATOM     17  O   UNL     1      -4.332  12.112  18.503  0.00  0.00    +0.000 OA
ATOM     18  C   UNL     1      -5.099  10.936  18.267  0.00  0.00    +0.000 C 
ENDBRANCH  13  17
ENDBRANCH   1  12
BRANCH   5  19
ATOM     19  C   UNL     1       1.679   8.724  18.920  0.00  0.00    +0.000 A 
ATOM     20  N   UNL     1       2.324   8.288  17.859  0.00  0.00    +0.000 NA
ATOM     21  C   UNL     1       2.922   7.135  18.321  0.00  0.00    +0.000 A 
ATOM     22  N   UNL     1       2.667   6.869  19.613  0.00  0.00    +0.000 NA
ATOM     23  O   UNL     1       1.844   7.923  20.012  0.00  0.00    +0.000 OA
BRANCH  21  24
ATOM     24  C   UNL     1       3.755   6.303  17.460  0.00  0.00    +0.000 A 
ATOM     25  C   UNL     1       4.660   6.898  16.570  0.00  0.00    +0.000 A 
ATOM     26  C   UNL     1       5.471   6.115  15.744  0.00  0.00    +0.000 A 
ATOM     27  C   UNL     1       5.391   4.719  15.793  0.00  0.00    +0.000 A 
ATOM     28  C   UNL     1       6.262   3.867  14.922  0.00  0.00    +0.000 C 
ATOM     29  C   UNL     1       4.485   4.121  16.677  0.00  0.00    +0.000 A 
ATOM     30  C   UNL     1       3.674   4.906  17.502  0.00  0.00    +0.000 A 
ENDBRANCH  21  24
ENDBRANCH   5  19
TORSDOF 5
ENDMDL
MODEL 9
REMARK VINA RESULT:      -7.4      3.208     11.327
REMARK  Name = 
REMARK  8 active torsions:
REMARK  status: ('A' for Active; 'I' for Inactive)
REMARK    1  A    between atoms: C_1  and  O_2
REMARK    2  A    between atoms: O_2  and  C_3
REMARK    3  A    between atoms: C_6  and  N_7
REMARK    4  A    between atoms: C_11  and  C_12
REMARK    5  A    between atoms: C_14  and  C_15
REMARK    6  A    between atoms: C_18  and  C_19
REMARK    7  A    between atoms: C_26  and  O_27
REMARK    8  A    between atoms: O_27  and  C_28
REMARK                            x       y       z     vdW  Elec       q    Type
REMARK                         _______ _______ _______ _____ _____    ______ ____
ROOT
ATOM      1  N   UNL     1      -1.802  12.062  23.556  0.00  0.00    +0.000 N 
ATOM      2  C   UNL     1      -1.128  11.342  22.544  0.00  0.00    +0.000 A 
ATOM      3  C   UNL     1      -0.620  10.077  22.812  0.00  0.00    +0.000 A 
ATOM      4  C   UNL     1       0.083   9.392  21.819  0.00  0.00    +0.000 A 
ATOM      5  C   UNL     1       0.298  10.013  20.598  0.00  0.00    +0.000 A 
ATOM      6  N   UNL     1      -0.186  11.244  20.355  0.00  0.00    +0.000 NA
ATOM      7  N   UNL     1      -0.896  11.904  21.335  0.00  0.00    +0.000 NA
ATOM      8  H   UNL     1      -2.182  11.445  24.267  0.00  0.00    +0.000 HD
ENDROOT
BRANCH   1  12
ATOM      9  C   UNL     1      -4.810  14.977  22.904  0.00  0.00    +0.000 A 
ATOM     10  C   UNL     1      -5.005  13.657  22.511  0.00  0.00    +0.000 A 
ATOM     11  C   UNL     1      -4.007  12.710  22.704  0.00  0.00    +0.000 A 
ATOM     12  C   UNL     1      -2.779  13.065  23.284  0.00  0.00    +0.000 A 
ATOM     13  C   UNL     1      -2.595  14.392  23.728  0.00  0.00    +0.000 A 
ATOM     14  C   UNL     1      -3.604  15.344  23.506  0.00  0.00    +0.000 A 
BRANCH   9  16
ATOM     15  C   UNL     1      -6.585  15.601  21.449  0.00  0.00    +0.000 C 
ATOM     16  O   UNL     1      -5.875  15.800  22.663  0.00  0.00    +0.000 OA
ENDBRANCH   9  16
BRANCH  13  17
ATOM     17  O   UNL     1      -1.408  14.662  24.370  0.00  0.00    +0.000 OA
ATOM     18  C   UNL     1      -1.480  15.402  25.584  0.00  0.00    +0.000 C 
ENDBRANCH  13  17
ENDBRANCH   1  12
BRANCH   5  19
ATOM     19  C   UNL     1       1.074   9.388  19.545  0.00  0.00    +0.000 A 
ATOM     20  N   UNL     1       1.652   8.206  19.514  0.00  0.00    +0.000 NA
ATOM     21  C   UNL     1       2.279   8.208  18.286  0.00  0.00    +0.000 A 
ATOM     22  N   UNL     1       2.096   9.337  17.582  0.00  0.00    +0.000 NA
ATOM     23  O   UNL     1       1.295  10.121  18.415  0.00  0.00    +0.000 OA
BRANCH  21  24
ATOM     24  C   UNL     1       3.062   7.068  17.821  0.00  0.00    +0.000 A 
ATOM     25  C   UNL     1       4.272   7.277  17.143  0.00  0.00    +0.000 A 
ATOM     26  C   UNL     1       5.038   6.197  16.698  0.00  0.00    +0.000 A 
ATOM     27  C   UNL     1       4.608   4.885  16.922  0.00  0.00    +0.000 A 
ATOM     28  C   UNL     1       5.424   3.716  16.462  0.00  0.00    +0.000 C 
ATOM     29  C   UNL     1       3.397   4.672  17.594  0.00  0.00    +0.000 A 
ATOM     30  C   UNL     1       2.631   5.754  18.039  0.00  0.00    +0.000 A 
ENDBRANCH  21  24
ENDBRANCH   5  19
TORSDOF 5
ENDMDL
