MODEL 1
REMARK VINA RESULT:      -7.4      0.000      0.000
REMARK  Name = 
REMARK  7 active torsions:
REMARK  status: ('A' for Active; 'I' for Inactive)
REMARK    1  A    between atoms: C_1  and  O_2
REMARK    2  A    between atoms: O_2  and  C_3
REMARK    3  A    between atoms: C_8  and  C_9
REMARK    4  A    between atoms: C_9  and  N_10
REMARK    5  A    between atoms: C_11  and  C_13
REMARK    6  A    between atoms: C_16  and  C_17
REMARK    7  A    between atoms: C_17  and  C_18
REMARK                            x       y       z     vdW  Elec       q    Type
REMARK                         _______ _______ _______ _____ _____    ______ ____
ROOT
ATOM      1  N   UNL     1       2.907   5.242  17.940  0.00  0.00    +0.000 N 
ATOM      2  C   UNL     1       2.823   5.579  19.273  0.00  0.00    +0.000 C 
ATOM      3  O   UNL     1       3.212   4.839  20.173  0.00  0.00    +0.000 OA
ATOM      4  H   UNL     1       2.694   5.966  17.264  0.00  0.00    +0.000 HD
ENDROOT
BRANCH   2   5
ATOM      5  C   UNL     1       2.232   6.896  19.558  0.00  0.00    +0.000 A 
ATOM      6  C   UNL     1       1.633   7.181  20.775  0.00  0.00    +0.000 A 
ATOM      7  S   UNL     1       1.044   8.781  20.801  0.00  0.00    +0.000 S 
ATOM      8  C   UNL     1       1.598   9.002  19.185  0.00  0.00    +0.000 A 
ATOM      9  N   UNL     1       2.206   7.960  18.642  0.00  0.00    +0.000 NA
BRANCH   8  10
ATOM     10  C   UNL     1       1.313  10.307  18.489  0.00  0.00    +0.000 C 
BRANCH  10  11
ATOM     11  C   UNL     1      -0.157  10.665  18.404  0.00  0.00    +0.000 A 
ATOM     12  C   UNL     1      -1.037   9.873  17.649  0.00  0.00    +0.000 A 
ATOM     13  C   UNL     1      -2.402  10.161  17.613  0.00  0.00    +0.000 A 
ATOM     14  C   UNL     1      -2.901  11.248  18.331  0.00  0.00    +0.000 A 
ATOM     15 CL   UNL     1      -4.587  11.589  18.306  0.00  0.00    +0.000 Cl
ATOM     16  C   UNL     1      -2.042  12.049  19.083  0.00  0.00    +0.000 A 
ATOM     17  C   UNL     1      -0.675  11.759  19.117  0.00  0.00    +0.000 A 
ENDBRANCH  10  11
ENDBRANCH   8  10
ENDBRANCH   2   5
BRANCH   1  18
ATOM     18  C   UNL     1       3.617   4.046  17.521  0.00  0.00    +0.000 C 
BRANCH  18  24
ATOM     19  C   UNL     1       6.135   4.494  17.392  0.00  0.00    +0.000 A 
ATOM     20  C   UNL     1       7.293   4.663  16.620  0.00  0.00    +0.000 A 
ATOM     21  C   UNL     1       7.218   4.727  15.229  0.00  0.00    +0.000 A 
ATOM     22  C   UNL     1       5.988   4.603  14.595  0.00  0.00    +0.000 A 
ATOM     23  C   UNL     1       4.833   4.403  15.352  0.00  0.00    +0.000 A 
ATOM     24  C   UNL     1       4.886   4.347  16.758  0.00  0.00    +0.000 A 
BRANCH  19  26
ATOM     25  C   UNL     1       6.746   5.523  19.428  0.00  0.00    +0.000 C 
ATOM     26  O   UNL     1       6.163   4.406  18.761  0.00  0.00    +0.000 OA
ENDBRANCH  19  26
ENDBRANCH  18  24
ENDBRANCH   1  18
TORSDOF 6
ENDMDL
MODEL 2
REMARK VINA RESULT:      -7.3      1.190      1.935
REMARK  Name = 
REMARK  7 active torsions:
REMARK  status: ('A' for Active; 'I' for Inactive)
REMARK    1  A    between atoms: C_1  and  O_2
REMARK    2  A    between atoms: O_2  and  C_3
REMARK    3  A    between atoms: C_8  and  C_9
REMARK    4  A    between atoms: C_9  and  N_10
REMARK    5  A    between atoms: C_11  and  C_13
REMARK    6  A    between atoms: C_16  and  C_17
REMARK    7  A    between atoms: C_17  and  C_18
REMARK                            x       y       z     vdW  Elec       q    Type
REMARK                         _______ _______ _______ _____ _____    ______ ____
ROOT
ATOM      1  N   UNL     1       3.639   6.164  19.529  0.00  0.00    +0.000 N 
ATOM      2  C   UNL     1       2.455   6.191  20.232  0.00  0.00    +0.000 C 
ATOM      3  O   UNL     1       2.003   5.208  20.815  0.00  0.00    +0.000 OA
ATOM      4  H   UNL     1       4.005   7.049  19.201  0.00  0.00    +0.000 HD
ENDROOT
BRANCH   2   5
ATOM      5  C   UNL     1       1.756   7.486  20.245  0.00  0.00    +0.000 A 
ATOM      6  C   UNL     1       1.084   7.943  21.367  0.00  0.00    +0.000 A 
ATOM      7  S   UNL     1       0.377   9.466  21.073  0.00  0.00    +0.000 S 
ATOM      8  C   UNL     1       0.985   9.427  19.462  0.00  0.00    +0.000 A 
ATOM      9  N   UNL     1       1.692   8.355  19.145  0.00  0.00    +0.000 NA
BRANCH   8  10
ATOM     10  C   UNL     1       0.635  10.552  18.523  0.00  0.00    +0.000 C 
BRANCH  10  11
ATOM     11  C   UNL     1      -0.849  10.717  18.267  0.00  0.00    +0.000 A 
ATOM     12  C   UNL     1      -1.518   9.847  17.392  0.00  0.00    +0.000 A 
ATOM     13  C   UNL     1      -2.896   9.954  17.195  0.00  0.00    +0.000 A 
ATOM     14  C   UNL     1      -3.618  10.937  17.871  0.00  0.00    +0.000 A 
ATOM     15 CL   UNL     1      -5.320  11.055  17.647  0.00  0.00    +0.000 Cl
ATOM     16  C   UNL     1      -2.971  11.814  18.740  0.00  0.00    +0.000 A 
ATOM     17  C   UNL     1      -1.591  11.705  18.936  0.00  0.00    +0.000 A 
ENDBRANCH  10  11
ENDBRANCH   8  10
ENDBRANCH   2   5
BRANCH   1  18
ATOM     18  C   UNL     1       4.503   4.997  19.576  0.00  0.00    +0.000 C 
BRANCH  18  24
ATOM     19  C   UNL     1       4.423   4.371  17.095  0.00  0.00    +0.000 A 
ATOM     20  C   UNL     1       5.083   4.204  15.870  0.00  0.00    +0.000 A 
ATOM     21  C   UNL     1       6.471   4.313  15.790  0.00  0.00    +0.000 A 
ATOM     22  C   UNL     1       7.211   4.609  16.929  0.00  0.00    +0.000 A 
ATOM     23  C   UNL     1       6.560   4.807  18.147  0.00  0.00    +0.000 A 
ATOM     24  C   UNL     1       5.160   4.690  18.251  0.00  0.00    +0.000 A 
BRANCH  19  26
ATOM     25  C   UNL     1       2.547   2.986  17.475  0.00  0.00    +0.000 C 
ATOM     26  O   UNL     1       3.058   4.292  17.218  0.00  0.00    +0.000 OA
ENDBRANCH  19  26
ENDBRANCH  18  24
ENDBRANCH   1  18
TORSDOF 6
ENDMDL
MODEL 3
REMARK VINA RESULT:      -7.2      1.387      2.248
REMARK  Name = 
REMARK  7 active torsions:
REMARK  status: ('A' for Active; 'I' for Inactive)
REMARK    1  A    between atoms: C_1  and  O_2
REMARK    2  A    between atoms: O_2  and  C_3
REMARK    3  A    between atoms: C_8  and  C_9
REMARK    4  A    between atoms: C_9  and  N_10
REMARK    5  A    between atoms: C_11  and  C_13
REMARK    6  A    between atoms: C_16  and  C_17
REMARK    7  A    between atoms: C_17  and  C_18
REMARK                            x       y       z     vdW  Elec       q    Type
REMARK                         _______ _______ _______ _____ _____    ______ ____
ROOT
ATOM      1  N   UNL     1       3.025   6.349  18.331  0.00  0.00    +0.000 N 
ATOM      2  C   UNL     1       2.542   6.475  19.615  0.00  0.00    +0.000 C 
ATOM      3  O   UNL     1       2.721   5.623  20.482  0.00  0.00    +0.000 OA
ATOM      4  H   UNL     1       2.952   7.158  17.726  0.00  0.00    +0.000 HD
ENDROOT
BRANCH   2   5
ATOM      5  C   UNL     1       1.788   7.709  19.890  0.00  0.00    +0.000 A 
ATOM      6  C   UNL     1       1.165   7.928  21.108  0.00  0.00    +0.000 A 
ATOM      7  S   UNL     1       0.375   9.440  21.121  0.00  0.00    +0.000 S 
ATOM      8  C   UNL     1       0.888   9.712  19.500  0.00  0.00    +0.000 A 
ATOM      9  N   UNL     1       1.621   8.750  18.964  0.00  0.00    +0.000 NA
BRANCH   8  10
ATOM     10  C   UNL     1       0.434  10.962  18.791  0.00  0.00    +0.000 C 
BRANCH  10  11
ATOM     11  C   UNL     1      -1.051  11.009  18.492  0.00  0.00    +0.000 A 
ATOM     12  C   UNL     1      -1.617  10.116  17.569  0.00  0.00    +0.000 A 
ATOM     13  C   UNL     1      -2.992  10.113  17.331  0.00  0.00    +0.000 A 
ATOM     14  C   UNL     1      -3.816  11.008  18.014  0.00  0.00    +0.000 A 
ATOM     15 CL   UNL     1      -5.514  10.989  17.738  0.00  0.00    +0.000 Cl
ATOM     16  C   UNL     1      -3.272  11.907  18.931  0.00  0.00    +0.000 A 
ATOM     17  C   UNL     1      -1.894  11.908  19.167  0.00  0.00    +0.000 A 
ENDBRANCH  10  11
ENDBRANCH   8  10
ENDBRANCH   2   5
BRANCH   1  18
ATOM     18  C   UNL     1       3.920   5.260  17.980  0.00  0.00    +0.000 C 
BRANCH  18  24
ATOM     19  C   UNL     1       6.079   6.350  17.141  0.00  0.00    +0.000 A 
ATOM     20  C   UNL     1       7.401   6.751  17.379  0.00  0.00    +0.000 A 
ATOM     21  C   UNL     1       8.047   6.403  18.566  0.00  0.00    +0.000 A 
ATOM     22  C   UNL     1       7.372   5.668  19.533  0.00  0.00    +0.000 A 
ATOM     23  C   UNL     1       6.046   5.291  19.318  0.00  0.00    +0.000 A 
ATOM     24  C   UNL     1       5.380   5.623  18.122  0.00  0.00    +0.000 A 
BRANCH  19  26
ATOM     25  C   UNL     1       5.551   5.776  14.911  0.00  0.00    +0.000 C 
ATOM     26  O   UNL     1       5.398   6.687  15.998  0.00  0.00    +0.000 OA
ENDBRANCH  19  26
ENDBRANCH  18  24
ENDBRANCH   1  18
TORSDOF 6
ENDMDL
MODEL 4
REMARK VINA RESULT:      -7.2      1.125      1.509
REMARK  Name = 
REMARK  7 active torsions:
REMARK  status: ('A' for Active; 'I' for Inactive)
REMARK    1  A    between atoms: C_1  and  O_2
REMARK    2  A    between atoms: O_2  and  C_3
REMARK    3  A    between atoms: C_8  and  C_9
REMARK    4  A    between atoms: C_9  and  N_10
REMARK    5  A    between atoms: C_11  and  C_13
REMARK    6  A    between atoms: C_16  and  C_17
REMARK    7  A    between atoms: C_17  and  C_18
REMARK                            x       y       z     vdW  Elec       q    Type
REMARK                         _______ _______ _______ _____ _____    ______ ____
ROOT
ATOM      1  N   UNL     1       4.090   6.096  18.901  0.00  0.00    +0.000 N 
ATOM      2  C   UNL     1       2.744   6.010  19.182  0.00  0.00    +0.000 C 
ATOM      3  O   UNL     1       2.115   4.957  19.116  0.00  0.00    +0.000 OA
ATOM      4  H   UNL     1       4.555   6.970  19.117  0.00  0.00    +0.000 HD
ENDROOT
BRANCH   2   5
ATOM      5  C   UNL     1       2.097   7.273  19.572  0.00  0.00    +0.000 A 
ATOM      6  C   UNL     1       1.600   7.475  20.849  0.00  0.00    +0.000 A 
ATOM      7  S   UNL     1       0.910   9.028  20.993  0.00  0.00    +0.000 S 
ATOM      8  C   UNL     1       1.292   9.340  19.343  0.00  0.00    +0.000 A 
ATOM      9  N   UNL     1       1.912   8.362  18.705  0.00  0.00    +0.000 NA
BRANCH   8  10
ATOM     10  C   UNL     1       0.854  10.644  18.728  0.00  0.00    +0.000 C 
BRANCH  10  11
ATOM     11  C   UNL     1      -0.630  10.733  18.434  0.00  0.00    +0.000 A 
ATOM     12  C   UNL     1      -1.422  11.701  19.072  0.00  0.00    +0.000 A 
ATOM     13  C   UNL     1      -2.777  11.828  18.764  0.00  0.00    +0.000 A 
ATOM     14  C   UNL     1      -3.355  10.984  17.815  0.00  0.00    +0.000 A 
ATOM     15 CL   UNL     1      -5.020  11.156  17.419  0.00  0.00    +0.000 Cl
ATOM     16  C   UNL     1      -2.587  10.013  17.176  0.00  0.00    +0.000 A 
ATOM     17  C   UNL     1      -1.229   9.886  17.486  0.00  0.00    +0.000 A 
ENDBRANCH  10  11
ENDBRANCH   8  10
ENDBRANCH   2   5
BRANCH   1  18
ATOM     18  C   UNL     1       4.876   4.897  18.665  0.00  0.00    +0.000 C 
BRANCH  18  24
ATOM     19  C   UNL     1       6.705   5.563  17.001  0.00  0.00    +0.000 A 
ATOM     20  C   UNL     1       7.309   5.408  15.745  0.00  0.00    +0.000 A 
ATOM     21  C   UNL     1       6.724   4.602  14.769  0.00  0.00    +0.000 A 
ATOM     22  C   UNL     1       5.541   3.928  15.044  0.00  0.00    +0.000 A 
ATOM     23  C   UNL     1       4.948   4.050  16.301  0.00  0.00    +0.000 A 
ATOM     24  C   UNL     1       5.517   4.868  17.297  0.00  0.00    +0.000 A 
BRANCH  19  26
ATOM     25  C   UNL     1       7.564   7.671  17.630  0.00  0.00    +0.000 C 
ATOM     26  O   UNL     1       7.254   6.329  17.998  0.00  0.00    +0.000 OA
ENDBRANCH  19  26
ENDBRANCH  18  24
ENDBRANCH   1  18
TORSDOF 6
ENDMDL
MODEL 5
REMARK VINA RESULT:      -7.1      6.128      8.634
REMARK  Name = 
REMARK  7 active torsions:
REMARK  status: ('A' for Active; 'I' for Inactive)
REMARK    1  A    between atoms: C_1  and  O_2
REMARK    2  A    between atoms: O_2  and  C_3
REMARK    3  A    between atoms: C_8  and  C_9
REMARK    4  A    between atoms: C_9  and  N_10
REMARK    5  A    between atoms: C_11  and  C_13
REMARK    6  A    between atoms: C_16  and  C_17
REMARK    7  A    between atoms: C_17  and  C_18
REMARK                            x       y       z     vdW  Elec       q    Type
REMARK                         _______ _______ _______ _____ _____    ______ ____
ROOT
ATOM      1  N   UNL     1       9.366   9.674  19.252  0.00  0.00    +0.000 N 
ATOM      2  C   UNL     1       8.474   9.558  18.209  0.00  0.00    +0.000 C 
ATOM      3  O   UNL     1       8.178  10.501  17.478  0.00  0.00    +0.000 OA
ATOM      4  H   UNL     1       9.657   8.818  19.711  0.00  0.00    +0.000 HD
ENDROOT
BRANCH   2   5
ATOM      5  C   UNL     1       7.890   8.221  18.019  0.00  0.00    +0.000 A 
ATOM      6  C   UNL     1       8.287   7.135  18.782  0.00  0.00    +0.000 A 
ATOM      7  S   UNL     1       7.434   5.730  18.328  0.00  0.00    +0.000 S 
ATOM      8  C   UNL     1       6.596   6.637  17.128  0.00  0.00    +0.000 A 
ATOM      9  N   UNL     1       6.908   7.921  17.062  0.00  0.00    +0.000 NA
BRANCH   8  10
ATOM     10  C   UNL     1       5.634   5.924  16.214  0.00  0.00    +0.000 C 
BRANCH  10  11
ATOM     11  C   UNL     1       4.446   5.299  16.918  0.00  0.00    +0.000 A 
ATOM     12  C   UNL     1       4.209   3.919  16.817  0.00  0.00    +0.000 A 
ATOM     13  C   UNL     1       3.152   3.326  17.509  0.00  0.00    +0.000 A 
ATOM     14  C   UNL     1       2.319   4.110  18.307  0.00  0.00    +0.000 A 
ATOM     15 CL   UNL     1       1.030   3.375  19.178  0.00  0.00    +0.000 Cl
ATOM     16  C   UNL     1       2.535   5.483  18.415  0.00  0.00    +0.000 A 
ATOM     17  C   UNL     1       3.594   6.076  17.721  0.00  0.00    +0.000 A 
ENDBRANCH  10  11
ENDBRANCH   8  10
ENDBRANCH   2   5
BRANCH   1  18
ATOM     18  C   UNL     1      10.132  10.893  19.441  0.00  0.00    +0.000 C 
BRANCH  18  24
ATOM     19  C   UNL     1      10.103  13.012  20.878  0.00  0.00    +0.000 A 
ATOM     20  C   UNL     1       9.582  13.727  21.965  0.00  0.00    +0.000 A 
ATOM     21  C   UNL     1       8.695  13.121  22.855  0.00  0.00    +0.000 A 
ATOM     22  C   UNL     1       8.306  11.802  22.656  0.00  0.00    +0.000 A 
ATOM     23  C   UNL     1       8.796  11.092  21.559  0.00  0.00    +0.000 A 
ATOM     24  C   UNL     1       9.700  11.682  20.655  0.00  0.00    +0.000 A 
BRANCH  19  26
ATOM     25  C   UNL     1      10.372  14.524  19.082  0.00  0.00    +0.000 C 
ATOM     26  O   UNL     1      10.962  13.573  19.966  0.00  0.00    +0.000 OA
ENDBRANCH  19  26
ENDBRANCH  18  24
ENDBRANCH   1  18
TORSDOF 6
ENDMDL
MODEL 6
REMARK VINA RESULT:      -7.0      4.125      9.196
REMARK  Name = 
REMARK  7 active torsions:
REMARK  status: ('A' for Active; 'I' for Inactive)
REMARK    1  A    between atoms: C_1  and  O_2
REMARK    2  A    between atoms: O_2  and  C_3
REMARK    3  A    between atoms: C_8  and  C_9
REMARK    4  A    between atoms: C_9  and  N_10
REMARK    5  A    between atoms: C_11  and  C_13
REMARK    6  A    between atoms: C_16  and  C_17
REMARK    7  A    between atoms: C_17  and  C_18
REMARK                            x       y       z     vdW  Elec       q    Type
REMARK                         _______ _______ _______ _____ _____    ______ ____
ROOT
ATOM      1  N   UNL     1       1.418   8.598  19.438  0.00  0.00    +0.000 N 
ATOM      2  C   UNL     1       2.237   8.201  18.404  0.00  0.00    +0.000 C 
ATOM      3  O   UNL     1       2.372   8.854  17.372  0.00  0.00    +0.000 OA
ATOM      4  H   UNL     1       1.475   8.075  20.303  0.00  0.00    +0.000 HD
ENDROOT
BRANCH   2   5
ATOM      5  C   UNL     1       2.949   6.930  18.613  0.00  0.00    +0.000 A 
ATOM      6  C   UNL     1       2.461   5.950  19.462  0.00  0.00    +0.000 A 
ATOM      7  S   UNL     1       3.505   4.602  19.495  0.00  0.00    +0.000 S 
ATOM      8  C   UNL     1       4.559   5.402  18.394  0.00  0.00    +0.000 A 
ATOM      9  N   UNL     1       4.167   6.602  17.998  0.00  0.00    +0.000 NA
BRANCH   8  10
ATOM     10  C   UNL     1       5.853   4.735  18.007  0.00  0.00    +0.000 C 
BRANCH  10  11
ATOM     11  C   UNL     1       6.057   4.579  16.513  0.00  0.00    +0.000 A 
ATOM     12  C   UNL     1       7.171   5.158  15.885  0.00  0.00    +0.000 A 
ATOM     13  C   UNL     1       7.397   4.970  14.520  0.00  0.00    +0.000 A 
ATOM     14  C   UNL     1       6.507   4.201  13.769  0.00  0.00    +0.000 A 
ATOM     15 CL   UNL     1       6.799   3.950  12.093  0.00  0.00    +0.000 Cl
ATOM     16  C   UNL     1       5.392   3.623  14.374  0.00  0.00    +0.000 A 
ATOM     17  C   UNL     1       5.167   3.813  15.741  0.00  0.00    +0.000 A 
ENDBRANCH  10  11
ENDBRANCH   8  10
ENDBRANCH   2   5
BRANCH   1  18
ATOM     18  C   UNL     1       0.790   9.909  19.425  0.00  0.00    +0.000 C 
BRANCH  18  24
ATOM     19  C   UNL     1      -0.684  11.396  20.897  0.00  0.00    +0.000 A 
ATOM     20  C   UNL     1      -1.339  11.619  22.116  0.00  0.00    +0.000 A 
ATOM     21  C   UNL     1      -1.145  10.757  23.195  0.00  0.00    +0.000 A 
ATOM     22  C   UNL     1      -0.310   9.654  23.060  0.00  0.00    +0.000 A 
ATOM     23  C   UNL     1       0.322   9.407  21.842  0.00  0.00    +0.000 A 
ATOM     24  C   UNL     1       0.147  10.272  20.743  0.00  0.00    +0.000 A 
BRANCH  19  26
ATOM     25  C   UNL     1      -2.159  12.156  19.215  0.00  0.00    +0.000 C 
ATOM     26  O   UNL     1      -0.861  12.206  19.803  0.00  0.00    +0.000 OA
ENDBRANCH  19  26
ENDBRANCH  18  24
ENDBRANCH   1  18
TORSDOF 6
ENDMDL
MODEL 7
REMARK VINA RESULT:      -7.0      1.118      1.311
REMARK  Name = 
REMARK  7 active torsions:
REMARK  status: ('A' for Active; 'I' for Inactive)
REMARK    1  A    between atoms: C_1  and  O_2
REMARK    2  A    between atoms: O_2  and  C_3
REMARK    3  A    between atoms: C_8  and  C_9
REMARK    4  A    between atoms: C_9  and  N_10
REMARK    5  A    between atoms: C_11  and  C_13
REMARK    6  A    between atoms: C_16  and  C_17
REMARK    7  A    between atoms: C_17  and  C_18
REMARK                            x       y       z     vdW  Elec       q    Type
REMARK                         _______ _______ _______ _____ _____    ______ ____
ROOT
ATOM      1  N   UNL     1       3.487   6.137  19.618  0.00  0.00    +0.000 N 
ATOM      2  C   UNL     1       2.169   6.264  19.999  0.00  0.00    +0.000 C 
ATOM      3  O   UNL     1       1.423   5.299  20.147  0.00  0.00    +0.000 OA
ATOM      4  H   UNL     1       4.064   6.969  19.657  0.00  0.00    +0.000 HD
ENDROOT
BRANCH   2   5
ATOM      5  C   UNL     1       1.703   7.642  20.220  0.00  0.00    +0.000 A 
ATOM      6  C   UNL     1       1.417   8.122  21.487  0.00  0.00    +0.000 A 
ATOM      7  S   UNL     1       0.901   9.746  21.419  0.00  0.00    +0.000 S 
ATOM      8  C   UNL     1       1.067   9.717  19.705  0.00  0.00    +0.000 A 
ATOM      9  N   UNL     1       1.497   8.576  19.192  0.00  0.00    +0.000 NA
BRANCH   8  10
ATOM     10  C   UNL     1       0.667  10.934  18.913  0.00  0.00    +0.000 C 
BRANCH  10  11
ATOM     11  C   UNL     1      -0.801  10.986  18.540  0.00  0.00    +0.000 A 
ATOM     12  C   UNL     1      -1.326  10.082  17.603  0.00  0.00    +0.000 A 
ATOM     13  C   UNL     1      -2.688  10.084  17.297  0.00  0.00    +0.000 A 
ATOM     14  C   UNL     1      -3.539  10.994  17.924  0.00  0.00    +0.000 A 
ATOM     15 CL   UNL     1      -5.221  10.981  17.565  0.00  0.00    +0.000 Cl
ATOM     16  C   UNL     1      -3.035  11.903  18.853  0.00  0.00    +0.000 A 
ATOM     17  C   UNL     1      -1.670  11.900  19.158  0.00  0.00    +0.000 A 
ENDBRANCH  10  11
ENDBRANCH   8  10
ENDBRANCH   2   5
BRANCH   1  18
ATOM     18  C   UNL     1       4.110   4.828  19.529  0.00  0.00    +0.000 C 
BRANCH  18  24
ATOM     19  C   UNL     1       6.442   4.960  18.479  0.00  0.00    +0.000 A 
ATOM     20  C   UNL     1       7.291   4.721  17.390  0.00  0.00    +0.000 A 
ATOM     21  C   UNL     1       6.778   4.265  16.175  0.00  0.00    +0.000 A 
ATOM     22  C   UNL     1       5.415   4.027  16.044  0.00  0.00    +0.000 A 
ATOM     23  C   UNL     1       4.567   4.232  17.132  0.00  0.00    +0.000 A 
ATOM     24  C   UNL     1       5.063   4.703  18.363  0.00  0.00    +0.000 A 
BRANCH  19  26
ATOM     25  C   UNL     1       8.310   5.620  19.766  0.00  0.00    +0.000 C 
ATOM     26  O   UNL     1       6.904   5.389  19.698  0.00  0.00    +0.000 OA
ENDBRANCH  19  26
ENDBRANCH  18  24
ENDBRANCH   1  18
TORSDOF 6
ENDMDL
MODEL 8
REMARK VINA RESULT:      -7.0      1.774      3.460
REMARK  Name = 
REMARK  7 active torsions:
REMARK  status: ('A' for Active; 'I' for Inactive)
REMARK    1  A    between atoms: C_1  and  O_2
REMARK    2  A    between atoms: O_2  and  C_3
REMARK    3  A    between atoms: C_8  and  C_9
REMARK    4  A    between atoms: C_9  and  N_10
REMARK    5  A    between atoms: C_11  and  C_13
REMARK    6  A    between atoms: C_16  and  C_17
REMARK    7  A    between atoms: C_17  and  C_18
REMARK                            x       y       z     vdW  Elec       q    Type
REMARK                         _______ _______ _______ _____ _____    ______ ____
ROOT
ATOM      1  N   UNL     1       3.016   6.506  20.095  0.00  0.00    +0.000 N 
ATOM      2  C   UNL     1       2.526   7.305  19.085  0.00  0.00    +0.000 C 
ATOM      3  O   UNL     1       2.787   7.115  17.899  0.00  0.00    +0.000 OA
ATOM      4  H   UNL     1       2.638   6.649  21.024  0.00  0.00    +0.000 HD
ENDROOT
BRANCH   2   5
ATOM      5  C   UNL     1       1.659   8.413  19.517  0.00  0.00    +0.000 A 
ATOM      6  C   UNL     1       1.175   8.500  20.812  0.00  0.00    +0.000 A 
ATOM      7  S   UNL     1       0.203   9.887  21.004  0.00  0.00    +0.000 S 
ATOM      8  C   UNL     1       0.460  10.286  19.349  0.00  0.00    +0.000 A 
ATOM      9  N   UNL     1       1.237   9.454  18.675  0.00  0.00    +0.000 NA
BRANCH   8  10
ATOM     10  C   UNL     1      -0.242  11.487  18.770  0.00  0.00    +0.000 C 
BRANCH  10  11
ATOM     11  C   UNL     1      -1.741  11.323  18.616  0.00  0.00    +0.000 A 
ATOM     12  C   UNL     1      -2.621  12.184  19.291  0.00  0.00    +0.000 A 
ATOM     13  C   UNL     1      -4.001  12.078  19.109  0.00  0.00    +0.000 A 
ATOM     14  C   UNL     1      -4.514  11.105  18.251  0.00  0.00    +0.000 A 
ATOM     15 CL   UNL     1      -6.214  10.990  18.009  0.00  0.00    +0.000 Cl
ATOM     16  C   UNL     1      -3.657  10.237  17.577  0.00  0.00    +0.000 A 
ATOM     17  C   UNL     1      -2.275  10.345  17.761  0.00  0.00    +0.000 A 
ENDBRANCH  10  11
ENDBRANCH   8  10
ENDBRANCH   2   5
BRANCH   1  18
ATOM     18  C   UNL     1       3.745   5.288  19.789  0.00  0.00    +0.000 C 
BRANCH  18  24
ATOM     19  C   UNL     1       3.255   3.269  18.292  0.00  0.00    +0.000 A 
ATOM     20  C   UNL     1       2.428   2.189  17.955  0.00  0.00    +0.000 A 
ATOM     21  C   UNL     1       1.191   2.019  18.577  0.00  0.00    +0.000 A 
ATOM     22  C   UNL     1       0.777   2.915  19.555  0.00  0.00    +0.000 A 
ATOM     23  C   UNL     1       1.607   3.976  19.919  0.00  0.00    +0.000 A 
ATOM     24  C   UNL     1       2.854   4.171  19.296  0.00  0.00    +0.000 A 
BRANCH  19  26
ATOM     25  C   UNL     1       4.482   4.220  16.511  0.00  0.00    +0.000 C 
ATOM     26  O   UNL     1       4.487   3.465  17.721  0.00  0.00    +0.000 OA
ENDBRANCH  19  26
ENDBRANCH  18  24
ENDBRANCH   1  18
TORSDOF 6
ENDMDL
MODEL 9
REMARK VINA RESULT:      -6.9      2.023      3.592
REMARK  Name = 
REMARK  7 active torsions:
REMARK  status: ('A' for Active; 'I' for Inactive)
REMARK    1  A    between atoms: C_1  and  O_2
REMARK    2  A    between atoms: O_2  and  C_3
REMARK    3  A    between atoms: C_8  and  C_9
REMARK    4  A    between atoms: C_9  and  N_10
REMARK    5  A    between atoms: C_11  and  C_13
REMARK    6  A    between atoms: C_16  and  C_17
REMARK    7  A    between atoms: C_17  and  C_18
REMARK                            x       y       z     vdW  Elec       q    Type
REMARK                         _______ _______ _______ _____ _____    ______ ____
ROOT
ATOM      1  N   UNL     1       2.643   6.659  20.251  0.00  0.00    +0.000 N 
ATOM      2  C   UNL     1       2.265   7.747  19.495  0.00  0.00    +0.000 C 
ATOM      3  O   UNL     1       2.717   7.969  18.374  0.00  0.00    +0.000 OA
ATOM      4  H   UNL     1       2.118   6.478  21.098  0.00  0.00    +0.000 HD
ENDROOT
BRANCH   2   5
ATOM      5  C   UNL     1       1.273   8.638  20.118  0.00  0.00    +0.000 A 
ATOM      6  C   UNL     1       1.008   8.599  21.478  0.00  0.00    +0.000 A 
ATOM      7  S   UNL     1      -0.184   9.745  21.896  0.00  0.00    +0.000 S 
ATOM      8  C   UNL     1      -0.299  10.216  20.243  0.00  0.00    +0.000 A 
ATOM      9  N   UNL     1       0.508   9.579  19.411  0.00  0.00    +0.000 NA
BRANCH   8  10
ATOM     10  C   UNL     1      -1.322  11.248  19.848  0.00  0.00    +0.000 C 
BRANCH  10  11
ATOM     11  C   UNL     1      -1.983  10.996  18.508  0.00  0.00    +0.000 A 
ATOM     12  C   UNL     1      -1.425  10.077  17.605  0.00  0.00    +0.000 A 
ATOM     13  C   UNL     1      -2.058   9.796  16.393  0.00  0.00    +0.000 A 
ATOM     14  C   UNL     1      -3.256  10.434  16.071  0.00  0.00    +0.000 A 
ATOM     15 CL   UNL     1      -4.048  10.070  14.588  0.00  0.00    +0.000 Cl
ATOM     16  C   UNL     1      -3.822  11.354  16.953  0.00  0.00    +0.000 A 
ATOM     17  C   UNL     1      -3.186  11.635  18.166  0.00  0.00    +0.000 A 
ENDBRANCH  10  11
ENDBRANCH   8  10
ENDBRANCH   2   5
BRANCH   1  18
ATOM     18  C   UNL     1       3.487   5.621  19.686  0.00  0.00    +0.000 C 
BRANCH  18  24
ATOM     19  C   UNL     1       3.251   3.408  18.420  0.00  0.00    +0.000 A 
ATOM     20  C   UNL     1       2.530   2.233  18.164  0.00  0.00    +0.000 A 
ATOM     21  C   UNL     1       1.265   2.041  18.721  0.00  0.00    +0.000 A 
ATOM     22  C   UNL     1       0.718   3.011  19.553  0.00  0.00    +0.000 A 
ATOM     23  C   UNL     1       1.442   4.169  19.837  0.00  0.00    +0.000 A 
ATOM     24  C   UNL     1       2.716   4.387  19.277  0.00  0.00    +0.000 A 
BRANCH  19  26
ATOM     25  C   UNL     1       4.546   3.972  16.526  0.00  0.00    +0.000 C 
ATOM     26  O   UNL     1       4.506   3.631  17.910  0.00  0.00    +0.000 OA
ENDBRANCH  19  26
ENDBRANCH  18  24
ENDBRANCH   1  18
TORSDOF 6
ENDMDL
