MODEL 1
REMARK VINA RESULT:      -8.2      0.000      0.000
REMARK  Name = 
REMARK  10 active torsions:
REMARK  status: ('A' for Active; 'I' for Inactive)
REMARK    1  A    between atoms: C_1  and  C_2
REMARK    2  A    between atoms: C_2  and  C_3
REMARK    3  A    between atoms: C_3  and  C_4
REMARK    4  A    between atoms: C_3  and  N_5
REMARK    5  A    between atoms: C_6  and  C_8
REMARK    6  A    between atoms: C_10  and  C_11
REMARK    7  A    between atoms: C_12  and  C_13
REMARK    8  A    between atoms: C_15  and  C_16
REMARK    9  A    between atoms: N_18  and  C_19
REMARK   10  A    between atoms: C_25  and  C_26
REMARK                            x       y       z     vdW  Elec       q    Type
REMARK                         _______ _______ _______ _____ _____    ______ ____
ROOT
ATOM      1  C   UNL     1       1.899   6.695  20.238  0.00  0.00    +0.000 A 
ATOM      2  N   UNL     1       1.300   7.595  21.078  0.00  0.00    +0.000 NA
ATOM      3  C   UNL     1       1.047   8.833  20.567  0.00  0.00    +0.000 A 
ATOM      4  C   UNL     1       0.279   9.766  21.456  0.00  0.00    +0.000 C 
ATOM      5  C   UNL     1       1.413   9.181  19.260  0.00  0.00    +0.000 A 
ATOM      6  C   UNL     1       1.097  10.514  18.644  0.00  0.00    +0.000 C 
ATOM      7  N   UNL     1       2.082   8.311  18.453  0.00  0.00    +0.000 NA
ATOM      8  C   UNL     1       2.308   7.056  18.962  0.00  0.00    +0.000 A 
ENDROOT
BRANCH   1  10
ATOM      9  N   UNL     1       0.868   4.482  20.075  0.00  0.00    +0.000 N 
ATOM     10  C   UNL     1       1.826   5.278  20.691  0.00  0.00    +0.000 C 
ATOM     11  O   UNL     1       2.645   4.847  21.495  0.00  0.00    +0.000 OA
ATOM     12  H   UNL     1       0.305   4.912  19.356  0.00  0.00    +0.000 HD
BRANCH   9  13
ATOM     13  C   UNL     1       0.790   3.047  20.305  0.00  0.00    +0.000 C 
ATOM     14  C   UNL     1       1.513   2.620  21.586  0.00  0.00    +0.000 C 
BRANCH  13  16
ATOM     15  C   UNL     1       2.783   1.982  19.043  0.00  0.00    +0.000 C 
ATOM     16  C   UNL     1       1.281   2.239  19.085  0.00  0.00    +0.000 C 
ENDBRANCH  13  16
ENDBRANCH   9  13
ENDBRANCH   1  10
BRANCH   8  17
ATOM     17  C   UNL     1       3.097   6.151  18.076  0.00  0.00    +0.000 C 
ATOM     18  O   UNL     1       2.585   5.143  17.603  0.00  0.00    +0.000 OA
ATOM     19  N   UNL     1       4.444   6.485  17.994  0.00  0.00    +0.000 N 
ATOM     20  H   UNL     1       4.781   6.987  18.812  0.00  0.00    +0.000 HD
BRANCH  19  21
ATOM     21  C   UNL     1       5.382   5.778  17.211  0.00  0.00    +0.000 A 
ATOM     22  C   UNL     1       5.004   5.433  15.909  0.00  0.00    +0.000 A 
ATOM     23  C   UNL     1       5.897   4.762  15.083  0.00  0.00    +0.000 A 
ATOM     24  F   UNL     1       5.539   4.472  13.823  0.00  0.00    +0.000 F 
ATOM     25  C   UNL     1       7.157   4.392  15.532  0.00  0.00    +0.000 A 
ATOM     26  C   UNL     1       7.518   4.680  16.849  0.00  0.00    +0.000 A 
ATOM     27  C   UNL     1       6.633   5.357  17.708  0.00  0.00    +0.000 A 
ATOM     28  C   UNL     1       7.027   5.514  19.154  0.00  0.00    +0.000 C 
ENDBRANCH  19  21
ENDBRANCH   8  17
TORSDOF 5
ENDMDL
MODEL 2
REMARK VINA RESULT:      -8.1      3.289      7.676
REMARK  Name = 
REMARK  10 active torsions:
REMARK  status: ('A' for Active; 'I' for Inactive)
REMARK    1  A    between atoms: C_1  and  C_2
REMARK    2  A    between atoms: C_2  and  C_3
REMARK    3  A    between atoms: C_3  and  C_4
REMARK    4  A    between atoms: C_3  and  N_5
REMARK    5  A    between atoms: C_6  and  C_8
REMARK    6  A    between atoms: C_10  and  C_11
REMARK    7  A    between atoms: C_12  and  C_13
REMARK    8  A    between atoms: C_15  and  C_16
REMARK    9  A    between atoms: N_18  and  C_19
REMARK   10  A    between atoms: C_25  and  C_26
REMARK                            x       y       z     vdW  Elec       q    Type
REMARK                         _______ _______ _______ _____ _____    ______ ____
ROOT
ATOM      1  C   UNL     1       6.686   5.791  16.190  0.00  0.00    +0.000 A 
ATOM      2  N   UNL     1       7.485   6.003  15.099  0.00  0.00    +0.000 NA
ATOM      3  C   UNL     1       7.321   5.154  14.047  0.00  0.00    +0.000 A 
ATOM      4  C   UNL     1       8.112   5.474  12.814  0.00  0.00    +0.000 C 
ATOM      5  C   UNL     1       6.405   4.094  14.090  0.00  0.00    +0.000 A 
ATOM      6  C   UNL     1       6.154   3.175  12.928  0.00  0.00    +0.000 C 
ATOM      7  N   UNL     1       5.668   3.835  15.206  0.00  0.00    +0.000 NA
ATOM      8  C   UNL     1       5.817   4.711  16.253  0.00  0.00    +0.000 A 
ENDROOT
BRANCH   1  10
ATOM      9  N   UNL     1       7.779   7.697  17.266  0.00  0.00    +0.000 N 
ATOM     10  C   UNL     1       6.627   6.930  17.149  0.00  0.00    +0.000 C 
ATOM     11  O   UNL     1       5.574   7.204  17.714  0.00  0.00    +0.000 OA
ATOM     12  H   UNL     1       8.563   7.443  16.685  0.00  0.00    +0.000 HD
BRANCH   9  13
ATOM     13  C   UNL     1       7.813   8.927  18.044  0.00  0.00    +0.000 C 
ATOM     14  C   UNL     1       7.721  10.178  17.165  0.00  0.00    +0.000 C 
BRANCH  13  16
ATOM     15  C   UNL     1       9.445  10.385  19.427  0.00  0.00    +0.000 C 
ATOM     16  C   UNL     1       9.041   8.986  18.978  0.00  0.00    +0.000 C 
ENDBRANCH  13  16
ENDBRANCH   9  13
ENDBRANCH   1  10
BRANCH   8  17
ATOM     17  C   UNL     1       5.043   4.362  17.480  0.00  0.00    +0.000 C 
ATOM     18  O   UNL     1       5.565   3.717  18.382  0.00  0.00    +0.000 OA
ATOM     19  N   UNL     1       3.695   4.693  17.403  0.00  0.00    +0.000 N 
ATOM     20  H   UNL     1       3.347   4.728  16.447  0.00  0.00    +0.000 HD
BRANCH  19  21
ATOM     21  C   UNL     1       2.770   4.466  18.443  0.00  0.00    +0.000 A 
ATOM     22  C   UNL     1       2.584   5.491  19.376  0.00  0.00    +0.000 A 
ATOM     23  C   UNL     1       1.664   5.334  20.406  0.00  0.00    +0.000 A 
ATOM     24  F   UNL     1       1.466   6.339  21.272  0.00  0.00    +0.000 F 
ATOM     25  C   UNL     1       0.941   4.158  20.554  0.00  0.00    +0.000 A 
ATOM     26  C   UNL     1       1.164   3.109  19.661  0.00  0.00    +0.000 A 
ATOM     27  C   UNL     1       2.091   3.240  18.611  0.00  0.00    +0.000 A 
ATOM     28  C   UNL     1       2.387   2.026  17.769  0.00  0.00    +0.000 C 
ENDBRANCH  19  21
ENDBRANCH   8  17
TORSDOF 5
ENDMDL
MODEL 3
REMARK VINA RESULT:      -8.1      3.162      7.551
REMARK  Name = 
REMARK  10 active torsions:
REMARK  status: ('A' for Active; 'I' for Inactive)
REMARK    1  A    between atoms: C_1  and  C_2
REMARK    2  A    between atoms: C_2  and  C_3
REMARK    3  A    between atoms: C_3  and  C_4
REMARK    4  A    between atoms: C_3  and  N_5
REMARK    5  A    between atoms: C_6  and  C_8
REMARK    6  A    between atoms: C_10  and  C_11
REMARK    7  A    between atoms: C_12  and  C_13
REMARK    8  A    between atoms: C_15  and  C_16
REMARK    9  A    between atoms: N_18  and  C_19
REMARK   10  A    between atoms: C_25  and  C_26
REMARK                            x       y       z     vdW  Elec       q    Type
REMARK                         _______ _______ _______ _____ _____    ______ ____
ROOT
ATOM      1  C   UNL     1       6.774   5.551  16.163  0.00  0.00    +0.000 A 
ATOM      2  N   UNL     1       7.605   5.800  15.103  0.00  0.00    +0.000 NA
ATOM      3  C   UNL     1       7.359   5.105  13.958  0.00  0.00    +0.000 A 
ATOM      4  C   UNL     1       8.195   5.478  12.770  0.00  0.00    +0.000 C 
ATOM      5  C   UNL     1       6.331   4.156  13.876  0.00  0.00    +0.000 A 
ATOM      6  C   UNL     1       5.992   3.415  12.614  0.00  0.00    +0.000 C 
ATOM      7  N   UNL     1       5.558   3.850  14.956  0.00  0.00    +0.000 NA
ATOM      8  C   UNL     1       5.791   4.575  16.099  0.00  0.00    +0.000 A 
ENDROOT
BRANCH   1  10
ATOM      9  N   UNL     1       7.659   7.661  17.030  0.00  0.00    +0.000 N 
ATOM     10  C   UNL     1       6.832   6.568  17.251  0.00  0.00    +0.000 C 
ATOM     11  O   UNL     1       6.102   6.462  18.230  0.00  0.00    +0.000 OA
ATOM     12  H   UNL     1       8.147   7.700  16.147  0.00  0.00    +0.000 HD
BRANCH   9  13
ATOM     13  C   UNL     1       7.692   8.802  17.933  0.00  0.00    +0.000 C 
ATOM     14  C   UNL     1       7.584  10.138  17.193  0.00  0.00    +0.000 C 
BRANCH  13  16
ATOM     15  C   UNL     1       9.365  10.127  19.399  0.00  0.00    +0.000 C 
ATOM     16  C   UNL     1       8.928   8.771  18.858  0.00  0.00    +0.000 C 
ENDBRANCH  13  16
ENDBRANCH   9  13
ENDBRANCH   1  10
BRANCH   8  17
ATOM     17  C   UNL     1       4.969   4.171  17.277  0.00  0.00    +0.000 C 
ATOM     18  O   UNL     1       5.453   3.481  18.166  0.00  0.00    +0.000 OA
ATOM     19  N   UNL     1       3.626   4.514  17.165  0.00  0.00    +0.000 N 
ATOM     20  H   UNL     1       3.315   4.597  16.199  0.00  0.00    +0.000 HD
BRANCH  19  21
ATOM     21  C   UNL     1       2.661   4.242  18.157  0.00  0.00    +0.000 A 
ATOM     22  C   UNL     1       1.926   3.058  18.034  0.00  0.00    +0.000 A 
ATOM     23  C   UNL     1       0.982   2.724  18.997  0.00  0.00    +0.000 A 
ATOM     24  F   UNL     1       0.312   1.566  18.890  0.00  0.00    +0.000 F 
ATOM     25  C   UNL     1       0.722   3.561  20.073  0.00  0.00    +0.000 A 
ATOM     26  C   UNL     1       1.408   4.772  20.170  0.00  0.00    +0.000 A 
ATOM     27  C   UNL     1       2.368   5.137  19.208  0.00  0.00    +0.000 A 
ATOM     28  C   UNL     1       2.971   6.515  19.293  0.00  0.00    +0.000 C 
ENDBRANCH  19  21
ENDBRANCH   8  17
TORSDOF 5
ENDMDL
MODEL 4
REMARK VINA RESULT:      -8.1      3.845      7.591
REMARK  Name = 
REMARK  10 active torsions:
REMARK  status: ('A' for Active; 'I' for Inactive)
REMARK    1  A    between atoms: C_1  and  C_2
REMARK    2  A    between atoms: C_2  and  C_3
REMARK    3  A    between atoms: C_3  and  C_4
REMARK    4  A    between atoms: C_3  and  N_5
REMARK    5  A    between atoms: C_6  and  C_8
REMARK    6  A    between atoms: C_10  and  C_11
REMARK    7  A    between atoms: C_12  and  C_13
REMARK    8  A    between atoms: C_15  and  C_16
REMARK    9  A    between atoms: N_18  and  C_19
REMARK   10  A    between atoms: C_25  and  C_26
REMARK                            x       y       z     vdW  Elec       q    Type
REMARK                         _______ _______ _______ _____ _____    ______ ____
ROOT
ATOM      1  C   UNL     1       6.605   4.342  15.344  0.00  0.00    +0.000 A 
ATOM      2  N   UNL     1       7.281   4.028  14.195  0.00  0.00    +0.000 NA
ATOM      3  C   UNL     1       6.523   3.775  13.091  0.00  0.00    +0.000 A 
ATOM      4  C   UNL     1       7.277   3.557  11.813  0.00  0.00    +0.000 C 
ATOM      5  C   UNL     1       5.123   3.799  13.134  0.00  0.00    +0.000 A 
ATOM      6  C   UNL     1       4.257   3.585  11.926  0.00  0.00    +0.000 C 
ATOM      7  N   UNL     1       4.451   4.031  14.297  0.00  0.00    +0.000 NA
ATOM      8  C   UNL     1       5.219   4.314  15.400  0.00  0.00    +0.000 A 
ENDROOT
BRANCH   1  10
ATOM      9  N   UNL     1       7.306   6.331  16.583  0.00  0.00    +0.000 N 
ATOM     10  C   UNL     1       7.443   4.961  16.409  0.00  0.00    +0.000 C 
ATOM     11  O   UNL     1       8.132   4.254  17.136  0.00  0.00    +0.000 OA
ATOM     12  H   UNL     1       6.640   6.807  15.992  0.00  0.00    +0.000 HD
BRANCH   9  13
ATOM     13  C   UNL     1       7.943   7.040  17.684  0.00  0.00    +0.000 C 
ATOM     14  C   UNL     1       7.714   6.351  19.032  0.00  0.00    +0.000 C 
BRANCH  13  16
ATOM     15  C   UNL     1       8.604   9.483  18.228  0.00  0.00    +0.000 C 
ATOM     16  C   UNL     1       7.526   8.525  17.733  0.00  0.00    +0.000 C 
ENDBRANCH  13  16
ENDBRANCH   9  13
ENDBRANCH   1  10
BRANCH   8  17
ATOM     17  C   UNL     1       4.454   4.501  16.667  0.00  0.00    +0.000 C 
ATOM     18  O   UNL     1       4.385   5.605  17.195  0.00  0.00    +0.000 OA
ATOM     19  N   UNL     1       3.997   3.312  17.225  0.00  0.00    +0.000 N 
ATOM     20  H   UNL     1       4.561   2.507  16.962  0.00  0.00    +0.000 HD
BRANCH  19  21
ATOM     21  C   UNL     1       3.245   3.241  18.415  0.00  0.00    +0.000 A 
ATOM     22  C   UNL     1       3.832   2.603  19.513  0.00  0.00    +0.000 A 
ATOM     23  C   UNL     1       3.149   2.528  20.720  0.00  0.00    +0.000 A 
ATOM     24  F   UNL     1       3.739   1.949  21.777  0.00  0.00    +0.000 F 
ATOM     25  C   UNL     1       1.870   3.048  20.859  0.00  0.00    +0.000 A 
ATOM     26  C   UNL     1       1.254   3.634  19.752  0.00  0.00    +0.000 A 
ATOM     27  C   UNL     1       1.922   3.721  18.516  0.00  0.00    +0.000 A 
ATOM     28  C   UNL     1       1.152   4.237  17.328  0.00  0.00    +0.000 C 
ENDBRANCH  19  21
ENDBRANCH   8  17
TORSDOF 5
ENDMDL
MODEL 5
REMARK VINA RESULT:      -7.9      4.148      7.479
REMARK  Name = 
REMARK  10 active torsions:
REMARK  status: ('A' for Active; 'I' for Inactive)
REMARK    1  A    between atoms: C_1  and  C_2
REMARK    2  A    between atoms: C_2  and  C_3
REMARK    3  A    between atoms: C_3  and  C_4
REMARK    4  A    between atoms: C_3  and  N_5
REMARK    5  A    between atoms: C_6  and  C_8
REMARK    6  A    between atoms: C_10  and  C_11
REMARK    7  A    between atoms: C_12  and  C_13
REMARK    8  A    between atoms: C_15  and  C_16
REMARK    9  A    between atoms: N_18  and  C_19
REMARK   10  A    between atoms: C_25  and  C_26
REMARK                            x       y       z     vdW  Elec       q    Type
REMARK                         _______ _______ _______ _____ _____    ______ ____
ROOT
ATOM      1  C   UNL     1       6.650   4.335  15.175  0.00  0.00    +0.000 A 
ATOM      2  N   UNL     1       7.369   4.109  14.032  0.00  0.00    +0.000 NA
ATOM      3  C   UNL     1       6.653   3.874  12.896  0.00  0.00    +0.000 A 
ATOM      4  C   UNL     1       7.450   3.754  11.632  0.00  0.00    +0.000 C 
ATOM      5  C   UNL     1       5.253   3.830  12.902  0.00  0.00    +0.000 A 
ATOM      6  C   UNL     1       4.430   3.633  11.661  0.00  0.00    +0.000 C 
ATOM      7  N   UNL     1       4.541   3.974  14.055  0.00  0.00    +0.000 NA
ATOM      8  C   UNL     1       5.266   4.239  15.191  0.00  0.00    +0.000 A 
ENDROOT
BRANCH   1  10
ATOM      9  N   UNL     1       7.288   6.311  16.470  0.00  0.00    +0.000 N 
ATOM     10  C   UNL     1       7.430   4.941  16.291  0.00  0.00    +0.000 C 
ATOM     11  O   UNL     1       8.075   4.225  17.049  0.00  0.00    +0.000 OA
ATOM     12  H   UNL     1       6.656   6.794  15.848  0.00  0.00    +0.000 HD
BRANCH   9  13
ATOM     13  C   UNL     1       7.864   7.006  17.611  0.00  0.00    +0.000 C 
ATOM     14  C   UNL     1       7.540   6.318  18.940  0.00  0.00    +0.000 C 
BRANCH  13  16
ATOM     15  C   UNL     1       8.520   9.435  18.223  0.00  0.00    +0.000 C 
ATOM     16  C   UNL     1       7.468   8.498  17.639  0.00  0.00    +0.000 C 
ENDBRANCH  13  16
ENDBRANCH   9  13
ENDBRANCH   1  10
BRANCH   8  17
ATOM     17  C   UNL     1       4.461   4.329  16.444  0.00  0.00    +0.000 C 
ATOM     18  O   UNL     1       4.237   5.416  16.963  0.00  0.00    +0.000 OA
ATOM     19  N   UNL     1       4.157   3.092  17.002  0.00  0.00    +0.000 N 
ATOM     20  H   UNL     1       4.827   2.368  16.755  0.00  0.00    +0.000 HD
BRANCH  19  21
ATOM     21  C   UNL     1       3.399   2.928  18.181  0.00  0.00    +0.000 A 
ATOM     22  C   UNL     1       2.029   2.684  18.038  0.00  0.00    +0.000 A 
ATOM     23  C   UNL     1       1.238   2.486  19.163  0.00  0.00    +0.000 A 
ATOM     24  F   UNL     1      -0.067   2.214  19.012  0.00  0.00    +0.000 F 
ATOM     25  C   UNL     1       1.773   2.557  20.442  0.00  0.00    +0.000 A 
ATOM     26  C   UNL     1       3.127   2.858  20.594  0.00  0.00    +0.000 A 
ATOM     27  C   UNL     1       3.950   3.066  19.472  0.00  0.00    +0.000 A 
ATOM     28  C   UNL     1       5.367   3.524  19.706  0.00  0.00    +0.000 C 
ENDBRANCH  19  21
ENDBRANCH   8  17
TORSDOF 5
ENDMDL
MODEL 6
REMARK VINA RESULT:      -7.8      2.676      6.199
REMARK  Name = 
REMARK  10 active torsions:
REMARK  status: ('A' for Active; 'I' for Inactive)
REMARK    1  A    between atoms: C_1  and  C_2
REMARK    2  A    between atoms: C_2  and  C_3
REMARK    3  A    between atoms: C_3  and  C_4
REMARK    4  A    between atoms: C_3  and  N_5
REMARK    5  A    between atoms: C_6  and  C_8
REMARK    6  A    between atoms: C_10  and  C_11
REMARK    7  A    between atoms: C_12  and  C_13
REMARK    8  A    between atoms: C_15  and  C_16
REMARK    9  A    between atoms: N_18  and  C_19
REMARK   10  A    between atoms: C_25  and  C_26
REMARK                            x       y       z     vdW  Elec       q    Type
REMARK                         _______ _______ _______ _____ _____    ______ ____
ROOT
ATOM      1  C   UNL     1       4.009   4.598  17.391  0.00  0.00    +0.000 A 
ATOM      2  N   UNL     1       5.163   4.117  16.834  0.00  0.00    +0.000 NA
ATOM      3  C   UNL     1       6.233   4.961  16.819  0.00  0.00    +0.000 A 
ATOM      4  C   UNL     1       7.522   4.379  16.321  0.00  0.00    +0.000 C 
ATOM      5  C   UNL     1       6.148   6.269  17.315  0.00  0.00    +0.000 A 
ATOM      6  C   UNL     1       7.320   7.207  17.370  0.00  0.00    +0.000 C 
ATOM      7  N   UNL     1       4.977   6.774  17.795  0.00  0.00    +0.000 NA
ATOM      8  C   UNL     1       3.910   5.909  17.835  0.00  0.00    +0.000 A 
ENDROOT
BRANCH   1  10
ATOM      9  N   UNL     1       2.775   3.319  19.073  0.00  0.00    +0.000 N 
ATOM     10  C   UNL     1       2.997   3.556  17.723  0.00  0.00    +0.000 C 
ATOM     11  O   UNL     1       2.345   3.027  16.829  0.00  0.00    +0.000 OA
ATOM     12  H   UNL     1       3.299   3.877  19.731  0.00  0.00    +0.000 HD
BRANCH   9  13
ATOM     13  C   UNL     1       1.709   2.445  19.540  0.00  0.00    +0.000 C 
ATOM     14  C   UNL     1       0.367   2.749  18.867  0.00  0.00    +0.000 C 
BRANCH  13  16
ATOM     15  C   UNL     1       2.261   3.637  21.771  0.00  0.00    +0.000 C 
ATOM     16  C   UNL     1       1.583   2.460  21.079  0.00  0.00    +0.000 C 
ENDBRANCH  13  16
ENDBRANCH   9  13
ENDBRANCH   1  10
BRANCH   8  17
ATOM     17  C   UNL     1       2.630   6.513  18.307  0.00  0.00    +0.000 C 
ATOM     18  O   UNL     1       1.556   6.109  17.877  0.00  0.00    +0.000 OA
ATOM     19  N   UNL     1       2.805   7.630  19.117  0.00  0.00    +0.000 N 
ATOM     20  H   UNL     1       3.684   8.112  18.946  0.00  0.00    +0.000 HD
BRANCH  19  21
ATOM     21  C   UNL     1       1.741   8.360  19.687  0.00  0.00    +0.000 A 
ATOM     22  C   UNL     1       1.206   7.888  20.890  0.00  0.00    +0.000 A 
ATOM     23  C   UNL     1       0.176   8.583  21.512  0.00  0.00    +0.000 A 
ATOM     24  F   UNL     1      -0.302   8.143  22.685  0.00  0.00    +0.000 F 
ATOM     25  C   UNL     1      -0.365   9.729  20.946  0.00  0.00    +0.000 A 
ATOM     26  C   UNL     1       0.123  10.172  19.716  0.00  0.00    +0.000 A 
ATOM     27  C   UNL     1       1.164   9.487  19.063  0.00  0.00    +0.000 A 
ATOM     28  C   UNL     1       1.549   9.934  17.677  0.00  0.00    +0.000 C 
ENDBRANCH  19  21
ENDBRANCH   8  17
TORSDOF 5
ENDMDL
MODEL 7
REMARK VINA RESULT:      -7.7      2.450      5.991
REMARK  Name = 
REMARK  10 active torsions:
REMARK  status: ('A' for Active; 'I' for Inactive)
REMARK    1  A    between atoms: C_1  and  C_2
REMARK    2  A    between atoms: C_2  and  C_3
REMARK    3  A    between atoms: C_3  and  C_4
REMARK    4  A    between atoms: C_3  and  N_5
REMARK    5  A    between atoms: C_6  and  C_8
REMARK    6  A    between atoms: C_10  and  C_11
REMARK    7  A    between atoms: C_12  and  C_13
REMARK    8  A    between atoms: C_15  and  C_16
REMARK    9  A    between atoms: N_18  and  C_19
REMARK   10  A    between atoms: C_25  and  C_26
REMARK                            x       y       z     vdW  Elec       q    Type
REMARK                         _______ _______ _______ _____ _____    ______ ____
ROOT
ATOM      1  C   UNL     1       3.987   4.654  17.392  0.00  0.00    +0.000 A 
ATOM      2  N   UNL     1       5.162   4.187  16.865  0.00  0.00    +0.000 NA
ATOM      3  C   UNL     1       6.212   5.055  16.848  0.00  0.00    +0.000 A 
ATOM      4  C   UNL     1       7.522   4.492  16.385  0.00  0.00    +0.000 C 
ATOM      5  C   UNL     1       6.089   6.371  17.313  0.00  0.00    +0.000 A 
ATOM      6  C   UNL     1       7.238   7.337  17.366  0.00  0.00    +0.000 C 
ATOM      7  N   UNL     1       4.898   6.859  17.762  0.00  0.00    +0.000 NA
ATOM      8  C   UNL     1       3.851   5.971  17.804  0.00  0.00    +0.000 A 
ENDROOT
BRANCH   1  10
ATOM      9  N   UNL     1       2.872   3.271  19.074  0.00  0.00    +0.000 N 
ATOM     10  C   UNL     1       2.993   3.596  17.730  0.00  0.00    +0.000 C 
ATOM     11  O   UNL     1       2.271   3.130  16.855  0.00  0.00    +0.000 OA
ATOM     12  H   UNL     1       3.449   3.782  19.726  0.00  0.00    +0.000 HD
BRANCH   9  13
ATOM     13  C   UNL     1       1.836   2.373  19.563  0.00  0.00    +0.000 C 
ATOM     14  C   UNL     1       0.511   2.548  18.816  0.00  0.00    +0.000 C 
BRANCH  13  16
ATOM     15  C   UNL     1       2.238   3.744  21.721  0.00  0.00    +0.000 C 
ATOM     16  C   UNL     1       1.642   2.491  21.090  0.00  0.00    +0.000 C 
ENDBRANCH  13  16
ENDBRANCH   9  13
ENDBRANCH   1  10
BRANCH   8  17
ATOM     17  C   UNL     1       2.550   6.556  18.241  0.00  0.00    +0.000 C 
ATOM     18  O   UNL     1       1.521   5.892  18.191  0.00  0.00    +0.000 OA
ATOM     19  N   UNL     1       2.618   7.913  18.536  0.00  0.00    +0.000 N 
ATOM     20  H   UNL     1       3.370   8.390  18.044  0.00  0.00    +0.000 HD
BRANCH  19  21
ATOM     21  C   UNL     1       1.517   8.677  18.977  0.00  0.00    +0.000 A 
ATOM     22  C   UNL     1       0.896   9.511  18.041  0.00  0.00    +0.000 A 
ATOM     23  C   UNL     1      -0.211  10.265  18.411  0.00  0.00    +0.000 A 
ATOM     24  F   UNL     1      -0.823  11.030  17.495  0.00  0.00    +0.000 F 
ATOM     25  C   UNL     1      -0.702  10.238  19.709  0.00  0.00    +0.000 A 
ATOM     26  C   UNL     1      -0.050   9.454  20.662  0.00  0.00    +0.000 A 
ATOM     27  C   UNL     1       1.074   8.682  20.316  0.00  0.00    +0.000 A 
ATOM     28  C   UNL     1       1.813   7.969  21.419  0.00  0.00    +0.000 C 
ENDBRANCH  19  21
ENDBRANCH   8  17
TORSDOF 5
ENDMDL
MODEL 8
REMARK VINA RESULT:      -7.7      1.126      1.286
REMARK  Name = 
REMARK  10 active torsions:
REMARK  status: ('A' for Active; 'I' for Inactive)
REMARK    1  A    between atoms: C_1  and  C_2
REMARK    2  A    between atoms: C_2  and  C_3
REMARK    3  A    between atoms: C_3  and  C_4
REMARK    4  A    between atoms: C_3  and  N_5
REMARK    5  A    between atoms: C_6  and  C_8
REMARK    6  A    between atoms: C_10  and  C_11
REMARK    7  A    between atoms: C_12  and  C_13
REMARK    8  A    between atoms: C_15  and  C_16
REMARK    9  A    between atoms: N_18  and  C_19
REMARK   10  A    between atoms: C_25  and  C_26
REMARK                            x       y       z     vdW  Elec       q    Type
REMARK                         _______ _______ _______ _____ _____    ______ ____
ROOT
ATOM      1  C   UNL     1       1.926   6.689  19.876  0.00  0.00    +0.000 A 
ATOM      2  N   UNL     1       1.124   7.101  20.906  0.00  0.00    +0.000 NA
ATOM      3  C   UNL     1       0.761   8.415  20.909  0.00  0.00    +0.000 A 
ATOM      4  C   UNL     1      -0.216   8.823  21.971  0.00  0.00    +0.000 C 
ATOM      5  C   UNL     1       1.214   9.308  19.929  0.00  0.00    +0.000 A 
ATOM      6  C   UNL     1       0.787  10.747  19.866  0.00  0.00    +0.000 C 
ATOM      7  N   UNL     1       2.077   8.914  18.951  0.00  0.00    +0.000 NA
ATOM      8  C   UNL     1       2.416   7.583  18.936  0.00  0.00    +0.000 A 
ENDROOT
BRANCH   1  10
ATOM      9  N   UNL     1       2.401   4.475  20.804  0.00  0.00    +0.000 N 
ATOM     10  C   UNL     1       1.998   5.211  19.698  0.00  0.00    +0.000 C 
ATOM     11  O   UNL     1       1.622   4.700  18.649  0.00  0.00    +0.000 OA
ATOM     12  H   UNL     1       2.599   4.987  21.651  0.00  0.00    +0.000 HD
BRANCH   9  13
ATOM     13  C   UNL     1       2.367   3.020  20.820  0.00  0.00    +0.000 C 
ATOM     14  C   UNL     1       1.682   2.466  22.073  0.00  0.00    +0.000 C 
BRANCH  13  16
ATOM     15  C   UNL     1       4.204   2.228  19.178  0.00  0.00    +0.000 C 
ATOM     16  C   UNL     1       3.770   2.406  20.628  0.00  0.00    +0.000 C 
ENDBRANCH  13  16
ENDBRANCH   9  13
ENDBRANCH   1  10
BRANCH   8  17
ATOM     17  C   UNL     1       3.410   7.201  17.891  0.00  0.00    +0.000 C 
ATOM     18  O   UNL     1       3.456   7.804  16.825  0.00  0.00    +0.000 OA
ATOM     19  N   UNL     1       4.118   6.042  18.191  0.00  0.00    +0.000 N 
ATOM     20  H   UNL     1       3.613   5.417  18.815  0.00  0.00    +0.000 HD
BRANCH  19  21
ATOM     21  C   UNL     1       5.114   5.493  17.357  0.00  0.00    +0.000 A 
ATOM     22  C   UNL     1       4.720   5.042  16.093  0.00  0.00    +0.000 A 
ATOM     23  C   UNL     1       5.663   4.517  15.218  0.00  0.00    +0.000 A 
ATOM     24  F   UNL     1       5.281   4.125  13.993  0.00  0.00    +0.000 F 
ATOM     25  C   UNL     1       6.997   4.397  15.582  0.00  0.00    +0.000 A 
ATOM     26  C   UNL     1       7.387   4.790  16.864  0.00  0.00    +0.000 A 
ATOM     27  C   UNL     1       6.452   5.322  17.771  0.00  0.00    +0.000 A 
ATOM     28  C   UNL     1       6.908   5.596  19.181  0.00  0.00    +0.000 C 
ENDBRANCH  19  21
ENDBRANCH   8  17
TORSDOF 5
ENDMDL
MODEL 9
REMARK VINA RESULT:      -7.7      1.034      1.398
REMARK  Name = 
REMARK  10 active torsions:
REMARK  status: ('A' for Active; 'I' for Inactive)
REMARK    1  A    between atoms: C_1  and  C_2
REMARK    2  A    between atoms: C_2  and  C_3
REMARK    3  A    between atoms: C_3  and  C_4
REMARK    4  A    between atoms: C_3  and  N_5
REMARK    5  A    between atoms: C_6  and  C_8
REMARK    6  A    between atoms: C_10  and  C_11
REMARK    7  A    between atoms: C_12  and  C_13
REMARK    8  A    between atoms: C_15  and  C_16
REMARK    9  A    between atoms: N_18  and  C_19
REMARK   10  A    between atoms: C_25  and  C_26
REMARK                            x       y       z     vdW  Elec       q    Type
REMARK                         _______ _______ _______ _____ _____    ______ ____
ROOT
ATOM      1  C   UNL     1       2.354   6.939  19.802  0.00  0.00    +0.000 A 
ATOM      2  N   UNL     1       1.554   7.394  20.816  0.00  0.00    +0.000 NA
ATOM      3  C   UNL     1       0.915   8.579  20.606  0.00  0.00    +0.000 A 
ATOM      4  C   UNL     1      -0.052   9.001  21.671  0.00  0.00    +0.000 C 
ATOM      5  C   UNL     1       1.093   9.314  19.427  0.00  0.00    +0.000 A 
ATOM      6  C   UNL     1       0.361  10.593  19.135  0.00  0.00    +0.000 C 
ATOM      7  N   UNL     1       1.952   8.901  18.453  0.00  0.00    +0.000 NA
ATOM      8  C   UNL     1       2.571   7.692  18.657  0.00  0.00    +0.000 A 
ENDROOT
BRANCH   1  10
ATOM      9  N   UNL     1       1.883   4.593  19.290  0.00  0.00    +0.000 N 
ATOM     10  C   UNL     1       2.733   5.502  19.906  0.00  0.00    +0.000 C 
ATOM     11  O   UNL     1       3.795   5.183  20.431  0.00  0.00    +0.000 OA
ATOM     12  H   UNL     1       1.083   4.968  18.802  0.00  0.00    +0.000 HD
BRANCH   9  13
ATOM     13  C   UNL     1       2.211   3.179  19.178  0.00  0.00    +0.000 C 
ATOM     14  C   UNL     1       2.173   2.683  17.729  0.00  0.00    +0.000 C 
BRANCH  13  16
ATOM     15  C   UNL     1       1.463   2.592  21.586  0.00  0.00    +0.000 C 
ATOM     16  C   UNL     1       1.327   2.307  20.094  0.00  0.00    +0.000 C 
ENDBRANCH  13  16
ENDBRANCH   9  13
ENDBRANCH   1  10
BRANCH   8  17
ATOM     17  C   UNL     1       3.549   7.301  17.601  0.00  0.00    +0.000 C 
ATOM     18  O   UNL     1       3.627   7.939  16.558  0.00  0.00    +0.000 OA
ATOM     19  N   UNL     1       4.203   6.101  17.862  0.00  0.00    +0.000 N 
ATOM     20  H   UNL     1       3.668   5.479  18.463  0.00  0.00    +0.000 HD
BRANCH  19  21
ATOM     21  C   UNL     1       5.176   5.536  17.011  0.00  0.00    +0.000 A 
ATOM     22  C   UNL     1       4.739   5.015  15.789  0.00  0.00    +0.000 A 
ATOM     23  C   UNL     1       5.656   4.471  14.898  0.00  0.00    +0.000 A 
ATOM     24  F   UNL     1       5.230   4.011  13.712  0.00  0.00    +0.000 F 
ATOM     25  C   UNL     1       7.007   4.401  15.207  0.00  0.00    +0.000 A 
ATOM     26  C   UNL     1       7.442   4.866  16.449  0.00  0.00    +0.000 A 
ATOM     27  C   UNL     1       6.535   5.418  17.371  0.00  0.00    +0.000 A 
ATOM     28  C   UNL     1       7.044   5.771  18.745  0.00  0.00    +0.000 C 
ENDBRANCH  19  21
ENDBRANCH   8  17
TORSDOF 5
ENDMDL
