MODEL 1
REMARK VINA RESULT:      -9.2      0.000      0.000
REMARK  Name = 
REMARK  5 active torsions:
REMARK  status: ('A' for Active; 'I' for Inactive)
REMARK    1  A    between atoms: C_4  and  C_5
REMARK    2  A    between atoms: C_4  and  C_7
REMARK    3  A    between atoms: C_9  and  O_10
REMARK    4  A    between atoms: O_10  and  C_11
REMARK    5  A    between atoms: C_24  and  C_25
REMARK                            x       y       z     vdW  Elec       q    Type
REMARK                         _______ _______ _______ _____ _____    ______ ____
ROOT
ATOM      1  C   UNL     1       3.364   5.169  18.916  0.00  0.00    +0.000 A 
ATOM      2  C   UNL     1       3.003   6.527  18.775  0.00  0.00    +0.000 A 
ATOM      3  C   UNL     1       2.100   7.142  19.655  0.00  0.00    +0.000 A 
ATOM      4  C   UNL     1       1.519   6.393  20.680  0.00  0.00    +0.000 A 
ATOM      5  C   UNL     1       1.877   5.060  20.855  0.00  0.00    +0.000 A 
ATOM      6  C   UNL     1       2.784   4.462  19.980  0.00  0.00    +0.000 A 
ATOM      7  F   UNL     1       3.071   3.168  20.168  0.00  0.00    +0.000 F 
ENDROOT
BRANCH   1  11
ATOM      8  N   UNL     1       5.356   6.725  15.212  0.00  0.00    +0.000 N 
ATOM      9  C   UNL     1       5.298   6.017  16.358  0.00  0.00    +0.000 C 
ATOM     10  N   UNL     1       4.346   5.209  16.628  0.00  0.00    +0.000 NA
ATOM     11  C   UNL     1       4.315   4.483  17.915  0.00  0.00    +0.000 C 
ATOM     12  C   UNL     1       5.756   4.347  18.430  0.00  0.00    +0.000 C 
ATOM     13  C   UNL     1       6.385   5.728  18.464  0.00  0.00    +0.000 C 
ATOM     14  O   UNL     1       6.365   6.284  17.134  0.00  0.00    +0.000 OA
ATOM     15  H   UNL     1       4.793   6.344  14.462  0.00  0.00    +0.000 HD
ATOM     16  H   UNL     1       6.283   7.029  14.945  0.00  0.00    +0.000 HD
BRANCH  13  17
ATOM     17  C   UNL     1       7.807   5.706  19.035  0.00  0.00    +0.000 C 
ATOM     18  F   UNL     1       8.551   4.691  18.536  0.00  0.00    +0.000 F 
ATOM     19  F   UNL     1       8.483   6.852  18.794  0.00  0.00    +0.000 F 
ATOM     20  F   UNL     1       7.771   5.543  20.380  0.00  0.00    +0.000 F 
ENDBRANCH  13  17
BRANCH  11  21
ATOM     21  C   UNL     1       3.760   3.062  17.620  0.00  0.00    +0.000 C 
ATOM     22  F   UNL     1       2.607   3.148  16.894  0.00  0.00    +0.000 F 
ENDBRANCH  11  21
ENDBRANCH   1  11
BRANCH   3  23
ATOM     23  O   UNL     1       1.776   8.456  19.394  0.00  0.00    +0.000 OA
BRANCH  23  24
ATOM     24  C   UNL     1       1.006   9.142  20.322  0.00  0.00    +0.000 A 
ATOM     25  N   UNL     1       1.305   9.040  21.641  0.00  0.00    +0.000 NA
ATOM     26  C   UNL     1       0.507   9.708  22.504  0.00  0.00    +0.000 A 
ATOM     27  C   UNL     1      -0.564  10.503  22.106  0.00  0.00    +0.000 A 
ATOM     28 CL   UNL     1      -1.525  11.315  23.268  0.00  0.00    +0.000 Cl
ATOM     29  C   UNL     1      -0.836  10.619  20.749  0.00  0.00    +0.000 A 
ATOM     30  C   UNL     1      -0.037   9.930  19.840  0.00  0.00    +0.000 A 
ATOM     31  F   UNL     1      -0.296  10.019  18.529  0.00  0.00    +0.000 F 
ENDBRANCH  23  24
ENDBRANCH   3  23
TORSDOF 5
ENDMDL
MODEL 2
REMARK VINA RESULT:      -9.1      1.402      1.531
REMARK  Name = 
REMARK  5 active torsions:
REMARK  status: ('A' for Active; 'I' for Inactive)
REMARK    1  A    between atoms: C_4  and  C_5
REMARK    2  A    between atoms: C_4  and  C_7
REMARK    3  A    between atoms: C_9  and  O_10
REMARK    4  A    between atoms: O_10  and  C_11
REMARK    5  A    between atoms: C_24  and  C_25
REMARK                            x       y       z     vdW  Elec       q    Type
REMARK                         _______ _______ _______ _____ _____    ______ ____
ROOT
ATOM      1  C   UNL     1       3.219   6.014  18.728  0.00  0.00    +0.000 A 
ATOM      2  C   UNL     1       2.896   7.265  18.157  0.00  0.00    +0.000 A 
ATOM      3  C   UNL     1       2.098   8.197  18.836  0.00  0.00    +0.000 A 
ATOM      4  C   UNL     1       1.583   7.877  20.093  0.00  0.00    +0.000 A 
ATOM      5  C   UNL     1       1.907   6.662  20.688  0.00  0.00    +0.000 A 
ATOM      6  C   UNL     1       2.710   5.747  20.007  0.00  0.00    +0.000 A 
ATOM      7  F   UNL     1       2.966   4.576  20.606  0.00  0.00    +0.000 F 
ENDROOT
BRANCH   1  11
ATOM      8  N   UNL     1       5.577   6.358  14.929  0.00  0.00    +0.000 N 
ATOM      9  C   UNL     1       5.352   5.935  16.189  0.00  0.00    +0.000 C 
ATOM     10  N   UNL     1       4.257   5.386  16.553  0.00  0.00    +0.000 NA
ATOM     11  C   UNL     1       4.052   4.971  17.957  0.00  0.00    +0.000 C 
ATOM     12  C   UNL     1       5.427   4.694  18.587  0.00  0.00    +0.000 C 
ATOM     13  C   UNL     1       6.303   5.916  18.379  0.00  0.00    +0.000 C 
ATOM     14  O   UNL     1       6.427   6.167  16.964  0.00  0.00    +0.000 OA
ATOM     15  H   UNL     1       4.974   5.931  14.236  0.00  0.00    +0.000 HD
ATOM     16  H   UNL     1       6.552   6.427  14.668  0.00  0.00    +0.000 HD
BRANCH  13  17
ATOM     17  C   UNL     1       7.679   5.764  19.038  0.00  0.00    +0.000 C 
ATOM     18  F   UNL     1       8.369   4.703  18.560  0.00  0.00    +0.000 F 
ATOM     19  F   UNL     1       8.459   6.855  18.873  0.00  0.00    +0.000 F 
ATOM     20  F   UNL     1       7.541   5.574  20.374  0.00  0.00    +0.000 F 
ENDBRANCH  13  17
BRANCH  11  21
ATOM     21  C   UNL     1       3.248   3.642  17.923  0.00  0.00    +0.000 C 
ATOM     22  F   UNL     1       2.144   3.779  17.133  0.00  0.00    +0.000 F 
ENDBRANCH  11  21
ENDBRANCH   1  11
BRANCH   3  23
ATOM     23  O   UNL     1       1.800   9.364  18.164  0.00  0.00    +0.000 OA
BRANCH  23  24
ATOM     24  C   UNL     1       0.835  10.205  18.701  0.00  0.00    +0.000 A 
ATOM     25  N   UNL     1       1.178  11.065  19.693  0.00  0.00    +0.000 NA
ATOM     26  C   UNL     1       0.193  11.842  20.196  0.00  0.00    +0.000 A 
ATOM     27  C   UNL     1      -1.118  11.823  19.732  0.00  0.00    +0.000 A 
ATOM     28 CL   UNL     1      -2.304  12.844  20.429  0.00  0.00    +0.000 Cl
ATOM     29  C   UNL     1      -1.443  10.958  18.696  0.00  0.00    +0.000 A 
ATOM     30  C   UNL     1      -0.450  10.137  18.168  0.00  0.00    +0.000 A 
ATOM     31  F   UNL     1      -0.751   9.285  17.178  0.00  0.00    +0.000 F 
ENDBRANCH  23  24
ENDBRANCH   3  23
TORSDOF 5
ENDMDL
MODEL 3
REMARK VINA RESULT:      -9.0      1.750      2.145
REMARK  Name = 
REMARK  5 active torsions:
REMARK  status: ('A' for Active; 'I' for Inactive)
REMARK    1  A    between atoms: C_4  and  C_5
REMARK    2  A    between atoms: C_4  and  C_7
REMARK    3  A    between atoms: C_9  and  O_10
REMARK    4  A    between atoms: O_10  and  C_11
REMARK    5  A    between atoms: C_24  and  C_25
REMARK                            x       y       z     vdW  Elec       q    Type
REMARK                         _______ _______ _______ _____ _____    ______ ____
ROOT
ATOM      1  C   UNL     1       3.218   6.041  18.755  0.00  0.00    +0.000 A 
ATOM      2  C   UNL     1       2.912   7.291  18.171  0.00  0.00    +0.000 A 
ATOM      3  C   UNL     1       2.119   8.237  18.835  0.00  0.00    +0.000 A 
ATOM      4  C   UNL     1       1.592   7.933  20.092  0.00  0.00    +0.000 A 
ATOM      5  C   UNL     1       1.898   6.720  20.699  0.00  0.00    +0.000 A 
ATOM      6  C   UNL     1       2.696   5.791  20.033  0.00  0.00    +0.000 A 
ATOM      7  F   UNL     1       2.935   4.622  20.643  0.00  0.00    +0.000 F 
ENDROOT
BRANCH   1  11
ATOM      8  N   UNL     1       5.554   6.310  14.937  0.00  0.00    +0.000 N 
ATOM      9  C   UNL     1       5.336   5.911  16.206  0.00  0.00    +0.000 C 
ATOM     10  N   UNL     1       4.243   5.371  16.586  0.00  0.00    +0.000 NA
ATOM     11  C   UNL     1       4.045   4.983  17.999  0.00  0.00    +0.000 C 
ATOM     12  C   UNL     1       5.422   4.716  18.626  0.00  0.00    +0.000 C 
ATOM     13  C   UNL     1       6.299   5.932  18.391  0.00  0.00    +0.000 C 
ATOM     14  O   UNL     1       6.416   6.156  16.971  0.00  0.00    +0.000 OA
ATOM     15  H   UNL     1       4.947   5.871  14.256  0.00  0.00    +0.000 HD
ATOM     16  H   UNL     1       6.528   6.373  14.670  0.00  0.00    +0.000 HD
BRANCH  13  17
ATOM     17  C   UNL     1       7.678   5.790  19.045  0.00  0.00    +0.000 C 
ATOM     18  F   UNL     1       8.448   6.890  18.875  0.00  0.00    +0.000 F 
ATOM     19  F   UNL     1       7.603   5.557  20.375  0.00  0.00    +0.000 F 
ATOM     20  F   UNL     1       8.353   4.749  18.498  0.00  0.00    +0.000 F 
ENDBRANCH  13  17
BRANCH  11  21
ATOM     21  C   UNL     1       3.239   3.655  17.994  0.00  0.00    +0.000 C 
ATOM     22  F   UNL     1       2.203   3.735  17.110  0.00  0.00    +0.000 F 
ENDBRANCH  11  21
ENDBRANCH   1  11
BRANCH   3  23
ATOM     23  O   UNL     1       1.839   9.401  18.152  0.00  0.00    +0.000 OA
BRANCH  23  24
ATOM     24  C   UNL     1       0.587   9.977  18.318  0.00  0.00    +0.000 A 
ATOM     25  N   UNL     1      -0.462   9.511  17.595  0.00  0.00    +0.000 NA
ATOM     26  C   UNL     1      -1.652  10.125  17.777  0.00  0.00    +0.000 A 
ATOM     27  C   UNL     1      -1.852  11.168  18.676  0.00  0.00    +0.000 A 
ATOM     28 CL   UNL     1      -3.397  11.889  18.843  0.00  0.00    +0.000 Cl
ATOM     29  C   UNL     1      -0.773  11.612  19.429  0.00  0.00    +0.000 A 
ATOM     30  C   UNL     1       0.467  11.005  19.251  0.00  0.00    +0.000 A 
ATOM     31  F   UNL     1       1.521  11.431  19.959  0.00  0.00    +0.000 F 
ENDBRANCH  23  24
ENDBRANCH   3  23
TORSDOF 5
ENDMDL
MODEL 4
REMARK VINA RESULT:      -8.9      1.818      2.206
REMARK  Name = 
REMARK  5 active torsions:
REMARK  status: ('A' for Active; 'I' for Inactive)
REMARK    1  A    between atoms: C_4  and  C_5
REMARK    2  A    between atoms: C_4  and  C_7
REMARK    3  A    between atoms: C_9  and  O_10
REMARK    4  A    between atoms: O_10  and  C_11
REMARK    5  A    between atoms: C_24  and  C_25
REMARK                            x       y       z     vdW  Elec       q    Type
REMARK                         _______ _______ _______ _____ _____    ______ ____
ROOT
ATOM      1  C   UNL     1       3.328   6.076  18.541  0.00  0.00    +0.000 A 
ATOM      2  C   UNL     1       2.997   7.248  17.824  0.00  0.00    +0.000 A 
ATOM      3  C   UNL     1       2.196   8.251  18.388  0.00  0.00    +0.000 A 
ATOM      4  C   UNL     1       1.687   8.083  19.677  0.00  0.00    +0.000 A 
ATOM      5  C   UNL     1       2.019   6.951  20.413  0.00  0.00    +0.000 A 
ATOM      6  C   UNL     1       2.825   5.964  19.845  0.00  0.00    +0.000 A 
ATOM      7  F   UNL     1       3.088   4.875  20.580  0.00  0.00    +0.000 F 
ENDROOT
BRANCH   1  11
ATOM      8  N   UNL     1       5.826   6.027  14.817  0.00  0.00    +0.000 N 
ATOM      9  C   UNL     1       5.547   5.724  16.100  0.00  0.00    +0.000 C 
ATOM     10  N   UNL     1       4.428   5.233  16.472  0.00  0.00    +0.000 NA
ATOM     11  C   UNL     1       4.164   4.951  17.898  0.00  0.00    +0.000 C 
ATOM     12  C   UNL     1       5.508   4.706  18.602  0.00  0.00    +0.000 C 
ATOM     13  C   UNL     1       6.419   5.885  18.318  0.00  0.00    +0.000 C 
ATOM     14  O   UNL     1       6.599   6.005  16.892  0.00  0.00    +0.000 OA
ATOM     15  H   UNL     1       5.239   5.551  14.144  0.00  0.00    +0.000 HD
ATOM     16  H   UNL     1       6.811   6.053  14.588  0.00  0.00    +0.000 HD
BRANCH  13  17
ATOM     17  C   UNL     1       7.767   5.766  19.039  0.00  0.00    +0.000 C 
ATOM     18  F   UNL     1       8.537   6.868  18.884  0.00  0.00    +0.000 F 
ATOM     19  F   UNL     1       7.630   5.558  20.368  0.00  0.00    +0.000 F 
ATOM     20  F   UNL     1       8.473   4.720  18.545  0.00  0.00    +0.000 F 
ENDBRANCH  13  17
BRANCH  11  21
ATOM     21  C   UNL     1       3.331   3.641  17.954  0.00  0.00    +0.000 C 
ATOM     22  F   UNL     1       2.106   3.836  17.385  0.00  0.00    +0.000 F 
ENDBRANCH  11  21
ENDBRANCH   1  11
BRANCH   3  23
ATOM     23  O   UNL     1       1.891   9.327  17.581  0.00  0.00    +0.000 OA
BRANCH  23  24
ATOM     24  C   UNL     1       1.131  10.357  18.118  0.00  0.00    +0.000 A 
ATOM     25  N   UNL     1      -0.171  10.133  18.429  0.00  0.00    +0.000 NA
ATOM     26  C   UNL     1      -0.870  11.178  18.924  0.00  0.00    +0.000 A 
ATOM     27  C   UNL     1      -0.320  12.435  19.154  0.00  0.00    +0.000 A 
ATOM     28 CL   UNL     1      -1.281  13.705  19.785  0.00  0.00    +0.000 Cl
ATOM     29  C   UNL     1       1.022  12.637  18.857  0.00  0.00    +0.000 A 
ATOM     30  C   UNL     1       1.762  11.580  18.334  0.00  0.00    +0.000 A 
ATOM     31  F   UNL     1       3.053  11.763  18.028  0.00  0.00    +0.000 F 
ENDBRANCH  23  24
ENDBRANCH   3  23
TORSDOF 5
ENDMDL
MODEL 5
REMARK VINA RESULT:      -8.7      1.336      1.711
REMARK  Name = 
REMARK  5 active torsions:
REMARK  status: ('A' for Active; 'I' for Inactive)
REMARK    1  A    between atoms: C_4  and  C_5
REMARK    2  A    between atoms: C_4  and  C_7
REMARK    3  A    between atoms: C_9  and  O_10
REMARK    4  A    between atoms: O_10  and  C_11
REMARK    5  A    between atoms: C_24  and  C_25
REMARK                            x       y       z     vdW  Elec       q    Type
REMARK                         _______ _______ _______ _____ _____    ______ ____
ROOT
ATOM      1  C   UNL     1       3.254   5.210  18.920  0.00  0.00    +0.000 A 
ATOM      2  C   UNL     1       3.167   6.616  19.018  0.00  0.00    +0.000 A 
ATOM      3  C   UNL     1       2.280   7.237  19.909  0.00  0.00    +0.000 A 
ATOM      4  C   UNL     1       1.440   6.454  20.701  0.00  0.00    +0.000 A 
ATOM      5  C   UNL     1       1.523   5.066  20.643  0.00  0.00    +0.000 A 
ATOM      6  C   UNL     1       2.416   4.460  19.759  0.00  0.00    +0.000 A 
ATOM      7  F   UNL     1       2.436   3.122  19.713  0.00  0.00    +0.000 F 
ENDROOT
BRANCH   1  11
ATOM      8  N   UNL     1       5.257   6.817  15.244  0.00  0.00    +0.000 N 
ATOM      9  C   UNL     1       5.191   6.085  16.374  0.00  0.00    +0.000 C 
ATOM     10  N   UNL     1       4.229   5.285  16.630  0.00  0.00    +0.000 NA
ATOM     11  C   UNL     1       4.191   4.532  17.901  0.00  0.00    +0.000 C 
ATOM     12  C   UNL     1       5.632   4.364  18.408  0.00  0.00    +0.000 C 
ATOM     13  C   UNL     1       6.281   5.734  18.470  0.00  0.00    +0.000 C 
ATOM     14  O   UNL     1       6.265   6.319  17.151  0.00  0.00    +0.000 OA
ATOM     15  H   UNL     1       4.686   6.460  14.488  0.00  0.00    +0.000 HD
ATOM     16  H   UNL     1       6.187   7.113  14.979  0.00  0.00    +0.000 HD
BRANCH  13  17
ATOM     17  C   UNL     1       7.705   5.679  19.035  0.00  0.00    +0.000 C 
ATOM     18  F   UNL     1       7.724   5.530  20.379  0.00  0.00    +0.000 F 
ATOM     19  F   UNL     1       8.435   4.669  18.511  0.00  0.00    +0.000 F 
ATOM     20  F   UNL     1       8.365   6.830  18.757  0.00  0.00    +0.000 F 
ENDBRANCH  13  17
BRANCH  11  21
ATOM     21  C   UNL     1       3.614   3.126  17.577  0.00  0.00    +0.000 C 
ATOM     22  F   UNL     1       2.553   3.236  16.727  0.00  0.00    +0.000 F 
ENDBRANCH  11  21
ENDBRANCH   1  11
BRANCH   3  23
ATOM     23  O   UNL     1       2.239   8.615  19.884  0.00  0.00    +0.000 OA
BRANCH  23  24
ATOM     24  C   UNL     1       1.046   9.232  19.530  0.00  0.00    +0.000 A 
ATOM     25  N   UNL     1       0.200   9.653  20.503  0.00  0.00    +0.000 NA
ATOM     26  C   UNL     1      -0.958  10.224  20.103  0.00  0.00    +0.000 A 
ATOM     27  C   UNL     1      -1.298  10.423  18.768  0.00  0.00    +0.000 A 
ATOM     28 CL   UNL     1      -2.789  11.156  18.350  0.00  0.00    +0.000 Cl
ATOM     29  C   UNL     1      -0.406  10.013  17.787  0.00  0.00    +0.000 A 
ATOM     30  C   UNL     1       0.789   9.410  18.173  0.00  0.00    +0.000 A 
ATOM     31  F   UNL     1       1.654   8.995  17.238  0.00  0.00    +0.000 F 
ENDBRANCH  23  24
ENDBRANCH   3  23
TORSDOF 5
ENDMDL
MODEL 6
REMARK VINA RESULT:      -8.5      0.691      1.022
REMARK  Name = 
REMARK  5 active torsions:
REMARK  status: ('A' for Active; 'I' for Inactive)
REMARK    1  A    between atoms: C_4  and  C_5
REMARK    2  A    between atoms: C_4  and  C_7
REMARK    3  A    between atoms: C_9  and  O_10
REMARK    4  A    between atoms: O_10  and  C_11
REMARK    5  A    between atoms: C_24  and  C_25
REMARK                            x       y       z     vdW  Elec       q    Type
REMARK                         _______ _______ _______ _____ _____    ______ ____
ROOT
ATOM      1  C   UNL     1       3.321   5.420  19.008  0.00  0.00    +0.000 A 
ATOM      2  C   UNL     1       2.976   6.736  18.628  0.00  0.00    +0.000 A 
ATOM      3  C   UNL     1       2.104   7.518  19.399  0.00  0.00    +0.000 A 
ATOM      4  C   UNL     1       1.536   6.981  20.555  0.00  0.00    +0.000 A 
ATOM      5  C   UNL     1       1.879   5.696  20.965  0.00  0.00    +0.000 A 
ATOM      6  C   UNL     1       2.755   4.931  20.195  0.00  0.00    +0.000 A 
ATOM      7  F   UNL     1       3.028   3.688  20.611  0.00  0.00    +0.000 F 
ENDROOT
BRANCH   1  11
ATOM      8  N   UNL     1       5.427   6.313  15.151  0.00  0.00    +0.000 N 
ATOM      9  C   UNL     1       5.319   5.781  16.385  0.00  0.00    +0.000 C 
ATOM     10  N   UNL     1       4.320   5.075  16.753  0.00  0.00    +0.000 NA
ATOM     11  C   UNL     1       4.237   4.544  18.130  0.00  0.00    +0.000 C 
ATOM     12  C   UNL     1       5.664   4.402  18.682  0.00  0.00    +0.000 C 
ATOM     13  C   UNL     1       6.372   5.736  18.528  0.00  0.00    +0.000 C 
ATOM     14  O   UNL     1       6.394   6.095  17.131  0.00  0.00    +0.000 OA
ATOM     15  H   UNL     1       4.848   5.860  14.455  0.00  0.00    +0.000 HD
ATOM     16  H   UNL     1       6.372   6.522  14.857  0.00  0.00    +0.000 HD
BRANCH  13  17
ATOM     17  C   UNL     1       7.787   5.715  19.118  0.00  0.00    +0.000 C 
ATOM     18  F   UNL     1       7.784   5.662  20.470  0.00  0.00    +0.000 F 
ATOM     19  F   UNL     1       8.519   4.667  18.679  0.00  0.00    +0.000 F 
ATOM     20  F   UNL     1       8.457   6.841  18.770  0.00  0.00    +0.000 F 
ENDBRANCH  13  17
BRANCH  11  21
ATOM     21  C   UNL     1       3.602   3.130  18.033  0.00  0.00    +0.000 C 
ATOM     22  F   UNL     1       3.938   2.543  16.848  0.00  0.00    +0.000 F 
ENDBRANCH  11  21
ENDBRANCH   1  11
BRANCH   3  23
ATOM     23  O   UNL     1       1.794   8.769  18.907  0.00  0.00    +0.000 OA
BRANCH  23  24
ATOM     24  C   UNL     1       0.915   9.562  19.632  0.00  0.00    +0.000 A 
ATOM     25  N   UNL     1       1.176   9.822  20.938  0.00  0.00    +0.000 NA
ATOM     26  C   UNL     1       0.274  10.579  21.603  0.00  0.00    +0.000 A 
ATOM     27  C   UNL     1      -0.865  11.117  21.014  0.00  0.00    +0.000 A 
ATOM     28 CL   UNL     1      -1.956  12.066  21.932  0.00  0.00    +0.000 Cl
ATOM     29  C   UNL     1      -1.099  10.864  19.668  0.00  0.00    +0.000 A 
ATOM     30  C   UNL     1      -0.193  10.077  18.963  0.00  0.00    +0.000 A 
ATOM     31  F   UNL     1      -0.412   9.811  17.669  0.00  0.00    +0.000 F 
ENDBRANCH  23  24
ENDBRANCH   3  23
TORSDOF 5
ENDMDL
MODEL 7
REMARK VINA RESULT:      -8.5      1.506      1.923
REMARK  Name = 
REMARK  5 active torsions:
REMARK  status: ('A' for Active; 'I' for Inactive)
REMARK    1  A    between atoms: C_4  and  C_5
REMARK    2  A    between atoms: C_4  and  C_7
REMARK    3  A    between atoms: C_9  and  O_10
REMARK    4  A    between atoms: O_10  and  C_11
REMARK    5  A    between atoms: C_24  and  C_25
REMARK                            x       y       z     vdW  Elec       q    Type
REMARK                         _______ _______ _______ _____ _____    ______ ____
ROOT
ATOM      1  C   UNL     1       3.238   5.111  18.934  0.00  0.00    +0.000 A 
ATOM      2  C   UNL     1       3.156   6.510  19.109  0.00  0.00    +0.000 A 
ATOM      3  C   UNL     1       2.257   7.084  20.019  0.00  0.00    +0.000 A 
ATOM      4  C   UNL     1       1.399   6.262  20.752  0.00  0.00    +0.000 A 
ATOM      5  C   UNL     1       1.478   4.880  20.616  0.00  0.00    +0.000 A 
ATOM      6  C   UNL     1       2.383   4.320  19.715  0.00  0.00    +0.000 A 
ATOM      7  F   UNL     1       2.398   2.986  19.594  0.00  0.00    +0.000 F 
ENDROOT
BRANCH   1  11
ATOM      8  N   UNL     1       5.185   6.870  15.298  0.00  0.00    +0.000 N 
ATOM      9  C   UNL     1       5.143   6.107  16.407  0.00  0.00    +0.000 C 
ATOM     10  N   UNL     1       4.203   5.275  16.644  0.00  0.00    +0.000 NA
ATOM     11  C   UNL     1       4.190   4.486  17.894  0.00  0.00    +0.000 C 
ATOM     12  C   UNL     1       5.637   4.343  18.393  0.00  0.00    +0.000 C 
ATOM     13  C   UNL     1       6.249   5.728  18.490  0.00  0.00    +0.000 C 
ATOM     14  O   UNL     1       6.212   6.348  17.188  0.00  0.00    +0.000 OA
ATOM     15  H   UNL     1       4.621   6.519  14.533  0.00  0.00    +0.000 HD
ATOM     16  H   UNL     1       6.106   7.199  15.039  0.00  0.00    +0.000 HD
BRANCH  13  17
ATOM     17  C   UNL     1       7.675   5.696  19.050  0.00  0.00    +0.000 C 
ATOM     18  F   UNL     1       8.363   6.831  18.783  0.00  0.00    +0.000 F 
ATOM     19  F   UNL     1       7.706   5.517  20.390  0.00  0.00    +0.000 F 
ATOM     20  F   UNL     1       8.373   4.673  18.498  0.00  0.00    +0.000 F 
ENDBRANCH  13  17
BRANCH  11  21
ATOM     21  C   UNL     1       3.650   3.075  17.534  0.00  0.00    +0.000 C 
ATOM     22  F   UNL     1       2.607   3.178  16.659  0.00  0.00    +0.000 F 
ENDBRANCH  11  21
ENDBRANCH   1  11
BRANCH   3  23
ATOM     23  O   UNL     1       2.222   8.462  20.071  0.00  0.00    +0.000 OA
BRANCH  23  24
ATOM     24  C   UNL     1       1.114   9.113  19.547  0.00  0.00    +0.000 A 
ATOM     25  N   UNL     1       0.986   9.233  18.201  0.00  0.00    +0.000 NA
ATOM     26  C   UNL     1      -0.099   9.898  17.746  0.00  0.00    +0.000 A 
ATOM     27  C   UNL     1      -1.084  10.424  18.575  0.00  0.00    +0.000 A 
ATOM     28 CL   UNL     1      -2.428  11.254  17.911  0.00  0.00    +0.000 Cl
ATOM     29  C   UNL     1      -0.952  10.265  19.948  0.00  0.00    +0.000 A 
ATOM     30  C   UNL     1       0.164   9.595  20.444  0.00  0.00    +0.000 A 
ATOM     31  F   UNL     1       0.314   9.447  21.766  0.00  0.00    +0.000 F 
ENDBRANCH  23  24
ENDBRANCH   3  23
TORSDOF 5
ENDMDL
MODEL 8
REMARK VINA RESULT:      -8.2      2.409      4.486
REMARK  Name = 
REMARK  5 active torsions:
REMARK  status: ('A' for Active; 'I' for Inactive)
REMARK    1  A    between atoms: C_4  and  C_5
REMARK    2  A    between atoms: C_4  and  C_7
REMARK    3  A    between atoms: C_9  and  O_10
REMARK    4  A    between atoms: O_10  and  C_11
REMARK    5  A    between atoms: C_24  and  C_25
REMARK                            x       y       z     vdW  Elec       q    Type
REMARK                         _______ _______ _______ _____ _____    ______ ____
ROOT
ATOM      1  C   UNL     1       4.338   4.767  17.836  0.00  0.00    +0.000 A 
ATOM      2  C   UNL     1       3.372   5.793  17.744  0.00  0.00    +0.000 A 
ATOM      3  C   UNL     1       3.739   7.145  17.694  0.00  0.00    +0.000 A 
ATOM      4  C   UNL     1       5.089   7.495  17.765  0.00  0.00    +0.000 A 
ATOM      5  C   UNL     1       6.062   6.503  17.830  0.00  0.00    +0.000 A 
ATOM      6  C   UNL     1       5.684   5.161  17.870  0.00  0.00    +0.000 A 
ATOM      7  F   UNL     1       6.655   4.243  17.968  0.00  0.00    +0.000 F 
ENDROOT
BRANCH   1  11
ATOM      8  N   UNL     1       5.226   1.694  20.979  0.00  0.00    +0.000 N 
ATOM      9  C   UNL     1       4.445   2.327  20.081  0.00  0.00    +0.000 C 
ATOM     10  N   UNL     1       4.812   2.556  18.879  0.00  0.00    +0.000 NA
ATOM     11  C   UNL     1       3.928   3.285  17.946  0.00  0.00    +0.000 C 
ATOM     12  C   UNL     1       2.473   3.082  18.397  0.00  0.00    +0.000 C 
ATOM     13  C   UNL     1       2.365   3.479  19.857  0.00  0.00    +0.000 C 
ATOM     14  O   UNL     1       3.263   2.658  20.633  0.00  0.00    +0.000 OA
ATOM     15  H   UNL     1       5.963   1.137  20.564  0.00  0.00    +0.000 HD
ATOM     16  H   UNL     1       4.729   1.253  21.742  0.00  0.00    +0.000 HD
BRANCH  13  17
ATOM     17  C   UNL     1       0.928   3.378  20.383  0.00  0.00    +0.000 C 
ATOM     18  F   UNL     1       0.360   4.591  20.574  0.00  0.00    +0.000 F 
ATOM     19  F   UNL     1       0.117   2.683  19.553  0.00  0.00    +0.000 F 
ATOM     20  F   UNL     1       0.910   2.741  21.580  0.00  0.00    +0.000 F 
ENDBRANCH  13  17
BRANCH  11  21
ATOM     21  C   UNL     1       4.108   2.631  16.548  0.00  0.00    +0.000 C 
ATOM     22  F   UNL     1       4.508   3.566  15.638  0.00  0.00    +0.000 F 
ENDBRANCH  11  21
ENDBRANCH   1  11
BRANCH   3  23
ATOM     23  O   UNL     1       2.714   8.066  17.660  0.00  0.00    +0.000 OA
BRANCH  23  24
ATOM     24  C   UNL     1       2.034   8.339  18.838  0.00  0.00    +0.000 A 
ATOM     25  N   UNL     1       2.123   7.469  19.876  0.00  0.00    +0.000 NA
ATOM     26  C   UNL     1       1.421   7.772  20.990  0.00  0.00    +0.000 A 
ATOM     27  C   UNL     1       0.654   8.924  21.130  0.00  0.00    +0.000 A 
ATOM     28 CL   UNL     1      -0.205   9.229  22.580  0.00  0.00    +0.000 Cl
ATOM     29  C   UNL     1       0.599   9.818  20.068  0.00  0.00    +0.000 A 
ATOM     30  C   UNL     1       1.303   9.523  18.903  0.00  0.00    +0.000 A 
ATOM     31  F   UNL     1       1.248  10.367  17.865  0.00  0.00    +0.000 F 
ENDBRANCH  23  24
ENDBRANCH   3  23
TORSDOF 5
ENDMDL
MODEL 9
REMARK VINA RESULT:      -8.1      6.481      8.619
REMARK  Name = 
REMARK  5 active torsions:
REMARK  status: ('A' for Active; 'I' for Inactive)
REMARK    1  A    between atoms: C_4  and  C_5
REMARK    2  A    between atoms: C_4  and  C_7
REMARK    3  A    between atoms: C_9  and  O_10
REMARK    4  A    between atoms: O_10  and  C_11
REMARK    5  A    between atoms: C_24  and  C_25
REMARK                            x       y       z     vdW  Elec       q    Type
REMARK                         _______ _______ _______ _____ _____    ______ ____
ROOT
ATOM      1  C   UNL     1      -1.688  11.338  18.616  0.00  0.00    +0.000 A 
ATOM      2  C   UNL     1      -2.983  11.900  18.679  0.00  0.00    +0.000 A 
ATOM      3  C   UNL     1      -4.020  11.450  17.850  0.00  0.00    +0.000 A 
ATOM      4  C   UNL     1      -3.768  10.441  16.918  0.00  0.00    +0.000 A 
ATOM      5  C   UNL     1      -2.509   9.854  16.854  0.00  0.00    +0.000 A 
ATOM      6  C   UNL     1      -1.488  10.304  17.690  0.00  0.00    +0.000 A 
ATOM      7  F   UNL     1      -0.283   9.732  17.567  0.00  0.00    +0.000 F 
ENDROOT
BRANCH   1  11
ATOM      8  N   UNL     1      -1.718  13.228  22.682  0.00  0.00    +0.000 N 
ATOM      9  C   UNL     1      -1.233  12.421  21.718  0.00  0.00    +0.000 C 
ATOM     10  N   UNL     1      -1.040  12.811  20.517  0.00  0.00    +0.000 NA
ATOM     11  C   UNL     1      -0.537  11.873  19.491  0.00  0.00    +0.000 C 
ATOM     12  C   UNL     1       0.264  10.767  20.195  0.00  0.00    +0.000 C 
ATOM     13  C   UNL     1      -0.608  10.159  21.277  0.00  0.00    +0.000 C 
ATOM     14  O   UNL     1      -0.987  11.192  22.209  0.00  0.00    +0.000 OA
ATOM     15  H   UNL     1      -1.612  14.216  22.486  0.00  0.00    +0.000 HD
ATOM     16  H   UNL     1      -1.489  12.950  23.628  0.00  0.00    +0.000 HD
BRANCH  13  17
ATOM     17  C   UNL     1       0.081   8.992  21.993  0.00  0.00    +0.000 C 
ATOM     18  F   UNL     1      -0.027   9.072  23.340  0.00  0.00    +0.000 F 
ATOM     19  F   UNL     1      -0.413   7.788  21.624  0.00  0.00    +0.000 F 
ATOM     20  F   UNL     1       1.406   8.981  21.705  0.00  0.00    +0.000 F 
ENDBRANCH  13  17
BRANCH  11  21
ATOM     21  C   UNL     1       0.428  12.677  18.577  0.00  0.00    +0.000 C 
ATOM     22  F   UNL     1       0.834  13.818  19.207  0.00  0.00    +0.000 F 
ENDBRANCH  11  21
ENDBRANCH   1  11
BRANCH   3  23
ATOM     23  O   UNL     1      -5.229  12.105  17.957  0.00  0.00    +0.000 OA
BRANCH  23  24
ATOM     24  C   UNL     1      -5.872  12.103  19.187  0.00  0.00    +0.000 A 
ATOM     25  N   UNL     1      -5.650  13.121  20.056  0.00  0.00    +0.000 NA
ATOM     26  C   UNL     1      -6.282  13.056  21.249  0.00  0.00    +0.000 A 
ATOM     27  C   UNL     1      -7.156  12.033  21.604  0.00  0.00    +0.000 A 
ATOM     28 CL   UNL     1      -7.915  12.030  23.139  0.00  0.00    +0.000 Cl
ATOM     29  C   UNL     1      -7.394  11.016  20.689  0.00  0.00    +0.000 A 
ATOM     30  C   UNL     1      -6.745  11.052  19.458  0.00  0.00    +0.000 A 
ATOM     31  F   UNL     1      -6.952  10.071  18.570  0.00  0.00    +0.000 F 
ENDBRANCH  23  24
ENDBRANCH   3  23
TORSDOF 5
ENDMDL
