MODEL 1
REMARK VINA RESULT:      -7.6      0.000      0.000
REMARK  Name = 
REMARK  9 active torsions:
REMARK  status: ('A' for Active; 'I' for Inactive)
REMARK    1  A    between atoms: C_1  and  O_2
REMARK    2  A    between atoms: O_2  and  C_3
REMARK    3  A    between atoms: C_3  and  C_4
REMARK    4  A    between atoms: C_4  and  C_5
REMARK    5  A    between atoms: C_10  and  C_11
REMARK    6  A    between atoms: C_17  and  C_18
REMARK    7  A    between atoms: C_18  and  C_19
REMARK    8  A    between atoms: C_19  and  C_20
REMARK    9  A    between atoms: C_20  and  O_21
REMARK                            x       y       z     vdW  Elec       q    Type
REMARK                         _______ _______ _______ _____ _____    ______ ____
ROOT
ATOM      1  C   UNL     1      -0.018   9.710  21.681  0.00  0.00    +0.000 A 
ATOM      2  N   UNL     1      -0.163  10.305  20.515  0.00  0.00    +0.000 NA
ATOM      3  C   UNL     1       0.659   9.590  19.689  0.00  0.00    +0.000 A 
ATOM      4  C   UNL     1       0.879   9.710  18.315  0.00  0.00    +0.000 A 
ATOM      5  C   UNL     1       1.744   8.789  17.711  0.00  0.00    +0.000 A 
ATOM      6  C   UNL     1       2.474   7.850  18.464  0.00  0.00    +0.000 A 
ATOM      7  C   UNL     1       2.245   7.717  19.849  0.00  0.00    +0.000 A 
ATOM      8  C   UNL     1       1.322   8.603  20.401  0.00  0.00    +0.000 A 
ATOM      9  O   UNL     1       0.882   8.672  21.695  0.00  0.00    +0.000 OA
ENDROOT
BRANCH   6  10
ATOM     10  C   UNL     1       3.446   6.914  17.810  0.00  0.00    +0.000 C 
ATOM     11  O   UNL     1       4.245   7.406  17.013  0.00  0.00    +0.000 OA
ATOM     12  N   UNL     1       3.441   5.548  18.120  0.00  0.00    +0.000 N 
ATOM     13  C   UNL     1       4.569   4.716  17.712  0.00  0.00    +0.000 C 
ATOM     14  C   UNL     1       4.106   3.547  16.848  0.00  0.00    +0.000 C 
ATOM     15  C   UNL     1       3.007   2.736  17.541  0.00  0.00    +0.000 C 
ATOM     16  C   UNL     1       1.841   3.637  17.980  0.00  0.00    +0.000 C 
ATOM     17  C   UNL     1       2.360   4.832  18.787  0.00  0.00    +0.000 C 
BRANCH  16  18
ATOM     18  C   UNL     1       0.789   2.844  18.788  0.00  0.00    +0.000 C 
BRANCH  18  19
ATOM     19  C   UNL     1       0.746   3.233  20.272  0.00  0.00    +0.000 C 
BRANCH  19  20
ATOM     20  C   UNL     1       1.749   2.452  21.111  0.00  0.00    +0.000 C 
BRANCH  20  21
ATOM     21  O   UNL     1       1.326   2.449  22.472  0.00  0.00    +0.000 OA
ATOM     22  H   UNL     1       2.120   2.473  23.033  0.00  0.00    +0.000 HD
ENDBRANCH  20  21
ENDBRANCH  19  20
ENDBRANCH  18  19
ENDBRANCH  16  18
ENDBRANCH   6  10
BRANCH   1  23
ATOM     23  C   UNL     1      -0.717  10.022  22.949  0.00  0.00    +0.000 C 
BRANCH  23  24
ATOM     24  C   UNL     1      -1.177  11.470  22.991  0.00  0.00    +0.000 C 
BRANCH  24  26
ATOM     25  C   UNL     1      -3.242  12.595  22.880  0.00  0.00    +0.000 C 
ATOM     26  O   UNL     1      -2.525  11.516  23.465  0.00  0.00    +0.000 OA
ENDBRANCH  24  26
ENDBRANCH  23  24
ENDBRANCH   1  23
TORSDOF 8
ENDMDL
MODEL 2
REMARK VINA RESULT:      -7.2      2.647      4.648
REMARK  Name = 
REMARK  9 active torsions:
REMARK  status: ('A' for Active; 'I' for Inactive)
REMARK    1  A    between atoms: C_1  and  O_2
REMARK    2  A    between atoms: O_2  and  C_3
REMARK    3  A    between atoms: C_3  and  C_4
REMARK    4  A    between atoms: C_4  and  C_5
REMARK    5  A    between atoms: C_10  and  C_11
REMARK    6  A    between atoms: C_17  and  C_18
REMARK    7  A    between atoms: C_18  and  C_19
REMARK    8  A    between atoms: C_19  and  C_20
REMARK    9  A    between atoms: C_20  and  O_21
REMARK                            x       y       z     vdW  Elec       q    Type
REMARK                         _______ _______ _______ _____ _____    ______ ____
ROOT
ATOM      1  C   UNL     1       0.953   9.996  20.117  0.00  0.00    +0.000 A 
ATOM      2  N   UNL     1       0.902   9.024  21.005  0.00  0.00    +0.000 NA
ATOM      3  C   UNL     1       1.458   7.964  20.347  0.00  0.00    +0.000 A 
ATOM      4  C   UNL     1       1.734   6.670  20.797  0.00  0.00    +0.000 A 
ATOM      5  C   UNL     1       2.373   5.795  19.910  0.00  0.00    +0.000 A 
ATOM      6  C   UNL     1       2.622   6.145  18.569  0.00  0.00    +0.000 A 
ATOM      7  C   UNL     1       2.356   7.453  18.115  0.00  0.00    +0.000 A 
ATOM      8  C   UNL     1       1.788   8.317  19.048  0.00  0.00    +0.000 A 
ATOM      9  O   UNL     1       1.467   9.639  18.895  0.00  0.00    +0.000 OA
ENDROOT
BRANCH   6  10
ATOM     10  C   UNL     1       3.247   5.173  17.614  0.00  0.00    +0.000 C 
ATOM     11  O   UNL     1       2.604   4.158  17.349  0.00  0.00    +0.000 OA
ATOM     12  N   UNL     1       4.501   5.436  17.046  0.00  0.00    +0.000 N 
ATOM     13  C   UNL     1       4.953   4.642  15.907  0.00  0.00    +0.000 C 
ATOM     14  C   UNL     1       6.290   3.969  16.203  0.00  0.00    +0.000 C 
ATOM     15  C   UNL     1       7.343   4.985  16.657  0.00  0.00    +0.000 C 
ATOM     16  C   UNL     1       6.835   5.823  17.842  0.00  0.00    +0.000 C 
ATOM     17  C   UNL     1       5.461   6.423  17.526  0.00  0.00    +0.000 C 
BRANCH  16  18
ATOM     18  C   UNL     1       7.844   6.930  18.222  0.00  0.00    +0.000 C 
BRANCH  18  19
ATOM     19  C   UNL     1       7.537   8.282  17.562  0.00  0.00    +0.000 C 
BRANCH  19  20
ATOM     20  C   UNL     1       8.434   9.400  18.075  0.00  0.00    +0.000 C 
BRANCH  20  21
ATOM     21  O   UNL     1       9.014   9.009  19.316  0.00  0.00    +0.000 OA
ATOM     22  H   UNL     1       9.664   9.688  19.572  0.00  0.00    +0.000 HD
ENDBRANCH  20  21
ENDBRANCH  19  20
ENDBRANCH  18  19
ENDBRANCH  16  18
ENDBRANCH   6  10
BRANCH   1  23
ATOM     23  C   UNL     1       0.538  11.408  20.296  0.00  0.00    +0.000 C 
BRANCH  23  24
ATOM     24  C   UNL     1      -0.890  11.510  20.806  0.00  0.00    +0.000 C 
BRANCH  24  26
ATOM     25  C   UNL     1      -1.260  11.025  23.079  0.00  0.00    +0.000 C 
ATOM     26  O   UNL     1      -0.871  12.020  22.140  0.00  0.00    +0.000 OA
ENDBRANCH  24  26
ENDBRANCH  23  24
ENDBRANCH   1  23
TORSDOF 8
ENDMDL
MODEL 3
REMARK VINA RESULT:      -7.1      3.023      4.974
REMARK  Name = 
REMARK  9 active torsions:
REMARK  status: ('A' for Active; 'I' for Inactive)
REMARK    1  A    between atoms: C_1  and  O_2
REMARK    2  A    between atoms: O_2  and  C_3
REMARK    3  A    between atoms: C_3  and  C_4
REMARK    4  A    between atoms: C_4  and  C_5
REMARK    5  A    between atoms: C_10  and  C_11
REMARK    6  A    between atoms: C_17  and  C_18
REMARK    7  A    between atoms: C_18  and  C_19
REMARK    8  A    between atoms: C_19  and  C_20
REMARK    9  A    between atoms: C_20  and  O_21
REMARK                            x       y       z     vdW  Elec       q    Type
REMARK                         _______ _______ _______ _____ _____    ______ ____
ROOT
ATOM      1  C   UNL     1       0.810  10.626  19.292  0.00  0.00    +0.000 A 
ATOM      2  N   UNL     1       0.900   9.854  20.356  0.00  0.00    +0.000 NA
ATOM      3  C   UNL     1       1.480   8.715  19.873  0.00  0.00    +0.000 A 
ATOM      4  C   UNL     1       1.885   7.558  20.543  0.00  0.00    +0.000 A 
ATOM      5  C   UNL     1       2.515   6.558  19.791  0.00  0.00    +0.000 A 
ATOM      6  C   UNL     1       2.632   6.641  18.391  0.00  0.00    +0.000 A 
ATOM      7  C   UNL     1       2.236   7.812  17.713  0.00  0.00    +0.000 A 
ATOM      8  C   UNL     1       1.681   8.815  18.505  0.00  0.00    +0.000 A 
ATOM      9  O   UNL     1       1.252  10.058  18.123  0.00  0.00    +0.000 OA
ENDROOT
BRANCH   6  10
ATOM     10  C   UNL     1       3.250   5.532  17.594  0.00  0.00    +0.000 C 
ATOM     11  O   UNL     1       2.561   4.531  17.402  0.00  0.00    +0.000 OA
ATOM     12  N   UNL     1       4.550   5.657  17.086  0.00  0.00    +0.000 N 
ATOM     13  C   UNL     1       5.018   4.713  16.074  0.00  0.00    +0.000 C 
ATOM     14  C   UNL     1       6.289   4.005  16.532  0.00  0.00    +0.000 C 
ATOM     15  C   UNL     1       7.376   5.006  16.938  0.00  0.00    +0.000 C 
ATOM     16  C   UNL     1       6.852   6.002  17.986  0.00  0.00    +0.000 C 
ATOM     17  C   UNL     1       5.540   6.638  17.515  0.00  0.00    +0.000 C 
BRANCH  16  18
ATOM     18  C   UNL     1       7.904   7.087  18.307  0.00  0.00    +0.000 C 
BRANCH  18  19
ATOM     19  C   UNL     1       7.611   8.433  17.630  0.00  0.00    +0.000 C 
BRANCH  19  20
ATOM     20  C   UNL     1       8.494   9.557  18.156  0.00  0.00    +0.000 C 
BRANCH  20  21
ATOM     21  O   UNL     1       9.032   9.183  19.421  0.00  0.00    +0.000 OA
ATOM     22  H   UNL     1       9.718   9.831  19.660  0.00  0.00    +0.000 HD
ENDBRANCH  20  21
ENDBRANCH  19  20
ENDBRANCH  18  19
ENDBRANCH  16  18
ENDBRANCH   6  10
BRANCH   1  23
ATOM     23  C   UNL     1       0.308  12.019  19.225  0.00  0.00    +0.000 C 
BRANCH  23  24
ATOM     24  C   UNL     1      -1.211  12.066  19.222  0.00  0.00    +0.000 C 
BRANCH  24  26
ATOM     25  C   UNL     1      -2.183  11.363  17.197  0.00  0.00    +0.000 C 
ATOM     26  O   UNL     1      -1.660  12.466  17.925  0.00  0.00    +0.000 OA
ENDBRANCH  24  26
ENDBRANCH  23  24
ENDBRANCH   1  23
TORSDOF 8
ENDMDL
MODEL 4
REMARK VINA RESULT:      -7.1      2.616      4.353
REMARK  Name = 
REMARK  9 active torsions:
REMARK  status: ('A' for Active; 'I' for Inactive)
REMARK    1  A    between atoms: C_1  and  O_2
REMARK    2  A    between atoms: O_2  and  C_3
REMARK    3  A    between atoms: C_3  and  C_4
REMARK    4  A    between atoms: C_4  and  C_5
REMARK    5  A    between atoms: C_10  and  C_11
REMARK    6  A    between atoms: C_17  and  C_18
REMARK    7  A    between atoms: C_18  and  C_19
REMARK    8  A    between atoms: C_19  and  C_20
REMARK    9  A    between atoms: C_20  and  O_21
REMARK                            x       y       z     vdW  Elec       q    Type
REMARK                         _______ _______ _______ _____ _____    ______ ____
ROOT
ATOM      1  C   UNL     1       1.177   8.465  20.839  0.00  0.00    +0.000 A 
ATOM      2  N   UNL     1       1.084   7.304  21.456  0.00  0.00    +0.000 NA
ATOM      3  C   UNL     1       1.615   6.423  20.557  0.00  0.00    +0.000 A 
ATOM      4  C   UNL     1       1.845   5.050  20.670  0.00  0.00    +0.000 A 
ATOM      5  C   UNL     1       2.468   4.403  19.596  0.00  0.00    +0.000 A 
ATOM      6  C   UNL     1       2.745   5.068  18.386  0.00  0.00    +0.000 A 
ATOM      7  C   UNL     1       2.526   6.456  18.272  0.00  0.00    +0.000 A 
ATOM      8  C   UNL     1       1.974   7.079  19.389  0.00  0.00    +0.000 A 
ATOM      9  O   UNL     1       1.696   8.407  19.569  0.00  0.00    +0.000 OA
ENDROOT
BRANCH   6  10
ATOM     10  C   UNL     1       3.353   4.345  17.222  0.00  0.00    +0.000 C 
ATOM     11  O   UNL     1       2.845   3.269  16.906  0.00  0.00    +0.000 OA
ATOM     12  N   UNL     1       4.438   4.894  16.527  0.00  0.00    +0.000 N 
ATOM     13  C   UNL     1       4.818   4.336  15.233  0.00  0.00    +0.000 C 
ATOM     14  C   UNL     1       6.275   3.883  15.236  0.00  0.00    +0.000 C 
ATOM     15  C   UNL     1       7.213   5.011  15.679  0.00  0.00    +0.000 C 
ATOM     16  C   UNL     1       6.779   5.598  17.033  0.00  0.00    +0.000 C 
ATOM     17  C   UNL     1       5.294   5.974  17.005  0.00  0.00    +0.000 C 
BRANCH  16  18
ATOM     18  C   UNL     1       7.647   6.815  17.424  0.00  0.00    +0.000 C 
BRANCH  18  19
ATOM     19  C   UNL     1       8.163   6.751  18.868  0.00  0.00    +0.000 C 
BRANCH  19  20
ATOM     20  C   UNL     1       7.556   5.598  19.656  0.00  0.00    +0.000 C 
BRANCH  20  21
ATOM     21  O   UNL     1       8.390   5.298  20.772  0.00  0.00    +0.000 OA
ATOM     22  H   UNL     1       9.190   4.855  20.439  0.00  0.00    +0.000 HD
ENDBRANCH  20  21
ENDBRANCH  19  20
ENDBRANCH  18  19
ENDBRANCH  16  18
ENDBRANCH   6  10
BRANCH   1  23
ATOM     23  C   UNL     1       0.805   9.800  21.363  0.00  0.00    +0.000 C 
BRANCH  23  24
ATOM     24  C   UNL     1       0.474   9.746  22.845  0.00  0.00    +0.000 C 
BRANCH  24  26
ATOM     25  C   UNL     1      -1.255  11.332  23.028  0.00  0.00    +0.000 C 
ATOM     26  O   UNL     1      -0.931   9.948  23.016  0.00  0.00    +0.000 OA
ENDBRANCH  24  26
ENDBRANCH  23  24
ENDBRANCH   1  23
TORSDOF 8
ENDMDL
MODEL 5
REMARK VINA RESULT:      -7.1      2.120      2.530
REMARK  Name = 
REMARK  9 active torsions:
REMARK  status: ('A' for Active; 'I' for Inactive)
REMARK    1  A    between atoms: C_1  and  O_2
REMARK    2  A    between atoms: O_2  and  C_3
REMARK    3  A    between atoms: C_3  and  C_4
REMARK    4  A    between atoms: C_4  and  C_5
REMARK    5  A    between atoms: C_10  and  C_11
REMARK    6  A    between atoms: C_17  and  C_18
REMARK    7  A    between atoms: C_18  and  C_19
REMARK    8  A    between atoms: C_19  and  C_20
REMARK    9  A    between atoms: C_20  and  O_21
REMARK                            x       y       z     vdW  Elec       q    Type
REMARK                         _______ _______ _______ _____ _____    ______ ____
ROOT
ATOM      1  C   UNL     1      -0.799  11.163  19.442  0.00  0.00    +0.000 A 
ATOM      2  N   UNL     1      -0.570  10.415  20.502  0.00  0.00    +0.000 NA
ATOM      3  C   UNL     1       0.377   9.530  20.068  0.00  0.00    +0.000 A 
ATOM      4  C   UNL     1       1.060   8.529  20.763  0.00  0.00    +0.000 A 
ATOM      5  C   UNL     1       2.035   7.804  20.068  0.00  0.00    +0.000 A 
ATOM      6  C   UNL     1       2.247   7.974  18.687  0.00  0.00    +0.000 A 
ATOM      7  C   UNL     1       1.569   8.992  17.985  0.00  0.00    +0.000 A 
ATOM      8  C   UNL     1       0.660   9.742  18.727  0.00  0.00    +0.000 A 
ATOM      9  O   UNL     1      -0.098  10.805  18.317  0.00  0.00    +0.000 OA
ENDROOT
BRANCH   6  10
ATOM     10  C   UNL     1       3.250   7.143  17.945  0.00  0.00    +0.000 C 
ATOM     11  O   UNL     1       3.994   7.733  17.162  0.00  0.00    +0.000 OA
ATOM     12  N   UNL     1       3.333   5.762  18.161  0.00  0.00    +0.000 N 
ATOM     13  C   UNL     1       4.495   5.027  17.667  0.00  0.00    +0.000 C 
ATOM     14  C   UNL     1       4.072   3.893  16.738  0.00  0.00    +0.000 C 
ATOM     15  C   UNL     1       3.044   2.973  17.404  0.00  0.00    +0.000 C 
ATOM     16  C   UNL     1       1.842   3.772  17.936  0.00  0.00    +0.000 C 
ATOM     17  C   UNL     1       2.316   4.940  18.807  0.00  0.00    +0.000 C 
BRANCH  16  18
ATOM     18  C   UNL     1       0.864   2.866  18.716  0.00  0.00    +0.000 C 
BRANCH  18  19
ATOM     19  C   UNL     1       0.805   3.189  20.216  0.00  0.00    +0.000 C 
BRANCH  19  20
ATOM     20  C   UNL     1       1.813   2.386  21.027  0.00  0.00    +0.000 C 
BRANCH  20  21
ATOM     21  O   UNL     1       1.898   2.927  22.343  0.00  0.00    +0.000 OA
ATOM     22  H   UNL     1       1.049   3.357  22.546  0.00  0.00    +0.000 HD
ENDBRANCH  20  21
ENDBRANCH  19  20
ENDBRANCH  18  19
ENDBRANCH  16  18
ENDBRANCH   6  10
BRANCH   1  23
ATOM     23  C   UNL     1      -1.702  12.333  19.339  0.00  0.00    +0.000 C 
BRANCH  23  24
ATOM     24  C   UNL     1      -0.980  13.627  19.678  0.00  0.00    +0.000 C 
BRANCH  24  26
ATOM     25  C   UNL     1       1.033  14.502  18.830  0.00  0.00    +0.000 C 
ATOM     26  O   UNL     1      -0.291  14.093  18.516  0.00  0.00    +0.000 OA
ENDBRANCH  24  26
ENDBRANCH  23  24
ENDBRANCH   1  23
TORSDOF 8
ENDMDL
MODEL 6
REMARK VINA RESULT:      -7.0      4.092      7.297
REMARK  Name = 
REMARK  9 active torsions:
REMARK  status: ('A' for Active; 'I' for Inactive)
REMARK    1  A    between atoms: C_1  and  O_2
REMARK    2  A    between atoms: O_2  and  C_3
REMARK    3  A    between atoms: C_3  and  C_4
REMARK    4  A    between atoms: C_4  and  C_5
REMARK    5  A    between atoms: C_10  and  C_11
REMARK    6  A    between atoms: C_17  and  C_18
REMARK    7  A    between atoms: C_18  and  C_19
REMARK    8  A    between atoms: C_19  and  C_20
REMARK    9  A    between atoms: C_20  and  O_21
REMARK                            x       y       z     vdW  Elec       q    Type
REMARK                         _______ _______ _______ _____ _____    ______ ____
ROOT
ATOM      1  C   UNL     1       8.261   9.147  18.002  0.00  0.00    +0.000 A 
ATOM      2  N   UNL     1       8.774   8.245  18.813  0.00  0.00    +0.000 NA
ATOM      3  C   UNL     1       8.014   7.134  18.574  0.00  0.00    +0.000 A 
ATOM      4  C   UNL     1       8.123   5.841  19.092  0.00  0.00    +0.000 A 
ATOM      5  C   UNL     1       7.230   4.872  18.617  0.00  0.00    +0.000 A 
ATOM      6  C   UNL     1       6.174   5.198  17.745  0.00  0.00    +0.000 A 
ATOM      7  C   UNL     1       6.069   6.498  17.210  0.00  0.00    +0.000 A 
ATOM      8  C   UNL     1       7.020   7.416  17.651  0.00  0.00    +0.000 A 
ATOM      9  O   UNL     1       7.178   8.721  17.271  0.00  0.00    +0.000 OA
ENDROOT
BRANCH   6  10
ATOM     10  C   UNL     1       5.188   4.162  17.296  0.00  0.00    +0.000 C 
ATOM     11  O   UNL     1       5.374   3.654  16.191  0.00  0.00    +0.000 OA
ATOM     12  N   UNL     1       4.119   3.788  18.122  0.00  0.00    +0.000 N 
ATOM     13  C   UNL     1       3.356   2.584  17.807  0.00  0.00    +0.000 C 
ATOM     14  C   UNL     1       1.873   2.901  17.642  0.00  0.00    +0.000 C 
ATOM     15  C   UNL     1       1.316   3.637  18.865  0.00  0.00    +0.000 C 
ATOM     16  C   UNL     1       2.149   4.888  19.190  0.00  0.00    +0.000 C 
ATOM     17  C   UNL     1       3.638   4.535  19.278  0.00  0.00    +0.000 C 
BRANCH  16  18
ATOM     18  C   UNL     1       1.666   5.564  20.493  0.00  0.00    +0.000 C 
BRANCH  18  19
ATOM     19  C   UNL     1       2.024   7.054  20.570  0.00  0.00    +0.000 C 
BRANCH  19  20
ATOM     20  C   UNL     1       2.093   7.711  19.198  0.00  0.00    +0.000 C 
BRANCH  20  21
ATOM     21  O   UNL     1       1.399   8.955  19.235  0.00  0.00    +0.000 OA
ATOM     22  H   UNL     1       0.453   8.776  19.086  0.00  0.00    +0.000 HD
ENDBRANCH  20  21
ENDBRANCH  19  20
ENDBRANCH  18  19
ENDBRANCH  16  18
ENDBRANCH   6  10
BRANCH   1  23
ATOM     23  C   UNL     1       8.724  10.538  17.787  0.00  0.00    +0.000 C 
BRANCH  23  24
ATOM     24  C   UNL     1       9.518  11.052  18.976  0.00  0.00    +0.000 C 
BRANCH  24  26
ATOM     25  C   UNL     1      10.890  12.457  17.679  0.00  0.00    +0.000 C 
ATOM     26  O   UNL     1      10.853  11.338  18.554  0.00  0.00    +0.000 OA
ENDBRANCH  24  26
ENDBRANCH  23  24
ENDBRANCH   1  23
TORSDOF 8
ENDMDL
MODEL 7
REMARK VINA RESULT:      -7.0      4.749      6.833
REMARK  Name = 
REMARK  9 active torsions:
REMARK  status: ('A' for Active; 'I' for Inactive)
REMARK    1  A    between atoms: C_1  and  O_2
REMARK    2  A    between atoms: O_2  and  C_3
REMARK    3  A    between atoms: C_3  and  C_4
REMARK    4  A    between atoms: C_4  and  C_5
REMARK    5  A    between atoms: C_10  and  C_11
REMARK    6  A    between atoms: C_17  and  C_18
REMARK    7  A    between atoms: C_18  and  C_19
REMARK    8  A    between atoms: C_19  and  C_20
REMARK    9  A    between atoms: C_20  and  O_21
REMARK                            x       y       z     vdW  Elec       q    Type
REMARK                         _______ _______ _______ _____ _____    ______ ____
ROOT
ATOM      1  C   UNL     1       8.450   9.416  18.138  0.00  0.00    +0.000 A 
ATOM      2  N   UNL     1       8.855   8.511  19.006  0.00  0.00    +0.000 NA
ATOM      3  C   UNL     1       8.164   7.390  18.641  0.00  0.00    +0.000 A 
ATOM      4  C   UNL     1       8.222   6.091  19.153  0.00  0.00    +0.000 A 
ATOM      5  C   UNL     1       7.434   5.112  18.535  0.00  0.00    +0.000 A 
ATOM      6  C   UNL     1       6.514   5.430  17.518  0.00  0.00    +0.000 A 
ATOM      7  C   UNL     1       6.462   6.737  16.990  0.00  0.00    +0.000 A 
ATOM      8  C   UNL     1       7.315   7.666  17.581  0.00  0.00    +0.000 A 
ATOM      9  O   UNL     1       7.501   8.980  17.246  0.00  0.00    +0.000 OA
ENDROOT
BRANCH   6  10
ATOM     10  C   UNL     1       5.631   4.382  16.912  0.00  0.00    +0.000 C 
ATOM     11  O   UNL     1       5.920   3.992  15.781  0.00  0.00    +0.000 OA
ATOM     12  N   UNL     1       4.539   3.868  17.625  0.00  0.00    +0.000 N 
ATOM     13  C   UNL     1       3.881   2.654  17.152  0.00  0.00    +0.000 C 
ATOM     14  C   UNL     1       2.393   2.893  16.914  0.00  0.00    +0.000 C 
ATOM     15  C   UNL     1       1.712   3.477  18.156  0.00  0.00    +0.000 C 
ATOM     16  C   UNL     1       2.436   4.741  18.648  0.00  0.00    +0.000 C 
ATOM     17  C   UNL     1       3.937   4.473  18.807  0.00  0.00    +0.000 C 
BRANCH  16  18
ATOM     18  C   UNL     1       1.827   5.261  19.969  0.00  0.00    +0.000 C 
BRANCH  18  19
ATOM     19  C   UNL     1       1.211   4.150  20.830  0.00  0.00    +0.000 C 
BRANCH  19  20
ATOM     20  C   UNL     1       2.193   3.585  21.847  0.00  0.00    +0.000 C 
BRANCH  20  21
ATOM     21  O   UNL     1       2.665   2.318  21.396  0.00  0.00    +0.000 OA
ATOM     22  H   UNL     1       3.583   2.214  21.701  0.00  0.00    +0.000 HD
ENDBRANCH  20  21
ENDBRANCH  19  20
ENDBRANCH  18  19
ENDBRANCH  16  18
ENDBRANCH   6  10
BRANCH   1  23
ATOM     23  C   UNL     1       8.909  10.819  18.013  0.00  0.00    +0.000 C 
BRANCH  23  24
ATOM     24  C   UNL     1       9.988  11.146  19.032  0.00  0.00    +0.000 C 
BRANCH  24  26
ATOM     25  C   UNL     1      10.310  12.579  20.871  0.00  0.00    +0.000 C 
ATOM     26  O   UNL     1       9.381  11.762  20.170  0.00  0.00    +0.000 OA
ENDBRANCH  24  26
ENDBRANCH  23  24
ENDBRANCH   1  23
TORSDOF 8
ENDMDL
MODEL 8
REMARK VINA RESULT:      -7.0      1.574      1.983
REMARK  Name = 
REMARK  9 active torsions:
REMARK  status: ('A' for Active; 'I' for Inactive)
REMARK    1  A    between atoms: C_1  and  O_2
REMARK    2  A    between atoms: O_2  and  C_3
REMARK    3  A    between atoms: C_3  and  C_4
REMARK    4  A    between atoms: C_4  and  C_5
REMARK    5  A    between atoms: C_10  and  C_11
REMARK    6  A    between atoms: C_17  and  C_18
REMARK    7  A    between atoms: C_18  and  C_19
REMARK    8  A    between atoms: C_19  and  C_20
REMARK    9  A    between atoms: C_20  and  O_21
REMARK                            x       y       z     vdW  Elec       q    Type
REMARK                         _______ _______ _______ _____ _____    ______ ____
ROOT
ATOM      1  C   UNL     1      -0.614  11.429  19.695  0.00  0.00    +0.000 A 
ATOM      2  N   UNL     1      -0.452  10.595  20.702  0.00  0.00    +0.000 NA
ATOM      3  C   UNL     1       0.431   9.674  20.213  0.00  0.00    +0.000 A 
ATOM      4  C   UNL     1       1.030   8.580  20.841  0.00  0.00    +0.000 A 
ATOM      5  C   UNL     1       1.956   7.832  20.103  0.00  0.00    +0.000 A 
ATOM      6  C   UNL     1       2.194   8.081  18.738  0.00  0.00    +0.000 A 
ATOM      7  C   UNL     1       1.601   9.192  18.104  0.00  0.00    +0.000 A 
ATOM      8  C   UNL     1       0.743   9.955  18.892  0.00  0.00    +0.000 A 
ATOM      9  O   UNL     1       0.071  11.098  18.551  0.00  0.00    +0.000 OA
ENDROOT
BRANCH   6  10
ATOM     10  C   UNL     1       3.140   7.230  17.945  0.00  0.00    +0.000 C 
ATOM     11  O   UNL     1       3.816   7.797  17.087  0.00  0.00    +0.000 OA
ATOM     12  N   UNL     1       3.249   5.856  18.198  0.00  0.00    +0.000 N 
ATOM     13  C   UNL     1       4.372   5.110  17.638  0.00  0.00    +0.000 C 
ATOM     14  C   UNL     1       3.884   3.945  16.782  0.00  0.00    +0.000 C 
ATOM     15  C   UNL     1       2.918   3.043  17.557  0.00  0.00    +0.000 C 
ATOM     16  C   UNL     1       1.757   3.855  18.157  0.00  0.00    +0.000 C 
ATOM     17  C   UNL     1       2.292   5.052  18.950  0.00  0.00    +0.000 C 
BRANCH  16  18
ATOM     18  C   UNL     1       0.849   2.971  19.041  0.00  0.00    +0.000 C 
BRANCH  18  19
ATOM     19  C   UNL     1       1.622   2.199  20.120  0.00  0.00    +0.000 C 
BRANCH  19  20
ATOM     20  C   UNL     1       1.291   2.673  21.528  0.00  0.00    +0.000 C 
BRANCH  20  21
ATOM     21  O   UNL     1       2.497   3.002  22.212  0.00  0.00    +0.000 OA
ATOM     22  H   UNL     1       3.214   3.043  21.554  0.00  0.00    +0.000 HD
ENDBRANCH  20  21
ENDBRANCH  19  20
ENDBRANCH  18  19
ENDBRANCH  16  18
ENDBRANCH   6  10
BRANCH   1  23
ATOM     23  C   UNL     1      -1.426  12.668  19.669  0.00  0.00    +0.000 C 
BRANCH  23  24
ATOM     24  C   UNL     1      -2.902  12.374  19.873  0.00  0.00    +0.000 C 
BRANCH  24  26
ATOM     25  C   UNL     1      -3.649  12.753  22.072  0.00  0.00    +0.000 C 
ATOM     26  O   UNL     1      -3.445  13.328  20.788  0.00  0.00    +0.000 OA
ENDBRANCH  24  26
ENDBRANCH  23  24
ENDBRANCH   1  23
TORSDOF 8
ENDMDL
MODEL 9
REMARK VINA RESULT:      -7.0      3.144      7.889
REMARK  Name = 
REMARK  9 active torsions:
REMARK  status: ('A' for Active; 'I' for Inactive)
REMARK    1  A    between atoms: C_1  and  O_2
REMARK    2  A    between atoms: O_2  and  C_3
REMARK    3  A    between atoms: C_3  and  C_4
REMARK    4  A    between atoms: C_4  and  C_5
REMARK    5  A    between atoms: C_10  and  C_11
REMARK    6  A    between atoms: C_17  and  C_18
REMARK    7  A    between atoms: C_18  and  C_19
REMARK    8  A    between atoms: C_19  and  C_20
REMARK    9  A    between atoms: C_20  and  O_21
REMARK                            x       y       z     vdW  Elec       q    Type
REMARK                         _______ _______ _______ _____ _____    ______ ____
ROOT
ATOM      1  C   UNL     1       3.375   4.694  19.474  0.00  0.00    +0.000 A 
ATOM      2  N   UNL     1       3.679   5.375  18.388  0.00  0.00    +0.000 NA
ATOM      3  C   UNL     1       3.047   6.572  18.577  0.00  0.00    +0.000 A 
ATOM      4  C   UNL     1       3.053   7.726  17.790  0.00  0.00    +0.000 A 
ATOM      5  C   UNL     1       2.353   8.842  18.266  0.00  0.00    +0.000 A 
ATOM      6  C   UNL     1       1.562   8.784  19.429  0.00  0.00    +0.000 A 
ATOM      7  C   UNL     1       1.564   7.625  20.232  0.00  0.00    +0.000 A 
ATOM      8  C   UNL     1       2.331   6.561  19.763  0.00  0.00    +0.000 A 
ATOM      9  O   UNL     1       2.545   5.344  20.354  0.00  0.00    +0.000 OA
ENDROOT
BRANCH   6  10
ATOM     10  C   UNL     1       0.766   9.968  19.889  0.00  0.00    +0.000 C 
ATOM     11  O   UNL     1       0.901  10.309  21.064  0.00  0.00    +0.000 OA
ATOM     12  N   UNL     1      -0.074  10.653  19.002  0.00  0.00    +0.000 N 
ATOM     13  C   UNL     1      -0.598  11.963  19.378  0.00  0.00    +0.000 C 
ATOM     14  C   UNL     1      -2.123  11.977  19.332  0.00  0.00    +0.000 C 
ATOM     15  C   UNL     1      -2.649  11.510  17.971  0.00  0.00    +0.000 C 
ATOM     16  C   UNL     1      -2.065  10.140  17.587  0.00  0.00    +0.000 C 
ATOM     17  C   UNL     1      -0.538  10.153  17.713  0.00  0.00    +0.000 C 
BRANCH  16  18
ATOM     18  C   UNL     1      -2.495   9.723  16.163  0.00  0.00    +0.000 C 
BRANCH  18  19
ATOM     19  C   UNL     1      -3.657  10.561  15.612  0.00  0.00    +0.000 C 
BRANCH  19  20
ATOM     20  C   UNL     1      -3.940  10.274  14.143  0.00  0.00    +0.000 C 
BRANCH  20  21
ATOM     21  O   UNL     1      -2.717   9.975  13.476  0.00  0.00    +0.000 OA
ATOM     22  H   UNL     1      -1.994  10.399  13.970  0.00  0.00    +0.000 HD
ENDBRANCH  20  21
ENDBRANCH  19  20
ENDBRANCH  18  19
ENDBRANCH  16  18
ENDBRANCH   6  10
BRANCH   1  23
ATOM     23  C   UNL     1       3.835   3.336  19.848  0.00  0.00    +0.000 C 
BRANCH  23  24
ATOM     24  C   UNL     1       3.303   2.282  18.891  0.00  0.00    +0.000 C 
BRANCH  24  26
ATOM     25  C   UNL     1       0.958   2.448  18.784  0.00  0.00    +0.000 C 
ATOM     26  O   UNL     1       2.060   1.786  19.391  0.00  0.00    +0.000 OA
ENDBRANCH  24  26
ENDBRANCH  23  24
ENDBRANCH   1  23
TORSDOF 8
ENDMDL
