MODEL 1
REMARK VINA RESULT:      -7.3      0.000      0.000
REMARK  Name = 
REMARK  7 active torsions:
REMARK  status: ('A' for Active; 'I' for Inactive)
REMARK    1  A    between atoms: C_1  and  C_2
REMARK    2  A    between atoms: C_2  and  O_3
REMARK    3  A    between atoms: O_3  and  C_4
REMARK    4  A    between atoms: C_8  and  C_9
REMARK    5  A    between atoms: C_15  and  C_16
REMARK    6  A    between atoms: C_18  and  C_19
REMARK    7  A    between atoms: C_18  and  C_20
REMARK                            x       y       z     vdW  Elec       q    Type
REMARK                         _______ _______ _______ _____ _____    ______ ____
ROOT
ATOM      1  C   UNL     1       5.103   3.915  16.477  0.00  0.00    +0.000 A 
ATOM      2  C   UNL     1       4.747   3.125  17.564  0.00  0.00    +0.000 A 
ATOM      3  C   UNL     1       4.015   3.675  18.605  0.00  0.00    +0.000 A 
ATOM      4  C   UNL     1       3.618   5.030  18.579  0.00  0.00    +0.000 A 
ATOM      5  C   UNL     1       2.885   5.657  19.583  0.00  0.00    +0.000 A 
ATOM      6  C   UNL     1       2.400   4.987  20.831  0.00  0.00    +0.000 C 
ATOM      7  N   UNL     1       2.523   6.949  19.493  0.00  0.00    +0.000 NA
ATOM      8  C   UNL     1       2.860   7.653  18.399  0.00  0.00    +0.000 A 
ATOM      9  N   UNL     1       2.404   8.966  18.282  0.00  0.00    +0.000 N 
ATOM     10  C   UNL     1       1.403   9.549  19.010  0.00  0.00    +0.000 C 
ATOM     11  N   UNL     1       0.702  10.529  18.506  0.00  0.00    +0.000 NA
ATOM     12  C   UNL     1      -0.316  11.029  19.288  0.00  0.00    +0.000 C 
ATOM     13  C   UNL     1      -1.097  12.185  18.735  0.00  0.00    +0.000 C 
ATOM     14  C   UNL     1      -0.660  10.501  20.473  0.00  0.00    +0.000 C 
ATOM     15  C   UNL     1       0.052   9.325  21.061  0.00  0.00    +0.000 C 
ATOM     16  C   UNL     1      -0.862   8.095  21.047  0.00  0.00    +0.000 C 
ATOM     17  C   UNL     1       0.517   9.633  22.487  0.00  0.00    +0.000 C 
ATOM     18  N   UNL     1       1.227   9.059  20.272  0.00  0.00    +0.000 N 
ATOM     19  N   UNL     1       3.584   7.133  17.398  0.00  0.00    +0.000 NA
ATOM     20  C   UNL     1       3.958   5.840  17.486  0.00  0.00    +0.000 A 
ATOM     21  C   UNL     1       4.702   5.260  16.453  0.00  0.00    +0.000 A 
ATOM     22  H   UNL     1       2.547   9.333  17.354  0.00  0.00    +0.000 HD
ATOM     23  H   UNL     1       1.661   8.151  20.429  0.00  0.00    +0.000 HD
ENDROOT
BRANCH   1  24
ATOM     24  O   UNL     1       5.830   3.480  15.398  0.00  0.00    +0.000 OA
BRANCH  24  26
ATOM     25  C   UNL     1       6.052   3.659  13.003  0.00  0.00    +0.000 C 
ATOM     26  C   UNL     1       5.956   4.411  14.317  0.00  0.00    +0.000 C 
ENDBRANCH  24  26
ENDBRANCH   1  24
TORSDOF 2
ENDMDL
MODEL 2
REMARK VINA RESULT:      -6.8      3.498      8.421
REMARK  Name = 
REMARK  7 active torsions:
REMARK  status: ('A' for Active; 'I' for Inactive)
REMARK    1  A    between atoms: C_1  and  C_2
REMARK    2  A    between atoms: C_2  and  O_3
REMARK    3  A    between atoms: O_3  and  C_4
REMARK    4  A    between atoms: C_8  and  C_9
REMARK    5  A    between atoms: C_15  and  C_16
REMARK    6  A    between atoms: C_18  and  C_19
REMARK    7  A    between atoms: C_18  and  C_20
REMARK                            x       y       z     vdW  Elec       q    Type
REMARK                         _______ _______ _______ _____ _____    ______ ____
ROOT
ATOM      1  C   UNL     1      -1.127  11.992  20.818  0.00  0.00    +0.000 A 
ATOM      2  C   UNL     1      -0.721  12.253  19.514  0.00  0.00    +0.000 A 
ATOM      3  C   UNL     1       0.132  11.371  18.869  0.00  0.00    +0.000 A 
ATOM      4  C   UNL     1       0.594  10.203  19.513  0.00  0.00    +0.000 A 
ATOM      5  C   UNL     1       1.451   9.269  18.936  0.00  0.00    +0.000 A 
ATOM      6  C   UNL     1       2.001   9.360  17.546  0.00  0.00    +0.000 C 
ATOM      7  N   UNL     1       1.844   8.166  19.597  0.00  0.00    +0.000 NA
ATOM      8  C   UNL     1       1.387   7.944  20.841  0.00  0.00    +0.000 A 
ATOM      9  N   UNL     1       1.735   6.754  21.480  0.00  0.00    +0.000 N 
ATOM     10  C   UNL     1       2.253   5.634  20.889  0.00  0.00    +0.000 C 
ATOM     11  N   UNL     1       2.047   4.455  21.412  0.00  0.00    +0.000 NA
ATOM     12  C   UNL     1       2.567   3.377  20.730  0.00  0.00    +0.000 C 
ATOM     13  C   UNL     1       2.374   2.022  21.347  0.00  0.00    +0.000 C 
ATOM     14  C   UNL     1       3.178   3.483  19.540  0.00  0.00    +0.000 C 
ATOM     15  C   UNL     1       3.367   4.798  18.854  0.00  0.00    +0.000 C 
ATOM     16  C   UNL     1       2.477   4.875  17.608  0.00  0.00    +0.000 C 
ATOM     17  C   UNL     1       4.836   5.006  18.478  0.00  0.00    +0.000 C 
ATOM     18  N   UNL     1       3.003   5.849  19.769  0.00  0.00    +0.000 N 
ATOM     19  N   UNL     1       0.577   8.803  21.477  0.00  0.00    +0.000 NA
ATOM     20  C   UNL     1       0.187   9.916  20.824  0.00  0.00    +0.000 A 
ATOM     21  C   UNL     1      -0.669  10.827  21.453  0.00  0.00    +0.000 A 
ATOM     22  H   UNL     1       1.191   6.603  22.315  0.00  0.00    +0.000 HD
ATOM     23  H   UNL     1       2.865   6.766  19.348  0.00  0.00    +0.000 HD
ENDROOT
BRANCH   1  24
ATOM     24  O   UNL     1      -1.960  12.795  21.554  0.00  0.00    +0.000 OA
BRANCH  24  26
ATOM     25  C   UNL     1      -3.262  12.313  23.526  0.00  0.00    +0.000 C 
ATOM     26  C   UNL     1      -1.886  12.633  22.975  0.00  0.00    +0.000 C 
ENDBRANCH  24  26
ENDBRANCH   1  24
TORSDOF 2
ENDMDL
MODEL 3
REMARK VINA RESULT:      -6.8      2.799      4.620
REMARK  Name = 
REMARK  7 active torsions:
REMARK  status: ('A' for Active; 'I' for Inactive)
REMARK    1  A    between atoms: C_1  and  C_2
REMARK    2  A    between atoms: C_2  and  O_3
REMARK    3  A    between atoms: O_3  and  C_4
REMARK    4  A    between atoms: C_8  and  C_9
REMARK    5  A    between atoms: C_15  and  C_16
REMARK    6  A    between atoms: C_18  and  C_19
REMARK    7  A    between atoms: C_18  and  C_20
REMARK                            x       y       z     vdW  Elec       q    Type
REMARK                         _______ _______ _______ _____ _____    ______ ____
ROOT
ATOM      1  C   UNL     1       2.796   4.699  20.122  0.00  0.00    +0.000 A 
ATOM      2  C   UNL     1       3.389   5.163  18.953  0.00  0.00    +0.000 A 
ATOM      3  C   UNL     1       3.117   6.447  18.505  0.00  0.00    +0.000 A 
ATOM      4  C   UNL     1       2.248   7.299  19.222  0.00  0.00    +0.000 A 
ATOM      5  C   UNL     1       1.922   8.597  18.840  0.00  0.00    +0.000 A 
ATOM      6  C   UNL     1       2.453   9.287  17.621  0.00  0.00    +0.000 C 
ATOM      7  N   UNL     1       1.099   9.365  19.575  0.00  0.00    +0.000 NA
ATOM      8  C   UNL     1       0.588   8.878  20.719  0.00  0.00    +0.000 A 
ATOM      9  N   UNL     1      -0.195   9.717  21.512  0.00  0.00    +0.000 N 
ATOM     10  C   UNL     1      -0.276  11.080  21.424  0.00  0.00    +0.000 C 
ATOM     11  N   UNL     1      -0.570  11.795  22.476  0.00  0.00    +0.000 NA
ATOM     12  C   UNL     1      -0.588  13.162  22.311  0.00  0.00    +0.000 C 
ATOM     13  C   UNL     1      -0.970  13.989  23.504  0.00  0.00    +0.000 C 
ATOM     14  C   UNL     1      -0.236  13.770  21.167  0.00  0.00    +0.000 C 
ATOM     15  C   UNL     1       0.191  13.005  19.955  0.00  0.00    +0.000 C 
ATOM     16  C   UNL     1       1.688  13.216  19.700  0.00  0.00    +0.000 C 
ATOM     17  C   UNL     1      -0.627  13.428  18.733  0.00  0.00    +0.000 C 
ATOM     18  N   UNL     1      -0.064  11.606  20.182  0.00  0.00    +0.000 N 
ATOM     19  N   UNL     1       0.832   7.632  21.146  0.00  0.00    +0.000 NA
ATOM     20  C   UNL     1       1.649   6.852  20.410  0.00  0.00    +0.000 A 
ATOM     21  C   UNL     1       1.937   5.550  20.834  0.00  0.00    +0.000 A 
ATOM     22  H   UNL     1      -0.363   9.322  22.424  0.00  0.00    +0.000 HD
ATOM     23  H   UNL     1       0.395  10.968  19.535  0.00  0.00    +0.000 HD
ENDROOT
BRANCH   1  24
ATOM     24  O   UNL     1       2.987   3.449  20.653  0.00  0.00    +0.000 OA
BRANCH  24  26
ATOM     25  C   UNL     1       1.443   2.154  19.329  0.00  0.00    +0.000 C 
ATOM     26  C   UNL     1       1.823   2.618  20.721  0.00  0.00    +0.000 C 
ENDBRANCH  24  26
ENDBRANCH   1  24
TORSDOF 2
ENDMDL
MODEL 4
REMARK VINA RESULT:      -6.7      2.779      7.699
REMARK  Name = 
REMARK  7 active torsions:
REMARK  status: ('A' for Active; 'I' for Inactive)
REMARK    1  A    between atoms: C_1  and  C_2
REMARK    2  A    between atoms: C_2  and  O_3
REMARK    3  A    between atoms: O_3  and  C_4
REMARK    4  A    between atoms: C_8  and  C_9
REMARK    5  A    between atoms: C_15  and  C_16
REMARK    6  A    between atoms: C_18  and  C_19
REMARK    7  A    between atoms: C_18  and  C_20
REMARK                            x       y       z     vdW  Elec       q    Type
REMARK                         _______ _______ _______ _____ _____    ______ ____
ROOT
ATOM      1  C   UNL     1       0.446  11.143  20.332  0.00  0.00    +0.000 A 
ATOM      2  C   UNL     1       0.219  10.254  21.377  0.00  0.00    +0.000 A 
ATOM      3  C   UNL     1       0.676   8.949  21.282  0.00  0.00    +0.000 A 
ATOM      4  C   UNL     1       1.376   8.504  20.139  0.00  0.00    +0.000 A 
ATOM      5  C   UNL     1       1.866   7.212  19.966  0.00  0.00    +0.000 A 
ATOM      6  C   UNL     1       1.732   6.107  20.968  0.00  0.00    +0.000 C 
ATOM      7  N   UNL     1       2.539   6.854  18.858  0.00  0.00    +0.000 NA
ATOM      8  C   UNL     1       2.765   7.767  17.899  0.00  0.00    +0.000 A 
ATOM      9  N   UNL     1       3.539   7.402  16.797  0.00  0.00    +0.000 N 
ATOM     10  C   UNL     1       4.353   6.307  16.700  0.00  0.00    +0.000 C 
ATOM     11  N   UNL     1       5.397   6.326  15.915  0.00  0.00    +0.000 NA
ATOM     12  C   UNL     1       6.188   5.198  15.910  0.00  0.00    +0.000 C 
ATOM     13  C   UNL     1       7.365   5.194  14.978  0.00  0.00    +0.000 C 
ATOM     14  C   UNL     1       5.983   4.151  16.724  0.00  0.00    +0.000 C 
ATOM     15  C   UNL     1       4.852   4.110  17.702  0.00  0.00    +0.000 C 
ATOM     16  C   UNL     1       5.392   4.212  19.134  0.00  0.00    +0.000 C 
ATOM     17  C   UNL     1       4.032   2.829  17.527  0.00  0.00    +0.000 C 
ATOM     18  N   UNL     1       3.977   5.223  17.439  0.00  0.00    +0.000 N 
ATOM     19  N   UNL     1       2.309   9.025  17.976  0.00  0.00    +0.000 NA
ATOM     20  C   UNL     1       1.624   9.389  19.079  0.00  0.00    +0.000 A 
ATOM     21  C   UNL     1       1.146  10.699  19.200  0.00  0.00    +0.000 A 
ATOM     22  H   UNL     1       3.804   8.201  16.243  0.00  0.00    +0.000 HD
ATOM     23  H   UNL     1       3.309   5.436  18.177  0.00  0.00    +0.000 HD
ENDROOT
BRANCH   1  24
ATOM     24  O   UNL     1       0.034  12.451  20.315  0.00  0.00    +0.000 OA
BRANCH  24  26
ATOM     25  C   UNL     1      -2.286  12.366  19.663  0.00  0.00    +0.000 C 
ATOM     26  C   UNL     1      -0.887  12.800  19.274  0.00  0.00    +0.000 C 
ENDBRANCH  24  26
ENDBRANCH   1  24
TORSDOF 2
ENDMDL
MODEL 5
REMARK VINA RESULT:      -6.5      3.301      7.748
REMARK  Name = 
REMARK  7 active torsions:
REMARK  status: ('A' for Active; 'I' for Inactive)
REMARK    1  A    between atoms: C_1  and  C_2
REMARK    2  A    between atoms: C_2  and  O_3
REMARK    3  A    between atoms: O_3  and  C_4
REMARK    4  A    between atoms: C_8  and  C_9
REMARK    5  A    between atoms: C_15  and  C_16
REMARK    6  A    between atoms: C_18  and  C_19
REMARK    7  A    between atoms: C_18  and  C_20
REMARK                            x       y       z     vdW  Elec       q    Type
REMARK                         _______ _______ _______ _____ _____    ______ ____
ROOT
ATOM      1  C   UNL     1       0.945  13.408  19.660  0.00  0.00    +0.000 A 
ATOM      2  C   UNL     1       0.235  12.900  20.742  0.00  0.00    +0.000 A 
ATOM      3  C   UNL     1       0.155  11.529  20.932  0.00  0.00    +0.000 A 
ATOM      4  C   UNL     1       0.790  10.634  20.044  0.00  0.00    +0.000 A 
ATOM      5  C   UNL     1       0.757   9.247  20.163  0.00  0.00    +0.000 A 
ATOM      6  C   UNL     1       0.054   8.500  21.254  0.00  0.00    +0.000 C 
ATOM      7  N   UNL     1       1.396   8.447  19.291  0.00  0.00    +0.000 NA
ATOM      8  C   UNL     1       2.102   8.995  18.288  0.00  0.00    +0.000 A 
ATOM      9  N   UNL     1       2.830   8.154  17.445  0.00  0.00    +0.000 N 
ATOM     10  C   UNL     1       3.157   6.847  17.681  0.00  0.00    +0.000 C 
ATOM     11  N   UNL     1       4.231   6.327  17.151  0.00  0.00    +0.000 NA
ATOM     12  C   UNL     1       4.510   5.018  17.476  0.00  0.00    +0.000 C 
ATOM     13  C   UNL     1       5.718   4.399  16.835  0.00  0.00    +0.000 C 
ATOM     14  C   UNL     1       3.792   4.310  18.362  0.00  0.00    +0.000 C 
ATOM     15  C   UNL     1       2.602   4.882  19.064  0.00  0.00    +0.000 C 
ATOM     16  C   UNL     1       2.916   5.085  20.550  0.00  0.00    +0.000 C 
ATOM     17  C   UNL     1       1.384   3.971  18.891  0.00  0.00    +0.000 C 
ATOM     18  N   UNL     1       2.281   6.151  18.463  0.00  0.00    +0.000 N 
ATOM     19  N   UNL     1       2.167  10.319  18.088  0.00  0.00    +0.000 NA
ATOM     20  C   UNL     1       1.521  11.127  18.952  0.00  0.00    +0.000 A 
ATOM     21  C   UNL     1       1.578  12.515  18.783  0.00  0.00    +0.000 A 
ATOM     22  H   UNL     1       3.466   8.670  16.858  0.00  0.00    +0.000 HD
ATOM     23  H   UNL     1       1.645   6.739  18.999  0.00  0.00    +0.000 HD
ENDROOT
BRANCH   1  24
ATOM     24  O   UNL     1       1.084  14.741  19.371  0.00  0.00    +0.000 OA
BRANCH  24  26
ATOM     25  C   UNL     1       2.257  16.590  18.361  0.00  0.00    +0.000 C 
ATOM     26  C   UNL     1       2.198  15.085  18.540  0.00  0.00    +0.000 C 
ENDBRANCH  24  26
ENDBRANCH   1  24
TORSDOF 2
ENDMDL
MODEL 6
REMARK VINA RESULT:      -6.4      2.172      3.770
REMARK  Name = 
REMARK  7 active torsions:
REMARK  status: ('A' for Active; 'I' for Inactive)
REMARK    1  A    between atoms: C_1  and  C_2
REMARK    2  A    between atoms: C_2  and  O_3
REMARK    3  A    between atoms: O_3  and  C_4
REMARK    4  A    between atoms: C_8  and  C_9
REMARK    5  A    between atoms: C_15  and  C_16
REMARK    6  A    between atoms: C_18  and  C_19
REMARK    7  A    between atoms: C_18  and  C_20
REMARK                            x       y       z     vdW  Elec       q    Type
REMARK                         _______ _______ _______ _____ _____    ______ ____
ROOT
ATOM      1  C   UNL     1       4.308   4.476  19.283  0.00  0.00    +0.000 A 
ATOM      2  C   UNL     1       4.707   5.170  18.146  0.00  0.00    +0.000 A 
ATOM      3  C   UNL     1       4.091   6.368  17.819  0.00  0.00    +0.000 A 
ATOM      4  C   UNL     1       3.064   6.903  18.627  0.00  0.00    +0.000 A 
ATOM      5  C   UNL     1       2.396   8.097  18.368  0.00  0.00    +0.000 A 
ATOM      6  C   UNL     1       2.674   8.995  17.202  0.00  0.00    +0.000 C 
ATOM      7  N   UNL     1       1.435   8.562  19.187  0.00  0.00    +0.000 NA
ATOM      8  C   UNL     1       1.121   7.870  20.295  0.00  0.00    +0.000 A 
ATOM      9  N   UNL     1       0.184   8.409  21.176  0.00  0.00    +0.000 N 
ATOM     10  C   UNL     1      -0.252   9.705  21.210  0.00  0.00    +0.000 C 
ATOM     11  N   UNL     1      -0.674  10.233  22.327  0.00  0.00    +0.000 NA
ATOM     12  C   UNL     1      -1.054  11.556  22.283  0.00  0.00    +0.000 C 
ATOM     13  C   UNL     1      -1.582  12.158  23.552  0.00  0.00    +0.000 C 
ATOM     14  C   UNL     1      -0.922  12.323  21.189  0.00  0.00    +0.000 C 
ATOM     15  C   UNL     1      -0.367  11.794  19.905  0.00  0.00    +0.000 C 
ATOM     16  C   UNL     1       1.011  12.410  19.635  0.00  0.00    +0.000 C 
ATOM     17  C   UNL     1      -1.321  12.083  18.743  0.00  0.00    +0.000 C 
ATOM     18  N   UNL     1      -0.240  10.364  20.014  0.00  0.00    +0.000 N 
ATOM     19  N   UNL     1       1.699   6.701  20.606  0.00  0.00    +0.000 NA
ATOM     20  C   UNL     1       2.656   6.224  19.785  0.00  0.00    +0.000 A 
ATOM     21  C   UNL     1       3.291   5.014  20.086  0.00  0.00    +0.000 A 
ATOM     22  H   UNL     1       0.165   7.913  22.053  0.00  0.00    +0.000 HD
ATOM     23  H   UNL     1       0.339   9.922  19.303  0.00  0.00    +0.000 HD
ENDROOT
BRANCH   1  24
ATOM     24  O   UNL     1       4.841   3.282  19.698  0.00  0.00    +0.000 OA
BRANCH  24  26
ATOM     25  C   UNL     1       3.474   1.769  18.411  0.00  0.00    +0.000 C 
ATOM     26  C   UNL     1       3.918   2.191  19.798  0.00  0.00    +0.000 C 
ENDBRANCH  24  26
ENDBRANCH   1  24
TORSDOF 2
ENDMDL
MODEL 7
REMARK VINA RESULT:      -6.3      3.323      8.093
REMARK  Name = 
REMARK  7 active torsions:
REMARK  status: ('A' for Active; 'I' for Inactive)
REMARK    1  A    between atoms: C_1  and  C_2
REMARK    2  A    between atoms: C_2  and  O_3
REMARK    3  A    between atoms: O_3  and  C_4
REMARK    4  A    between atoms: C_8  and  C_9
REMARK    5  A    between atoms: C_15  and  C_16
REMARK    6  A    between atoms: C_18  and  C_19
REMARK    7  A    between atoms: C_18  and  C_20
REMARK                            x       y       z     vdW  Elec       q    Type
REMARK                         _______ _______ _______ _____ _____    ______ ____
ROOT
ATOM      1  C   UNL     1      -0.045  13.372  21.057  0.00  0.00    +0.000 A 
ATOM      2  C   UNL     1      -0.594  12.559  22.042  0.00  0.00    +0.000 A 
ATOM      3  C   UNL     1      -0.464  11.182  21.950  0.00  0.00    +0.000 A 
ATOM      4  C   UNL     1       0.224  10.586  20.871  0.00  0.00    +0.000 A 
ATOM      5  C   UNL     1       0.397   9.215  20.705  0.00  0.00    +0.000 A 
ATOM      6  C   UNL     1      -0.111   8.170  21.650  0.00  0.00    +0.000 C 
ATOM      7  N   UNL     1       1.077   8.708  19.661  0.00  0.00    +0.000 NA
ATOM      8  C   UNL     1       1.622   9.544  18.761  0.00  0.00    +0.000 A 
ATOM      9  N   UNL     1       2.397   9.007  17.733  0.00  0.00    +0.000 N 
ATOM     10  C   UNL     1       2.922   7.745  17.682  0.00  0.00    +0.000 C 
ATOM     11  N   UNL     1       4.017   7.511  17.010  0.00  0.00    +0.000 NA
ATOM     12  C   UNL     1       4.502   6.222  17.048  0.00  0.00    +0.000 C 
ATOM     13  C   UNL     1       5.735   5.933  16.241  0.00  0.00    +0.000 C 
ATOM     14  C   UNL     1       3.959   5.252  17.801  0.00  0.00    +0.000 C 
ATOM     15  C   UNL     1       2.755   5.485  18.656  0.00  0.00    +0.000 C 
ATOM     16  C   UNL     1       3.145   5.439  20.138  0.00  0.00    +0.000 C 
ATOM     17  C   UNL     1       1.669   4.450  18.354  0.00  0.00    +0.000 C 
ATOM     18  N   UNL     1       2.214   6.783  18.342  0.00  0.00    +0.000 N 
ATOM     19  N   UNL     1       1.483  10.875  18.834  0.00  0.00    +0.000 NA
ATOM     20  C   UNL     1       0.795  11.390  19.873  0.00  0.00    +0.000 A 
ATOM     21  C   UNL     1       0.642  12.776  19.989  0.00  0.00    +0.000 A 
ATOM     22  H   UNL     1       2.908   9.720  17.237  0.00  0.00    +0.000 HD
ATOM     23  H   UNL     1       1.543   7.149  19.015  0.00  0.00    +0.000 HD
ENDROOT
BRANCH   1  24
ATOM     24  O   UNL     1      -0.118  14.741  21.042  0.00  0.00    +0.000 OA
BRANCH  24  26
ATOM     25  C   UNL     1       0.353  16.534  19.499  0.00  0.00    +0.000 C 
ATOM     26  C   UNL     1      -0.518  15.329  19.799  0.00  0.00    +0.000 C 
ENDBRANCH  24  26
ENDBRANCH   1  24
TORSDOF 2
ENDMDL
MODEL 8
REMARK VINA RESULT:      -6.2      3.741      8.818
REMARK  Name = 
REMARK  7 active torsions:
REMARK  status: ('A' for Active; 'I' for Inactive)
REMARK    1  A    between atoms: C_1  and  C_2
REMARK    2  A    between atoms: C_2  and  O_3
REMARK    3  A    between atoms: O_3  and  C_4
REMARK    4  A    between atoms: C_8  and  C_9
REMARK    5  A    between atoms: C_15  and  C_16
REMARK    6  A    between atoms: C_18  and  C_19
REMARK    7  A    between atoms: C_18  and  C_20
REMARK                            x       y       z     vdW  Elec       q    Type
REMARK                         _______ _______ _______ _____ _____    ______ ____
ROOT
ATOM      1  C   UNL     1      -1.474  12.302  22.589  0.00  0.00    +0.000 A 
ATOM      2  C   UNL     1      -1.229  12.879  21.347  0.00  0.00    +0.000 A 
ATOM      3  C   UNL     1      -0.452  12.208  20.417  0.00  0.00    +0.000 A 
ATOM      4  C   UNL     1       0.096  10.938  20.706  0.00  0.00    +0.000 A 
ATOM      5  C   UNL     1       0.886  10.201  19.828  0.00  0.00    +0.000 A 
ATOM      6  C   UNL     1       1.264  10.638  18.446  0.00  0.00    +0.000 C 
ATOM      7  N   UNL     1       1.366   8.989  20.158  0.00  0.00    +0.000 NA
ATOM      8  C   UNL     1       1.063   8.462  21.356  0.00  0.00    +0.000 A 
ATOM      9  N   UNL     1       1.497   7.169  21.648  0.00  0.00    +0.000 N 
ATOM     10  C   UNL     1       1.951   6.240  20.752  0.00  0.00    +0.000 C 
ATOM     11  N   UNL     1       1.821   4.965  20.998  0.00  0.00    +0.000 NA
ATOM     12  C   UNL     1       2.265   4.097  20.023  0.00  0.00    +0.000 C 
ATOM     13  C   UNL     1       2.160   2.629  20.317  0.00  0.00    +0.000 C 
ATOM     14  C   UNL     1       2.727   4.505  18.831  0.00  0.00    +0.000 C 
ATOM     15  C   UNL     1       2.820   5.951  18.462  0.00  0.00    +0.000 C 
ATOM     16  C   UNL     1       1.786   6.286  17.381  0.00  0.00    +0.000 C 
ATOM     17  C   UNL     1       4.232   6.297  17.981  0.00  0.00    +0.000 C 
ATOM     18  N   UNL     1       2.559   6.742  19.637  0.00  0.00    +0.000 N 
ATOM     19  N   UNL     1       0.328   9.115  22.268  0.00  0.00    +0.000 NA
ATOM     20  C   UNL     1      -0.149  10.335  21.948  0.00  0.00    +0.000 A 
ATOM     21  C   UNL     1      -0.932  11.039  22.870  0.00  0.00    +0.000 A 
ATOM     22  H   UNL     1       1.059   6.804  22.479  0.00  0.00    +0.000 HD
ATOM     23  H   UNL     1       2.363   7.726  19.466  0.00  0.00    +0.000 HD
ENDROOT
BRANCH   1  24
ATOM     24  O   UNL     1      -2.220  12.877  23.585  0.00  0.00    +0.000 OA
BRANCH  24  26
ATOM     25  C   UNL     1      -4.551  12.860  22.969  0.00  0.00    +0.000 C 
ATOM     26  C   UNL     1      -3.481  12.254  23.856  0.00  0.00    +0.000 C 
ENDBRANCH  24  26
ENDBRANCH   1  24
TORSDOF 2
ENDMDL
MODEL 9
REMARK VINA RESULT:      -6.2      3.743      6.384
REMARK  Name = 
REMARK  7 active torsions:
REMARK  status: ('A' for Active; 'I' for Inactive)
REMARK    1  A    between atoms: C_1  and  C_2
REMARK    2  A    between atoms: C_2  and  O_3
REMARK    3  A    between atoms: O_3  and  C_4
REMARK    4  A    between atoms: C_8  and  C_9
REMARK    5  A    between atoms: C_15  and  C_16
REMARK    6  A    between atoms: C_18  and  C_19
REMARK    7  A    between atoms: C_18  and  C_20
REMARK                            x       y       z     vdW  Elec       q    Type
REMARK                         _______ _______ _______ _____ _____    ______ ____
ROOT
ATOM      1  C   UNL     1       2.040   7.888  19.274  0.00  0.00    +0.000 A 
ATOM      2  C   UNL     1       1.774   8.521  18.065  0.00  0.00    +0.000 A 
ATOM      3  C   UNL     1       0.937   9.626  18.035  0.00  0.00    +0.000 A 
ATOM      4  C   UNL     1       0.349  10.126  19.218  0.00  0.00    +0.000 A 
ATOM      5  C   UNL     1      -0.501  11.227  19.272  0.00  0.00    +0.000 A 
ATOM      6  C   UNL     1      -0.911  12.049  18.089  0.00  0.00    +0.000 C 
ATOM      7  N   UNL     1      -1.018  11.665  20.434  0.00  0.00    +0.000 NA
ATOM      8  C   UNL     1      -0.693  11.039  21.578  0.00  0.00    +0.000 A 
ATOM      9  N   UNL     1      -1.168  11.558  22.782  0.00  0.00    +0.000 N 
ATOM     10  C   UNL     1      -1.691  12.806  22.982  0.00  0.00    +0.000 C 
ATOM     11  N   UNL     1      -1.604  13.381  24.151  0.00  0.00    +0.000 NA
ATOM     12  C   UNL     1      -2.117  14.655  24.255  0.00  0.00    +0.000 C 
ATOM     13  C   UNL     1      -2.061  15.306  25.606  0.00  0.00    +0.000 C 
ATOM     14  C   UNL     1      -2.606  15.339  23.208  0.00  0.00    +0.000 C 
ATOM     15  C   UNL     1      -2.654  14.762  21.829  0.00  0.00    +0.000 C 
ATOM     16  C   UNL     1      -1.647  15.480  20.923  0.00  0.00    +0.000 C 
ATOM     17  C   UNL     1      -4.067  14.864  21.249  0.00  0.00    +0.000 C 
ATOM     18  N   UNL     1      -2.318  13.363  21.905  0.00  0.00    +0.000 N 
ATOM     19  N   UNL     1       0.100   9.959  21.611  0.00  0.00    +0.000 NA
ATOM     20  C   UNL     1       0.614   9.508  20.449  0.00  0.00    +0.000 A 
ATOM     21  C   UNL     1       1.458   8.392  20.448  0.00  0.00    +0.000 A 
ATOM     22  H   UNL     1      -0.715  11.136  23.578  0.00  0.00    +0.000 HD
ATOM     23  H   UNL     1      -2.089  12.921  21.017  0.00  0.00    +0.000 HD
ENDROOT
BRANCH   1  24
ATOM     24  O   UNL     1       2.844   6.788  19.421  0.00  0.00    +0.000 OA
BRANCH  24  26
ATOM     25  C   UNL     1       2.199   4.818  18.188  0.00  0.00    +0.000 C 
ATOM     26  C   UNL     1       3.098   6.039  18.227  0.00  0.00    +0.000 C 
ENDBRANCH  24  26
ENDBRANCH   1  24
TORSDOF 2
ENDMDL
