MODEL 1
REMARK VINA RESULT:      -7.9      0.000      0.000
REMARK  Name = 
REMARK  5 active torsions:
REMARK  status: ('A' for Active; 'I' for Inactive)
REMARK    1  A    between atoms: C_2  and  C_4
REMARK    2  A    between atoms: C_4  and  C_5
REMARK    3  A    between atoms: C_10  and  O_11
REMARK    4  A    between atoms: O_11  and  C_12
REMARK    5  A    between atoms: C_13  and  N_14
REMARK                            x       y       z     vdW  Elec       q    Type
REMARK                         _______ _______ _______ _____ _____    ______ ____
ROOT
ATOM      1  C   UNL     1       6.202   5.611  16.912  0.00  0.00    +0.000 A 
ATOM      2  C   UNL     1       7.267   6.492  17.203  0.00  0.00    +0.000 A 
ATOM      3  C   UNL     1       7.822   6.580  18.480  0.00  0.00    +0.000 A 
ATOM      4  C   UNL     1       7.328   5.784  19.502  0.00  0.00    +0.000 A 
ATOM      5  C   UNL     1       6.262   4.927  19.249  0.00  0.00    +0.000 A 
ATOM      6  C   UNL     1       5.669   4.853  17.976  0.00  0.00    +0.000 A 
ENDROOT
BRANCH   1   7
ATOM      7  C   UNL     1       5.730   5.588  15.472  0.00  0.00    +0.000 C 
BRANCH   7   9
ATOM      8  N   UNL     1       6.297   3.588  14.178  0.00  0.00    +0.000 N 
ATOM      9  C   UNL     1       6.615   4.880  14.473  0.00  0.00    +0.000 C 
ATOM     10  O   UNL     1       7.641   5.385  14.021  0.00  0.00    +0.000 OA
ATOM     11  H   UNL     1       6.855   3.148  13.459  0.00  0.00    +0.000 HD
ATOM     12  H   UNL     1       5.359   3.228  14.324  0.00  0.00    +0.000 HD
ENDBRANCH   7   9
ENDBRANCH   1   7
BRANCH   6  13
ATOM     13  O   UNL     1       4.621   3.963  17.957  0.00  0.00    +0.000 OA
BRANCH  13  14
ATOM     14  C   UNL     1       3.802   3.744  19.041  0.00  0.00    +0.000 A 
ATOM     15  C   UNL     1       3.980   2.726  19.997  0.00  0.00    +0.000 A 
ATOM     16  C   UNL     1       3.126   2.698  21.111  0.00  0.00    +0.000 A 
ATOM     17  C   UNL     1       2.099   3.630  21.264  0.00  0.00    +0.000 A 
ATOM     18  C   UNL     1       1.863   4.568  20.267  0.00  0.00    +0.000 A 
ATOM     19  C   UNL     1       2.704   4.619  19.156  0.00  0.00    +0.000 A 
ATOM     20 CL   UNL     1       2.346   5.785  17.926  0.00  0.00    +0.000 Cl
BRANCH  15  21
ATOM     21  N   UNL     1       4.849   1.636  19.821  0.00  0.00    +0.000 N 
ATOM     22  H   UNL     1       5.274   1.278  20.670  0.00  0.00    +0.000 HD
ATOM     23  H   UNL     1       4.463   0.895  19.245  0.00  0.00    +0.000 HD
ENDBRANCH  15  21
ENDBRANCH  13  14
ENDBRANCH   6  13
TORSDOF 5
ENDMDL
MODEL 2
REMARK VINA RESULT:      -7.6      1.381      1.405
REMARK  Name = 
REMARK  5 active torsions:
REMARK  status: ('A' for Active; 'I' for Inactive)
REMARK    1  A    between atoms: C_2  and  C_4
REMARK    2  A    between atoms: C_4  and  C_5
REMARK    3  A    between atoms: C_10  and  O_11
REMARK    4  A    between atoms: O_11  and  C_12
REMARK    5  A    between atoms: C_13  and  N_14
REMARK                            x       y       z     vdW  Elec       q    Type
REMARK                         _______ _______ _______ _____ _____    ______ ____
ROOT
ATOM      1  C   UNL     1       5.994   4.319  16.876  0.00  0.00    +0.000 A 
ATOM      2  C   UNL     1       7.352   4.520  17.211  0.00  0.00    +0.000 A 
ATOM      3  C   UNL     1       7.733   5.109  18.417  0.00  0.00    +0.000 A 
ATOM      4  C   UNL     1       6.764   5.510  19.325  0.00  0.00    +0.000 A 
ATOM      5  C   UNL     1       5.419   5.348  19.007  0.00  0.00    +0.000 A 
ATOM      6  C   UNL     1       5.019   4.789  17.780  0.00  0.00    +0.000 A 
ENDROOT
BRANCH   1   7
ATOM      7  C   UNL     1       5.730   3.627  15.553  0.00  0.00    +0.000 C 
BRANCH   7   9
ATOM      8  N   UNL     1       6.370   3.505  13.193  0.00  0.00    +0.000 N 
ATOM      9  C   UNL     1       6.305   4.275  14.315  0.00  0.00    +0.000 C 
ATOM     10  O   UNL     1       6.799   5.401  14.325  0.00  0.00    +0.000 OA
ATOM     11  H   UNL     1       6.692   3.970  12.355  0.00  0.00    +0.000 HD
ATOM     12  H   UNL     1       5.771   2.694  13.073  0.00  0.00    +0.000 HD
ENDBRANCH   7   9
ENDBRANCH   1   7
BRANCH   6  13
ATOM     13  O   UNL     1       3.649   4.746  17.666  0.00  0.00    +0.000 OA
BRANCH  13  14
ATOM     14  C   UNL     1       2.833   4.196  18.628  0.00  0.00    +0.000 A 
ATOM     15  C   UNL     1       2.599   2.819  18.801  0.00  0.00    +0.000 A 
ATOM     16  C   UNL     1       1.828   2.404  19.899  0.00  0.00    +0.000 A 
ATOM     17  C   UNL     1       1.272   3.325  20.787  0.00  0.00    +0.000 A 
ATOM     18  C   UNL     1       1.420   4.687  20.554  0.00  0.00    +0.000 A 
ATOM     19  C   UNL     1       2.189   5.121  19.474  0.00  0.00    +0.000 A 
ATOM     20 CL   UNL     1       2.313   6.827  19.207  0.00  0.00    +0.000 Cl
BRANCH  15  21
ATOM     21  N   UNL     1       2.945   1.845  17.849  0.00  0.00    +0.000 N 
ATOM     22  H   UNL     1       3.879   1.458  17.943  0.00  0.00    +0.000 HD
ATOM     23  H   UNL     1       2.243   1.122  17.732  0.00  0.00    +0.000 HD
ENDBRANCH  15  21
ENDBRANCH  13  14
ENDBRANCH   6  13
TORSDOF 5
ENDMDL
MODEL 3
REMARK VINA RESULT:      -7.6      2.212      3.253
REMARK  Name = 
REMARK  5 active torsions:
REMARK  status: ('A' for Active; 'I' for Inactive)
REMARK    1  A    between atoms: C_2  and  C_4
REMARK    2  A    between atoms: C_4  and  C_5
REMARK    3  A    between atoms: C_10  and  O_11
REMARK    4  A    between atoms: O_11  and  C_12
REMARK    5  A    between atoms: C_13  and  N_14
REMARK                            x       y       z     vdW  Elec       q    Type
REMARK                         _______ _______ _______ _____ _____    ______ ____
ROOT
ATOM      1  C   UNL     1       6.812   4.508  17.150  0.00  0.00    +0.000 A 
ATOM      2  C   UNL     1       7.081   4.782  15.790  0.00  0.00    +0.000 A 
ATOM      3  C   UNL     1       6.085   4.719  14.815  0.00  0.00    +0.000 A 
ATOM      4  C   UNL     1       4.789   4.383  15.175  0.00  0.00    +0.000 A 
ATOM      5  C   UNL     1       4.503   4.083  16.503  0.00  0.00    +0.000 A 
ATOM      6  C   UNL     1       5.504   4.108  17.491  0.00  0.00    +0.000 A 
ENDROOT
BRANCH   1   7
ATOM      7  C   UNL     1       7.980   4.660  18.104  0.00  0.00    +0.000 C 
BRANCH   7   9
ATOM      8  N   UNL     1       8.252   6.978  18.844  0.00  0.00    +0.000 N 
ATOM      9  C   UNL     1       7.855   5.718  19.176  0.00  0.00    +0.000 C 
ATOM     10  O   UNL     1       7.521   5.456  20.330  0.00  0.00    +0.000 OA
ATOM     11  H   UNL     1       8.100   7.690  19.546  0.00  0.00    +0.000 HD
ATOM     12  H   UNL     1       8.293   7.282  17.876  0.00  0.00    +0.000 HD
ENDBRANCH   7   9
ENDBRANCH   1   7
BRANCH   6  13
ATOM     13  O   UNL     1       5.007   3.756  18.725  0.00  0.00    +0.000 OA
BRANCH  13  14
ATOM     14  C   UNL     1       3.692   3.409  18.932  0.00  0.00    +0.000 A 
ATOM     15  C   UNL     1       3.174   2.104  18.838  0.00  0.00    +0.000 A 
ATOM     16  C   UNL     1       1.831   1.889  19.188  0.00  0.00    +0.000 A 
ATOM     17  C   UNL     1       1.007   2.942  19.590  0.00  0.00    +0.000 A 
ATOM     18  C   UNL     1       1.495   4.243  19.582  0.00  0.00    +0.000 A 
ATOM     19  C   UNL     1       2.827   4.477  19.246  0.00  0.00    +0.000 A 
ATOM     20 CL   UNL     1       3.376   6.119  19.218  0.00  0.00    +0.000 Cl
BRANCH  15  21
ATOM     21  N   UNL     1       3.868   1.030  18.254  0.00  0.00    +0.000 N 
ATOM     22  H   UNL     1       4.536   1.286  17.533  0.00  0.00    +0.000 HD
ATOM     23  H   UNL     1       4.263   0.384  18.929  0.00  0.00    +0.000 HD
ENDBRANCH  15  21
ENDBRANCH  13  14
ENDBRANCH   6  13
TORSDOF 5
ENDMDL
MODEL 4
REMARK VINA RESULT:      -7.5      1.946      2.169
REMARK  Name = 
REMARK  5 active torsions:
REMARK  status: ('A' for Active; 'I' for Inactive)
REMARK    1  A    between atoms: C_2  and  C_4
REMARK    2  A    between atoms: C_4  and  C_5
REMARK    3  A    between atoms: C_10  and  O_11
REMARK    4  A    between atoms: O_11  and  C_12
REMARK    5  A    between atoms: C_13  and  N_14
REMARK                            x       y       z     vdW  Elec       q    Type
REMARK                         _______ _______ _______ _____ _____    ______ ____
ROOT
ATOM      1  C   UNL     1       5.921   4.426  16.829  0.00  0.00    +0.000 A 
ATOM      2  C   UNL     1       7.299   4.570  17.108  0.00  0.00    +0.000 A 
ATOM      3  C   UNL     1       7.754   5.084  18.322  0.00  0.00    +0.000 A 
ATOM      4  C   UNL     1       6.842   5.465  19.295  0.00  0.00    +0.000 A 
ATOM      5  C   UNL     1       5.479   5.359  19.034  0.00  0.00    +0.000 A 
ATOM      6  C   UNL     1       5.005   4.876  17.802  0.00  0.00    +0.000 A 
ENDROOT
BRANCH   1   7
ATOM      7  C   UNL     1       5.573   3.811  15.488  0.00  0.00    +0.000 C 
BRANCH   7   9
ATOM      8  N   UNL     1       6.466   3.471  13.233  0.00  0.00    +0.000 N 
ATOM      9  C   UNL     1       6.325   4.328  14.283  0.00  0.00    +0.000 C 
ATOM     10  O   UNL     1       6.887   5.422  14.271  0.00  0.00    +0.000 OA
ATOM     11  H   UNL     1       6.910   3.850  12.408  0.00  0.00    +0.000 HD
ATOM     12  H   UNL     1       5.833   2.689  13.101  0.00  0.00    +0.000 HD
ENDBRANCH   7   9
ENDBRANCH   1   7
BRANCH   6  13
ATOM     13  O   UNL     1       3.630   4.878  17.752  0.00  0.00    +0.000 OA
BRANCH  13  14
ATOM     14  C   UNL     1       2.841   4.447  18.794  0.00  0.00    +0.000 A 
ATOM     15  C   UNL     1       2.224   5.286  19.742  0.00  0.00    +0.000 A 
ATOM     16  C   UNL     1       1.357   4.707  20.683  0.00  0.00    +0.000 A 
ATOM     17  C   UNL     1       1.127   3.331  20.710  0.00  0.00    +0.000 A 
ATOM     18  C   UNL     1       1.817   2.497  19.839  0.00  0.00    +0.000 A 
ATOM     19  C   UNL     1       2.677   3.052  18.892  0.00  0.00    +0.000 A 
ATOM     20 CL   UNL     1       3.540   1.967  17.853  0.00  0.00    +0.000 Cl
BRANCH  15  21
ATOM     21  N   UNL     1       2.553   6.641  19.915  0.00  0.00    +0.000 N 
ATOM     22  H   UNL     1       1.888   7.302  19.528  0.00  0.00    +0.000 HD
ATOM     23  H   UNL     1       2.820   6.878  20.865  0.00  0.00    +0.000 HD
ENDBRANCH  15  21
ENDBRANCH  13  14
ENDBRANCH   6  13
TORSDOF 5
ENDMDL
MODEL 5
REMARK VINA RESULT:      -7.4      2.714      3.664
REMARK  Name = 
REMARK  5 active torsions:
REMARK  status: ('A' for Active; 'I' for Inactive)
REMARK    1  A    between atoms: C_2  and  C_4
REMARK    2  A    between atoms: C_4  and  C_5
REMARK    3  A    between atoms: C_10  and  O_11
REMARK    4  A    between atoms: O_11  and  C_12
REMARK    5  A    between atoms: C_13  and  N_14
REMARK                            x       y       z     vdW  Elec       q    Type
REMARK                         _______ _______ _______ _____ _____    ______ ____
ROOT
ATOM      1  C   UNL     1       6.760   4.547  17.170  0.00  0.00    +0.000 A 
ATOM      2  C   UNL     1       6.982   4.914  15.823  0.00  0.00    +0.000 A 
ATOM      3  C   UNL     1       5.961   4.877  14.873  0.00  0.00    +0.000 A 
ATOM      4  C   UNL     1       4.687   4.476  15.245  0.00  0.00    +0.000 A 
ATOM      5  C   UNL     1       4.449   4.085  16.559  0.00  0.00    +0.000 A 
ATOM      6  C   UNL     1       5.476   4.082  17.520  0.00  0.00    +0.000 A 
ENDROOT
BRANCH   1   7
ATOM      7  C   UNL     1       7.949   4.680  18.101  0.00  0.00    +0.000 C 
BRANCH   7   9
ATOM      8  N   UNL     1       8.266   6.983  18.869  0.00  0.00    +0.000 N 
ATOM      9  C   UNL     1       7.854   5.724  19.189  0.00  0.00    +0.000 C 
ATOM     10  O   UNL     1       7.530   5.451  20.343  0.00  0.00    +0.000 OA
ATOM     11  H   UNL     1       8.134   7.687  19.583  0.00  0.00    +0.000 HD
ATOM     12  H   UNL     1       8.299   7.299  17.905  0.00  0.00    +0.000 HD
ENDBRANCH   7   9
ENDBRANCH   1   7
BRANCH   6  13
ATOM     13  O   UNL     1       5.026   3.638  18.741  0.00  0.00    +0.000 OA
BRANCH  13  14
ATOM     14  C   UNL     1       3.694   3.621  19.089  0.00  0.00    +0.000 A 
ATOM     15  C   UNL     1       2.969   4.729  19.564  0.00  0.00    +0.000 A 
ATOM     16  C   UNL     1       1.587   4.585  19.773  0.00  0.00    +0.000 A 
ATOM     17  C   UNL     1       0.941   3.368  19.550  0.00  0.00    +0.000 A 
ATOM     18  C   UNL     1       1.680   2.251  19.180  0.00  0.00    +0.000 A 
ATOM     19  C   UNL     1       3.051   2.374  18.960  0.00  0.00    +0.000 A 
ATOM     20 CL   UNL     1       3.931   0.945  18.534  0.00  0.00    +0.000 Cl
BRANCH  15  21
ATOM     21  N   UNL     1       3.567   5.922  20.006  0.00  0.00    +0.000 N 
ATOM     22  H   UNL     1       3.995   5.878  20.925  0.00  0.00    +0.000 HD
ATOM     23  H   UNL     1       4.179   6.349  19.319  0.00  0.00    +0.000 HD
ENDBRANCH  15  21
ENDBRANCH  13  14
ENDBRANCH   6  13
TORSDOF 5
ENDMDL
MODEL 6
REMARK VINA RESULT:      -7.4      2.041      3.105
REMARK  Name = 
REMARK  5 active torsions:
REMARK  status: ('A' for Active; 'I' for Inactive)
REMARK    1  A    between atoms: C_2  and  C_4
REMARK    2  A    between atoms: C_4  and  C_5
REMARK    3  A    between atoms: C_10  and  O_11
REMARK    4  A    between atoms: O_11  and  C_12
REMARK    5  A    between atoms: C_13  and  N_14
REMARK                            x       y       z     vdW  Elec       q    Type
REMARK                         _______ _______ _______ _____ _____    ______ ____
ROOT
ATOM      1  C   UNL     1       6.753   4.592  17.252  0.00  0.00    +0.000 A 
ATOM      2  C   UNL     1       6.984   4.213  15.911  0.00  0.00    +0.000 A 
ATOM      3  C   UNL     1       5.960   4.205  14.962  0.00  0.00    +0.000 A 
ATOM      4  C   UNL     1       4.677   4.580  15.330  0.00  0.00    +0.000 A 
ATOM      5  C   UNL     1       4.418   4.931  16.651  0.00  0.00    +0.000 A 
ATOM      6  C   UNL     1       5.432   4.910  17.626  0.00  0.00    +0.000 A 
ENDROOT
BRANCH   1   7
ATOM      7  C   UNL     1       7.967   4.598  18.161  0.00  0.00    +0.000 C 
BRANCH   7   9
ATOM      8  N   UNL     1       8.154   5.502  20.428  0.00  0.00    +0.000 N 
ATOM      9  C   UNL     1       8.117   5.777  19.095  0.00  0.00    +0.000 C 
ATOM     10  O   UNL     1       8.095   6.942  18.700  0.00  0.00    +0.000 OA
ATOM     11  H   UNL     1       8.323   6.291  21.038  0.00  0.00    +0.000 HD
ATOM     12  H   UNL     1       8.418   4.584  20.772  0.00  0.00    +0.000 HD
ENDBRANCH   7   9
ENDBRANCH   1   7
BRANCH   6  13
ATOM     13  O   UNL     1       4.951   5.269  18.863  0.00  0.00    +0.000 OA
BRANCH  13  14
ATOM     14  C   UNL     1       3.915   4.611  19.486  0.00  0.00    +0.000 A 
ATOM     15  C   UNL     1       3.947   3.269  19.909  0.00  0.00    +0.000 A 
ATOM     16  C   UNL     1       2.851   2.768  20.631  0.00  0.00    +0.000 A 
ATOM     17  C   UNL     1       1.735   3.561  20.900  0.00  0.00    +0.000 A 
ATOM     18  C   UNL     1       1.664   4.851  20.391  0.00  0.00    +0.000 A 
ATOM     19  C   UNL     1       2.744   5.371  19.679  0.00  0.00    +0.000 A 
ATOM     20 CL   UNL     1       2.592   6.972  19.037  0.00  0.00    +0.000 Cl
BRANCH  15  21
ATOM     21  N   UNL     1       4.932   2.349  19.509  0.00  0.00    +0.000 N 
ATOM     22  H   UNL     1       4.868   2.036  18.546  0.00  0.00    +0.000 HD
ATOM     23  H   UNL     1       5.875   2.627  19.760  0.00  0.00    +0.000 HD
ENDBRANCH  15  21
ENDBRANCH  13  14
ENDBRANCH   6  13
TORSDOF 5
ENDMDL
MODEL 7
REMARK VINA RESULT:      -7.4      2.096      2.367
REMARK  Name = 
REMARK  5 active torsions:
REMARK  status: ('A' for Active; 'I' for Inactive)
REMARK    1  A    between atoms: C_2  and  C_4
REMARK    2  A    between atoms: C_4  and  C_5
REMARK    3  A    between atoms: C_10  and  O_11
REMARK    4  A    between atoms: O_11  and  C_12
REMARK    5  A    between atoms: C_13  and  N_14
REMARK                            x       y       z     vdW  Elec       q    Type
REMARK                         _______ _______ _______ _____ _____    ______ ____
ROOT
ATOM      1  C   UNL     1       4.681   5.153  16.702  0.00  0.00    +0.000 A 
ATOM      2  C   UNL     1       4.915   6.535  16.522  0.00  0.00    +0.000 A 
ATOM      3  C   UNL     1       4.142   7.502  17.165  0.00  0.00    +0.000 A 
ATOM      4  C   UNL     1       3.114   7.112  18.011  0.00  0.00    +0.000 A 
ATOM      5  C   UNL     1       2.846   5.758  18.183  0.00  0.00    +0.000 A 
ATOM      6  C   UNL     1       3.594   4.772  17.515  0.00  0.00    +0.000 A 
ENDROOT
BRANCH   1   7
ATOM      7  C   UNL     1       5.628   4.218  15.976  0.00  0.00    +0.000 C 
BRANCH   7   9
ATOM      8  N   UNL     1       7.807   4.343  17.087  0.00  0.00    +0.000 N 
ATOM      9  C   UNL     1       7.090   4.602  15.958  0.00  0.00    +0.000 C 
ATOM     10  O   UNL     1       7.601   5.220  15.026  0.00  0.00    +0.000 OA
ATOM     11  H   UNL     1       8.797   4.542  17.039  0.00  0.00    +0.000 HD
ATOM     12  H   UNL     1       7.506   3.639  17.754  0.00  0.00    +0.000 HD
ENDBRANCH   7   9
ENDBRANCH   1   7
BRANCH   6  13
ATOM     13  O   UNL     1       3.145   3.507  17.812  0.00  0.00    +0.000 OA
BRANCH  13  14
ATOM     14  C   UNL     1       2.855   3.095  19.092  0.00  0.00    +0.000 A 
ATOM     15  C   UNL     1       3.808   2.725  20.059  0.00  0.00    +0.000 A 
ATOM     16  C   UNL     1       3.365   2.434  21.359  0.00  0.00    +0.000 A 
ATOM     17  C   UNL     1       2.010   2.473  21.692  0.00  0.00    +0.000 A 
ATOM     18  C   UNL     1       1.065   2.738  20.709  0.00  0.00    +0.000 A 
ATOM     19  C   UNL     1       1.484   3.038  19.413  0.00  0.00    +0.000 A 
ATOM     20 CL   UNL     1       0.265   3.326  18.217  0.00  0.00    +0.000 Cl
BRANCH  15  21
ATOM     21  N   UNL     1       5.157   2.464  19.763  0.00  0.00    +0.000 N 
ATOM     22  H   UNL     1       5.830   3.036  20.262  0.00  0.00    +0.000 HD
ATOM     23  H   UNL     1       5.397   1.479  19.792  0.00  0.00    +0.000 HD
ENDBRANCH  15  21
ENDBRANCH  13  14
ENDBRANCH   6  13
TORSDOF 5
ENDMDL
MODEL 8
REMARK VINA RESULT:      -7.3      2.060      3.183
REMARK  Name = 
REMARK  5 active torsions:
REMARK  status: ('A' for Active; 'I' for Inactive)
REMARK    1  A    between atoms: C_2  and  C_4
REMARK    2  A    between atoms: C_4  and  C_5
REMARK    3  A    between atoms: C_10  and  O_11
REMARK    4  A    between atoms: O_11  and  C_12
REMARK    5  A    between atoms: C_13  and  N_14
REMARK                            x       y       z     vdW  Elec       q    Type
REMARK                         _______ _______ _______ _____ _____    ______ ____
ROOT
ATOM      1  C   UNL     1       6.033   4.928  17.639  0.00  0.00    +0.000 A 
ATOM      2  C   UNL     1       7.160   4.585  16.859  0.00  0.00    +0.000 A 
ATOM      3  C   UNL     1       7.040   4.189  15.526  0.00  0.00    +0.000 A 
ATOM      4  C   UNL     1       5.787   4.129  14.935  0.00  0.00    +0.000 A 
ATOM      5  C   UNL     1       4.659   4.436  15.690  0.00  0.00    +0.000 A 
ATOM      6  C   UNL     1       4.761   4.802  17.043  0.00  0.00    +0.000 A 
ENDROOT
BRANCH   1   7
ATOM      7  C   UNL     1       6.318   5.383  19.056  0.00  0.00    +0.000 C 
BRANCH   7   9
ATOM      8  N   UNL     1       8.410   5.263  20.323  0.00  0.00    +0.000 N 
ATOM      9  C   UNL     1       7.709   5.899  19.343  0.00  0.00    +0.000 C 
ATOM     10  O   UNL     1       8.164   6.910  18.811  0.00  0.00    +0.000 OA
ATOM     11  H   UNL     1       9.362   5.573  20.459  0.00  0.00    +0.000 HD
ATOM     12  H   UNL     1       8.187   4.312  20.600  0.00  0.00    +0.000 HD
ENDBRANCH   7   9
ENDBRANCH   1   7
BRANCH   6  13
ATOM     13  O   UNL     1       3.525   5.037  17.599  0.00  0.00    +0.000 OA
BRANCH  13  14
ATOM     14  C   UNL     1       3.075   4.393  18.728  0.00  0.00    +0.000 A 
ATOM     15  C   UNL     1       3.011   2.996  18.892  0.00  0.00    +0.000 A 
ATOM     16  C   UNL     1       2.633   2.486  20.144  0.00  0.00    +0.000 A 
ATOM     17  C   UNL     1       2.295   3.330  21.202  0.00  0.00    +0.000 A 
ATOM     18  C   UNL     1       2.260   4.705  21.005  0.00  0.00    +0.000 A 
ATOM     19  C   UNL     1       2.639   5.234  19.772  0.00  0.00    +0.000 A 
ATOM     20 CL   UNL     1       2.545   6.951  19.566  0.00  0.00    +0.000 Cl
BRANCH  15  21
ATOM     21  N   UNL     1       3.136   2.081  17.832  0.00  0.00    +0.000 N 
ATOM     22  H   UNL     1       2.682   2.354  16.967  0.00  0.00    +0.000 HD
ATOM     23  H   UNL     1       4.086   1.760  17.681  0.00  0.00    +0.000 HD
ENDBRANCH  15  21
ENDBRANCH  13  14
ENDBRANCH   6  13
TORSDOF 5
ENDMDL
MODEL 9
REMARK VINA RESULT:      -7.3      2.405      3.348
REMARK  Name = 
REMARK  5 active torsions:
REMARK  status: ('A' for Active; 'I' for Inactive)
REMARK    1  A    between atoms: C_2  and  C_4
REMARK    2  A    between atoms: C_4  and  C_5
REMARK    3  A    between atoms: C_10  and  O_11
REMARK    4  A    between atoms: O_11  and  C_12
REMARK    5  A    between atoms: C_13  and  N_14
REMARK                            x       y       z     vdW  Elec       q    Type
REMARK                         _______ _______ _______ _____ _____    ______ ____
ROOT
ATOM      1  C   UNL     1       4.338   6.055  17.643  0.00  0.00    +0.000 A 
ATOM      2  C   UNL     1       5.396   6.989  17.567  0.00  0.00    +0.000 A 
ATOM      3  C   UNL     1       6.726   6.586  17.451  0.00  0.00    +0.000 A 
ATOM      4  C   UNL     1       7.036   5.236  17.405  0.00  0.00    +0.000 A 
ATOM      5  C   UNL     1       6.016   4.295  17.505  0.00  0.00    +0.000 A 
ATOM      6  C   UNL     1       4.673   4.685  17.657  0.00  0.00    +0.000 A 
ENDROOT
BRANCH   1   7
ATOM      7  C   UNL     1       2.940   6.636  17.719  0.00  0.00    +0.000 C 
BRANCH   7   9
ATOM      8  N   UNL     1       2.760   6.587  20.161  0.00  0.00    +0.000 N 
ATOM      9  C   UNL     1       2.545   7.298  19.019  0.00  0.00    +0.000 C 
ATOM     10  O   UNL     1       1.953   8.376  19.060  0.00  0.00    +0.000 OA
ATOM     11  H   UNL     1       2.555   7.067  21.027  0.00  0.00    +0.000 HD
ATOM     12  H   UNL     1       3.445   5.839  20.195  0.00  0.00    +0.000 HD
ENDBRANCH   7   9
ENDBRANCH   1   7
BRANCH   6  13
ATOM     13  O   UNL     1       3.839   3.597  17.760  0.00  0.00    +0.000 OA
BRANCH  13  14
ATOM     14  C   UNL     1       3.145   3.289  18.908  0.00  0.00    +0.000 A 
ATOM     15  C   UNL     1       3.711   2.736  20.072  0.00  0.00    +0.000 A 
ATOM     16  C   UNL     1       2.895   2.581  21.204  0.00  0.00    +0.000 A 
ATOM     17  C   UNL     1       1.545   2.931  21.181  0.00  0.00    +0.000 A 
ATOM     18  C   UNL     1       0.967   3.379  20.000  0.00  0.00    +0.000 A 
ATOM     19  C   UNL     1       1.761   3.549  18.866  0.00  0.00    +0.000 A 
ATOM     20 CL   UNL     1       0.986   4.077  17.410  0.00  0.00    +0.000 Cl
BRANCH  15  21
ATOM     21  N   UNL     1       4.998   2.172  20.120  0.00  0.00    +0.000 N 
ATOM     22  H   UNL     1       5.589   2.503  20.876  0.00  0.00    +0.000 HD
ATOM     23  H   UNL     1       5.002   1.160  20.046  0.00  0.00    +0.000 HD
ENDBRANCH  15  21
ENDBRANCH  13  14
ENDBRANCH   6  13
TORSDOF 5
ENDMDL
