MODEL 1
REMARK VINA RESULT:      -9.0      0.000      0.000
REMARK  Name = 
REMARK  8 active torsions:
REMARK  status: ('A' for Active; 'I' for Inactive)
REMARK    1  A    between atoms: C_1  and  C_2
REMARK    2  A    between atoms: C_5  and  C_6
REMARK    3  A    between atoms: C_7  and  C_8
REMARK    4  A    between atoms: C_16  and  C_17
REMARK    5  A    between atoms: C_16  and  C_29
REMARK    6  A    between atoms: C_20  and  O_21
REMARK    7  A    between atoms: O_21  and  C_22
REMARK    8  A    between atoms: C_22  and  C_23
REMARK                            x       y       z     vdW  Elec       q    Type
REMARK                         _______ _______ _______ _____ _____    ______ ____
ROOT
ATOM      1  C   UNL     1       5.164   4.431  16.371  0.00  0.00    +0.000 C 
ATOM      2  C   UNL     1       5.946   4.795  17.411  0.00  0.00    +0.000 C 
ATOM      3  C   UNL     1       5.367   4.207  18.650  0.00  0.00    +0.000 C 
ATOM      4  O   UNL     1       5.823   3.194  19.170  0.00  0.00    +0.000 OA
ATOM      5  N   UNL     1       4.212   4.782  19.084  0.00  0.00    +0.000 N 
ATOM      6  C   UNL     1       3.028   4.879  18.174  0.00  0.00    +0.000 C 
ATOM      7  C   UNL     1       3.642   4.398  16.679  0.00  0.00    +0.000 C 
ATOM      8  H   UNL     1       4.495   5.772  19.152  0.00  0.00    +0.000 HD
ENDROOT
BRANCH   1  13
ATOM      9  C   UNL     1       7.560   4.131  10.971  0.00  0.00    +0.000 C 
ATOM     10  C   UNL     1       6.988   4.167  12.363  0.00  0.00    +0.000 A 
ATOM     11  C   UNL     1       7.612   4.867  13.393  0.00  0.00    +0.000 A 
ATOM     12  C   UNL     1       7.029   4.912  14.678  0.00  0.00    +0.000 A 
ATOM     13  C   UNL     1       5.802   4.293  14.994  0.00  0.00    +0.000 A 
ATOM     14  C   UNL     1       5.239   3.511  13.959  0.00  0.00    +0.000 A 
ATOM     15  C   UNL     1       5.834   3.448  12.678  0.00  0.00    +0.000 A 
ENDBRANCH   1  13
BRANCH   2  16
ATOM     16  C   UNL     1       6.410   6.152  17.404  0.00  0.00    +0.000 A 
ATOM     17  N   UNL     1       7.716   6.498  17.593  0.00  0.00    +0.000 NA
ATOM     18  N   UNL     1       7.777   7.816  17.428  0.00  0.00    +0.000 NA
ATOM     19  N   UNL     1       6.525   8.191  17.138  0.00  0.00    +0.000 N 
ATOM     20  N   UNL     1       5.615   7.212  17.152  0.00  0.00    +0.000 NA
ATOM     21  H   UNL     1       6.271   9.150  16.925  0.00  0.00    +0.000 HD
ENDBRANCH   2  16
BRANCH   6  22
ATOM     22  C   UNL     1       2.432   6.119  18.959  0.00  0.00    +0.000 A 
ATOM     23  C   UNL     1       2.025   6.080  20.294  0.00  0.00    +0.000 A 
ATOM     24  C   UNL     1       1.526   7.238  20.897  0.00  0.00    +0.000 A 
ATOM     25  C   UNL     1       1.439   8.484  20.219  0.00  0.00    +0.000 A 
ATOM     26  C   UNL     1       1.737   8.536  18.870  0.00  0.00    +0.000 A 
ATOM     27  C   UNL     1       2.216   7.362  18.252  0.00  0.00    +0.000 A 
BRANCH  25  28
ATOM     28  O   UNL     1       1.081   9.683  20.810  0.00  0.00    +0.000 OA
BRANCH  28  29
ATOM     29  C   UNL     1       1.217   9.725  22.243  0.00  0.00    +0.000 C 
BRANCH  29  30
ATOM     30  C   UNL     1      -0.107   9.658  22.995  0.00  0.00    +0.000 C 
ATOM     31  F   UNL     1      -0.803  10.812  22.975  0.00  0.00    +0.000 F 
ATOM     32  F   UNL     1      -0.903   8.699  22.458  0.00  0.00    +0.000 F 
ATOM     33  F   UNL     1       0.096   9.319  24.290  0.00  0.00    +0.000 F 
ENDBRANCH  29  30
ENDBRANCH  28  29
ENDBRANCH  25  28
ENDBRANCH   6  22
BRANCH   6  34
ATOM     34  C   UNL     1       1.589   4.153  18.054  0.00  0.00    +0.000 C 
ATOM     35  F   UNL     1       1.839   2.860  17.631  0.00  0.00    +0.000 F 
ATOM     36  F   UNL     1       0.920   3.988  19.215  0.00  0.00    +0.000 F 
ATOM     37  F   UNL     1       0.712   4.668  17.170  0.00  0.00    +0.000 F 
ENDBRANCH   6  34
TORSDOF 7
ENDMDL
MODEL 2
REMARK VINA RESULT:      -8.9      0.444      1.101
REMARK  Name = 
REMARK  8 active torsions:
REMARK  status: ('A' for Active; 'I' for Inactive)
REMARK    1  A    between atoms: C_1  and  C_2
REMARK    2  A    between atoms: C_5  and  C_6
REMARK    3  A    between atoms: C_7  and  C_8
REMARK    4  A    between atoms: C_16  and  C_17
REMARK    5  A    between atoms: C_16  and  C_29
REMARK    6  A    between atoms: C_20  and  O_21
REMARK    7  A    between atoms: O_21  and  C_22
REMARK    8  A    between atoms: C_22  and  C_23
REMARK                            x       y       z     vdW  Elec       q    Type
REMARK                         _______ _______ _______ _____ _____    ______ ____
ROOT
ATOM      1  C   UNL     1       5.117   4.461  16.453  0.00  0.00    +0.000 C 
ATOM      2  C   UNL     1       5.926   4.861  17.459  0.00  0.00    +0.000 C 
ATOM      3  C   UNL     1       5.381   4.314  18.732  0.00  0.00    +0.000 C 
ATOM      4  O   UNL     1       5.852   3.320  19.275  0.00  0.00    +0.000 OA
ATOM      5  N   UNL     1       4.236   4.904  19.176  0.00  0.00    +0.000 N 
ATOM      6  C   UNL     1       3.029   4.969  18.296  0.00  0.00    +0.000 C 
ATOM      7  C   UNL     1       3.604   4.437  16.802  0.00  0.00    +0.000 C 
ATOM      8  H   UNL     1       4.520   5.896  19.203  0.00  0.00    +0.000 HD
ENDROOT
BRANCH   1  13
ATOM      9  C   UNL     1       7.497   3.498  11.124  0.00  0.00    +0.000 C 
ATOM     10  C   UNL     1       6.862   3.787  12.457  0.00  0.00    +0.000 A 
ATOM     11  C   UNL     1       5.561   3.383  12.752  0.00  0.00    +0.000 A 
ATOM     12  C   UNL     1       5.009   3.638  14.027  0.00  0.00    +0.000 A 
ATOM     13  C   UNL     1       5.718   4.276  15.066  0.00  0.00    +0.000 A 
ATOM     14  C   UNL     1       6.999   4.759  14.710  0.00  0.00    +0.000 A 
ATOM     15  C   UNL     1       7.544   4.523  13.427  0.00  0.00    +0.000 A 
ENDBRANCH   1  13
BRANCH   2  16
ATOM     16  C   UNL     1       6.388   6.216  17.393  0.00  0.00    +0.000 A 
ATOM     17  N   UNL     1       7.683   6.579  17.622  0.00  0.00    +0.000 NA
ATOM     18  N   UNL     1       7.749   7.885  17.382  0.00  0.00    +0.000 NA
ATOM     19  N   UNL     1       6.511   8.236  17.013  0.00  0.00    +0.000 N 
ATOM     20  N   UNL     1       5.603   7.257  17.043  0.00  0.00    +0.000 NA
ATOM     21  H   UNL     1       6.266   9.180  16.732  0.00  0.00    +0.000 HD
ENDBRANCH   2  16
BRANCH   6  22
ATOM     22  C   UNL     1       2.452   6.235  19.053  0.00  0.00    +0.000 A 
ATOM     23  C   UNL     1       2.032   6.227  20.385  0.00  0.00    +0.000 A 
ATOM     24  C   UNL     1       1.552   7.406  20.963  0.00  0.00    +0.000 A 
ATOM     25  C   UNL     1       1.498   8.642  20.263  0.00  0.00    +0.000 A 
ATOM     26  C   UNL     1       1.808   8.663  18.915  0.00  0.00    +0.000 A 
ATOM     27  C   UNL     1       2.269   7.470  18.323  0.00  0.00    +0.000 A 
BRANCH  25  28
ATOM     28  O   UNL     1       1.159   9.858  20.829  0.00  0.00    +0.000 OA
BRANCH  28  29
ATOM     29  C   UNL     1      -0.220   9.988  21.223  0.00  0.00    +0.000 C 
BRANCH  29  30
ATOM     30  C   UNL     1      -0.479   9.678  22.692  0.00  0.00    +0.000 C 
ATOM     31  F   UNL     1      -1.248  10.594  23.314  0.00  0.00    +0.000 F 
ATOM     32  F   UNL     1      -1.105   8.479  22.814  0.00  0.00    +0.000 F 
ATOM     33  F   UNL     1       0.686   9.583  23.374  0.00  0.00    +0.000 F 
ENDBRANCH  29  30
ENDBRANCH  28  29
ENDBRANCH  25  28
ENDBRANCH   6  22
BRANCH   6  34
ATOM     34  C   UNL     1       1.588   4.238  18.239  0.00  0.00    +0.000 C 
ATOM     35  F   UNL     1       0.875   4.860  17.230  0.00  0.00    +0.000 F 
ATOM     36  F   UNL     1       1.606   2.940  17.867  0.00  0.00    +0.000 F 
ATOM     37  F   UNL     1       0.815   4.317  19.340  0.00  0.00    +0.000 F 
ENDBRANCH   6  34
TORSDOF 7
ENDMDL
MODEL 3
REMARK VINA RESULT:      -8.7      0.274      1.235
REMARK  Name = 
REMARK  8 active torsions:
REMARK  status: ('A' for Active; 'I' for Inactive)
REMARK    1  A    between atoms: C_1  and  C_2
REMARK    2  A    between atoms: C_5  and  C_6
REMARK    3  A    between atoms: C_7  and  C_8
REMARK    4  A    between atoms: C_16  and  C_17
REMARK    5  A    between atoms: C_16  and  C_29
REMARK    6  A    between atoms: C_20  and  O_21
REMARK    7  A    between atoms: O_21  and  C_22
REMARK    8  A    between atoms: C_22  and  C_23
REMARK                            x       y       z     vdW  Elec       q    Type
REMARK                         _______ _______ _______ _____ _____    ______ ____
ROOT
ATOM      1  C   UNL     1       5.205   4.544  16.244  0.00  0.00    +0.000 C 
ATOM      2  C   UNL     1       5.990   4.956  17.264  0.00  0.00    +0.000 C 
ATOM      3  C   UNL     1       5.395   4.455  18.534  0.00  0.00    +0.000 C 
ATOM      4  O   UNL     1       5.830   3.468  19.117  0.00  0.00    +0.000 OA
ATOM      5  N   UNL     1       4.249   5.078  18.925  0.00  0.00    +0.000 N 
ATOM      6  C   UNL     1       3.071   5.141  18.005  0.00  0.00    +0.000 C 
ATOM      7  C   UNL     1       3.682   4.559  16.546  0.00  0.00    +0.000 C 
ATOM      8  H   UNL     1       4.552   6.065  18.935  0.00  0.00    +0.000 HD
ENDROOT
BRANCH   1  13
ATOM      9  C   UNL     1       7.614   3.869  10.884  0.00  0.00    +0.000 C 
ATOM     10  C   UNL     1       7.039   4.001  12.268  0.00  0.00    +0.000 A 
ATOM     11  C   UNL     1       7.667   4.762  13.253  0.00  0.00    +0.000 A 
ATOM     12  C   UNL     1       7.080   4.896  14.530  0.00  0.00    +0.000 A 
ATOM     13  C   UNL     1       5.846   4.310  14.882  0.00  0.00    +0.000 A 
ATOM     14  C   UNL     1       5.279   3.467  13.897  0.00  0.00    +0.000 A 
ATOM     15  C   UNL     1       5.877   3.316  12.626  0.00  0.00    +0.000 A 
ENDBRANCH   1  13
BRANCH   2  16
ATOM     16  C   UNL     1       6.480   6.301  17.177  0.00  0.00    +0.000 A 
ATOM     17  N   UNL     1       5.682   7.374  16.910  0.00  0.00    +0.000 NA
ATOM     18  N   UNL     1       6.461   8.447  17.000  0.00  0.00    +0.000 NA
ATOM     19  N   UNL     1       7.671   7.974  17.325  0.00  0.00    +0.000 N 
ATOM     20  N   UNL     1       7.765   6.644  17.406  0.00  0.00    +0.000 NA
ATOM     21  H   UNL     1       8.470   8.575  17.498  0.00  0.00    +0.000 HD
ENDBRANCH   2  16
BRANCH   6  22
ATOM     22  C   UNL     1       2.496   6.438  18.710  0.00  0.00    +0.000 A 
ATOM     23  C   UNL     1       2.352   7.675  18.079  0.00  0.00    +0.000 A 
ATOM     24  C   UNL     1       1.818   8.754  18.789  0.00  0.00    +0.000 A 
ATOM     25  C   UNL     1       1.376   8.647  20.136  0.00  0.00    +0.000 A 
ATOM     26  C   UNL     1       1.597   7.467  20.823  0.00  0.00    +0.000 A 
ATOM     27  C   UNL     1       2.159   6.385  20.116  0.00  0.00    +0.000 A 
BRANCH  25  28
ATOM     28  O   UNL     1       0.720   9.645  20.835  0.00  0.00    +0.000 OA
BRANCH  28  29
ATOM     29  C   UNL     1       1.059   9.740  22.232  0.00  0.00    +0.000 C 
BRANCH  29  30
ATOM     30  C   UNL     1      -0.130   9.583  23.172  0.00  0.00    +0.000 C 
ATOM     31  F   UNL     1      -1.035   8.674  22.759  0.00  0.00    +0.000 F 
ATOM     32  F   UNL     1       0.294   9.197  24.403  0.00  0.00    +0.000 F 
ATOM     33  F   UNL     1      -0.772  10.764  23.332  0.00  0.00    +0.000 F 
ENDBRANCH  29  30
ENDBRANCH  28  29
ENDBRANCH  25  28
ENDBRANCH   6  22
BRANCH   6  34
ATOM     34  C   UNL     1       1.619   4.437  17.923  0.00  0.00    +0.000 C 
ATOM     35  F   UNL     1       1.828   3.172  17.402  0.00  0.00    +0.000 F 
ATOM     36  F   UNL     1       1.016   4.202  19.107  0.00  0.00    +0.000 F 
ATOM     37  F   UNL     1       0.699   5.016  17.126  0.00  0.00    +0.000 F 
ENDBRANCH   6  34
TORSDOF 7
ENDMDL
MODEL 4
REMARK VINA RESULT:      -8.7      0.536      1.348
REMARK  Name = 
REMARK  8 active torsions:
REMARK  status: ('A' for Active; 'I' for Inactive)
REMARK    1  A    between atoms: C_1  and  C_2
REMARK    2  A    between atoms: C_5  and  C_6
REMARK    3  A    between atoms: C_7  and  C_8
REMARK    4  A    between atoms: C_16  and  C_17
REMARK    5  A    between atoms: C_16  and  C_29
REMARK    6  A    between atoms: C_20  and  O_21
REMARK    7  A    between atoms: O_21  and  C_22
REMARK    8  A    between atoms: C_22  and  C_23
REMARK                            x       y       z     vdW  Elec       q    Type
REMARK                         _______ _______ _______ _____ _____    ______ ____
ROOT
ATOM      1  C   UNL     1       5.140   4.467  16.262  0.00  0.00    +0.000 C 
ATOM      2  C   UNL     1       5.930   4.865  17.284  0.00  0.00    +0.000 C 
ATOM      3  C   UNL     1       5.338   4.349  18.549  0.00  0.00    +0.000 C 
ATOM      4  O   UNL     1       5.772   3.353  19.119  0.00  0.00    +0.000 OA
ATOM      5  N   UNL     1       4.195   4.969  18.953  0.00  0.00    +0.000 N 
ATOM      6  C   UNL     1       3.014   5.047  18.038  0.00  0.00    +0.000 C 
ATOM      7  C   UNL     1       3.618   4.481  16.569  0.00  0.00    +0.000 C 
ATOM      8  H   UNL     1       4.500   5.955  18.974  0.00  0.00    +0.000 HD
ENDROOT
BRANCH   1  13
ATOM      9  C   UNL     1       7.656   3.379  11.021  0.00  0.00    +0.000 C 
ATOM     10  C   UNL     1       6.986   3.698  12.329  0.00  0.00    +0.000 A 
ATOM     11  C   UNL     1       5.691   3.269  12.613  0.00  0.00    +0.000 A 
ATOM     12  C   UNL     1       5.106   3.554  13.866  0.00  0.00    +0.000 A 
ATOM     13  C   UNL     1       5.775   4.249  14.894  0.00  0.00    +0.000 A 
ATOM     14  C   UNL     1       7.050   4.756  14.546  0.00  0.00    +0.000 A 
ATOM     15  C   UNL     1       7.627   4.488  13.284  0.00  0.00    +0.000 A 
ENDBRANCH   1  13
BRANCH   2  16
ATOM     16  C   UNL     1       6.422   6.209  17.212  0.00  0.00    +0.000 A 
ATOM     17  N   UNL     1       7.717   6.548  17.476  0.00  0.00    +0.000 NA
ATOM     18  N   UNL     1       7.819   7.848  17.219  0.00  0.00    +0.000 NA
ATOM     19  N   UNL     1       6.602   8.220  16.805  0.00  0.00    +0.000 N 
ATOM     20  N   UNL     1       5.672   7.260  16.821  0.00  0.00    +0.000 NA
ATOM     21  H   UNL     1       6.386   9.164  16.501  0.00  0.00    +0.000 HD
ENDBRANCH   2  16
BRANCH   6  22
ATOM     22  C   UNL     1       2.444   6.336  18.762  0.00  0.00    +0.000 A 
ATOM     23  C   UNL     1       2.294   7.579  18.145  0.00  0.00    +0.000 A 
ATOM     24  C   UNL     1       1.766   8.650  18.871  0.00  0.00    +0.000 A 
ATOM     25  C   UNL     1       1.335   8.529  20.220  0.00  0.00    +0.000 A 
ATOM     26  C   UNL     1       1.562   7.342  20.892  0.00  0.00    +0.000 A 
ATOM     27  C   UNL     1       2.119   6.267  20.169  0.00  0.00    +0.000 A 
BRANCH  25  28
ATOM     28  O   UNL     1       0.684   9.519  20.935  0.00  0.00    +0.000 OA
BRANCH  28  29
ATOM     29  C   UNL     1      -0.277   9.048  21.899  0.00  0.00    +0.000 C 
BRANCH  29  30
ATOM     30  C   UNL     1      -0.479   9.984  23.084  0.00  0.00    +0.000 C 
ATOM     31  F   UNL     1      -1.768  10.126  23.452  0.00  0.00    +0.000 F 
ATOM     32  F   UNL     1       0.199   9.523  24.166  0.00  0.00    +0.000 F 
ATOM     33  F   UNL     1       0.012  11.215  22.810  0.00  0.00    +0.000 F 
ENDBRANCH  29  30
ENDBRANCH  28  29
ENDBRANCH  25  28
ENDBRANCH   6  22
BRANCH   6  34
ATOM     34  C   UNL     1       1.560   4.346  17.952  0.00  0.00    +0.000 C 
ATOM     35  F   UNL     1       1.773   3.060  17.489  0.00  0.00    +0.000 F 
ATOM     36  F   UNL     1       0.929   4.163  19.131  0.00  0.00    +0.000 F 
ATOM     37  F   UNL     1       0.661   4.897  17.112  0.00  0.00    +0.000 F 
ENDBRANCH   6  34
TORSDOF 7
ENDMDL
MODEL 5
REMARK VINA RESULT:      -8.7      1.363      1.579
REMARK  Name = 
REMARK  8 active torsions:
REMARK  status: ('A' for Active; 'I' for Inactive)
REMARK    1  A    between atoms: C_1  and  C_2
REMARK    2  A    between atoms: C_5  and  C_6
REMARK    3  A    between atoms: C_7  and  C_8
REMARK    4  A    between atoms: C_16  and  C_17
REMARK    5  A    between atoms: C_16  and  C_29
REMARK    6  A    between atoms: C_20  and  O_21
REMARK    7  A    between atoms: O_21  and  C_22
REMARK    8  A    between atoms: C_22  and  C_23
REMARK                            x       y       z     vdW  Elec       q    Type
REMARK                         _______ _______ _______ _____ _____    ______ ____
ROOT
ATOM      1  C   UNL     1       5.152   4.529  16.475  0.00  0.00    +0.000 C 
ATOM      2  C   UNL     1       5.931   4.923  17.507  0.00  0.00    +0.000 C 
ATOM      3  C   UNL     1       5.344   4.377  18.761  0.00  0.00    +0.000 C 
ATOM      4  O   UNL     1       5.793   3.379  19.316  0.00  0.00    +0.000 OA
ATOM      5  N   UNL     1       4.190   4.972  19.171  0.00  0.00    +0.000 N 
ATOM      6  C   UNL     1       3.010   5.045  18.254  0.00  0.00    +0.000 C 
ATOM      7  C   UNL     1       3.628   4.513  16.778  0.00  0.00    +0.000 C 
ATOM      8  H   UNL     1       4.478   5.962  19.209  0.00  0.00    +0.000 HD
ENDROOT
BRANCH   1  13
ATOM      9  C   UNL     1       7.577   4.047  11.102  0.00  0.00    +0.000 C 
ATOM     10  C   UNL     1       6.996   4.129  12.488  0.00  0.00    +0.000 A 
ATOM     11  C   UNL     1       7.637   4.824  13.511  0.00  0.00    +0.000 A 
ATOM     12  C   UNL     1       7.046   4.913  14.790  0.00  0.00    +0.000 A 
ATOM     13  C   UNL     1       5.795   4.343  15.107  0.00  0.00    +0.000 A 
ATOM     14  C   UNL     1       5.212   3.564  14.080  0.00  0.00    +0.000 A 
ATOM     15  C   UNL     1       5.815   3.458  12.806  0.00  0.00    +0.000 A 
ENDBRANCH   1  13
BRANCH   2  16
ATOM     16  C   UNL     1       6.402   6.276  17.458  0.00  0.00    +0.000 A 
ATOM     17  N   UNL     1       7.690   6.631  17.733  0.00  0.00    +0.000 NA
ATOM     18  N   UNL     1       7.772   7.938  17.496  0.00  0.00    +0.000 NA
ATOM     19  N   UNL     1       6.550   8.295  17.084  0.00  0.00    +0.000 N 
ATOM     20  N   UNL     1       5.636   7.320  17.081  0.00  0.00    +0.000 NA
ATOM     21  H   UNL     1       6.320   9.241  16.795  0.00  0.00    +0.000 HD
ENDBRANCH   2  16
BRANCH   6  22
ATOM     22  C   UNL     1       2.417   6.312  18.996  0.00  0.00    +0.000 A 
ATOM     23  C   UNL     1       1.999   6.317  20.328  0.00  0.00    +0.000 A 
ATOM     24  C   UNL     1       1.504   7.496  20.892  0.00  0.00    +0.000 A 
ATOM     25  C   UNL     1       1.432   8.721  20.175  0.00  0.00    +0.000 A 
ATOM     26  C   UNL     1       1.740   8.730  18.828  0.00  0.00    +0.000 A 
ATOM     27  C   UNL     1       2.215   7.535  18.250  0.00  0.00    +0.000 A 
BRANCH  25  28
ATOM     28  O   UNL     1       1.077   9.940  20.727  0.00  0.00    +0.000 OA
BRANCH  28  29
ATOM     29  C   UNL     1      -0.339  10.168  20.851  0.00  0.00    +0.000 C 
BRANCH  29  30
ATOM     30  C   UNL     1      -0.973  10.827  19.633  0.00  0.00    +0.000 C 
ATOM     31  F   UNL     1      -1.488   9.952  18.746  0.00  0.00    +0.000 F 
ATOM     32  F   UNL     1      -1.982  11.651  20.017  0.00  0.00    +0.000 F 
ATOM     33  F   UNL     1      -0.069  11.594  18.980  0.00  0.00    +0.000 F 
ENDBRANCH  29  30
ENDBRANCH  28  29
ENDBRANCH  25  28
ENDBRANCH   6  22
BRANCH   6  34
ATOM     34  C   UNL     1       1.568   4.322  18.151  0.00  0.00    +0.000 C 
ATOM     35  F   UNL     1       1.813   3.014  17.774  0.00  0.00    +0.000 F 
ATOM     36  F   UNL     1       0.892   4.201  19.313  0.00  0.00    +0.000 F 
ATOM     37  F   UNL     1       0.699   4.811  17.244  0.00  0.00    +0.000 F 
ENDBRANCH   6  34
TORSDOF 7
ENDMDL
MODEL 6
REMARK VINA RESULT:      -8.6      0.346      1.494
REMARK  Name = 
REMARK  8 active torsions:
REMARK  status: ('A' for Active; 'I' for Inactive)
REMARK    1  A    between atoms: C_1  and  C_2
REMARK    2  A    between atoms: C_5  and  C_6
REMARK    3  A    between atoms: C_7  and  C_8
REMARK    4  A    between atoms: C_16  and  C_17
REMARK    5  A    between atoms: C_16  and  C_29
REMARK    6  A    between atoms: C_20  and  O_21
REMARK    7  A    between atoms: O_21  and  C_22
REMARK    8  A    between atoms: C_22  and  C_23
REMARK                            x       y       z     vdW  Elec       q    Type
REMARK                         _______ _______ _______ _____ _____    ______ ____
ROOT
ATOM      1  C   UNL     1       5.204   4.517  16.201  0.00  0.00    +0.000 C 
ATOM      2  C   UNL     1       6.015   4.961  17.187  0.00  0.00    +0.000 C 
ATOM      3  C   UNL     1       5.473   4.471  18.484  0.00  0.00    +0.000 C 
ATOM      4  O   UNL     1       5.945   3.502  19.069  0.00  0.00    +0.000 OA
ATOM      5  N   UNL     1       4.329   5.079  18.904  0.00  0.00    +0.000 N 
ATOM      6  C   UNL     1       3.120   5.105  18.024  0.00  0.00    +0.000 C 
ATOM      7  C   UNL     1       3.692   4.509  16.554  0.00  0.00    +0.000 C 
ATOM      8  H   UNL     1       4.613   6.071  18.887  0.00  0.00    +0.000 HD
ENDROOT
BRANCH   1  13
ATOM      9  C   UNL     1       7.578   3.321  10.917  0.00  0.00    +0.000 C 
ATOM     10  C   UNL     1       6.944   3.668  12.237  0.00  0.00    +0.000 A 
ATOM     11  C   UNL     1       5.650   3.261  12.558  0.00  0.00    +0.000 A 
ATOM     12  C   UNL     1       5.099   3.571  13.820  0.00  0.00    +0.000 A 
ATOM     13  C   UNL     1       5.803   4.271  14.822  0.00  0.00    +0.000 A 
ATOM     14  C   UNL     1       7.075   4.754  14.436  0.00  0.00    +0.000 A 
ATOM     15  C   UNL     1       7.618   4.462  13.165  0.00  0.00    +0.000 A 
ENDBRANCH   1  13
BRANCH   2  16
ATOM     16  C   UNL     1       6.476   6.312  17.061  0.00  0.00    +0.000 A 
ATOM     17  N   UNL     1       5.644   7.371  16.844  0.00  0.00    +0.000 NA
ATOM     18  N   UNL     1       6.411   8.457  16.876  0.00  0.00    +0.000 NA
ATOM     19  N   UNL     1       7.647   8.005  17.121  0.00  0.00    +0.000 N 
ATOM     20  N   UNL     1       7.768   6.677  17.200  0.00  0.00    +0.000 NA
ATOM     21  H   UNL     1       8.447   8.620  17.235  0.00  0.00    +0.000 HD
ENDBRANCH   2  16
BRANCH   6  22
ATOM     22  C   UNL     1       2.544   6.403  18.726  0.00  0.00    +0.000 A 
ATOM     23  C   UNL     1       2.378   7.633  18.085  0.00  0.00    +0.000 A 
ATOM     24  C   UNL     1       1.845   8.713  18.794  0.00  0.00    +0.000 A 
ATOM     25  C   UNL     1       1.427   8.615  20.150  0.00  0.00    +0.000 A 
ATOM     26  C   UNL     1       1.671   7.444  20.844  0.00  0.00    +0.000 A 
ATOM     27  C   UNL     1       2.231   6.361  20.137  0.00  0.00    +0.000 A 
BRANCH  25  28
ATOM     28  O   UNL     1       0.773   9.613  20.850  0.00  0.00    +0.000 OA
BRANCH  28  29
ATOM     29  C   UNL     1       1.066   9.666  22.259  0.00  0.00    +0.000 C 
BRANCH  29  30
ATOM     30  C   UNL     1      -0.162   9.555  23.154  0.00  0.00    +0.000 C 
ATOM     31  F   UNL     1      -0.880  10.693  23.238  0.00  0.00    +0.000 F 
ATOM     32  F   UNL     1      -0.994   8.588  22.690  0.00  0.00    +0.000 F 
ATOM     33  F   UNL     1       0.193   9.196  24.411  0.00  0.00    +0.000 F 
ENDBRANCH  29  30
ENDBRANCH  28  29
ENDBRANCH  25  28
ENDBRANCH   6  22
BRANCH   6  34
ATOM     34  C   UNL     1       1.679   4.373  18.002  0.00  0.00    +0.000 C 
ATOM     35  F   UNL     1       0.884   5.101  17.136  0.00  0.00    +0.000 F 
ATOM     36  F   UNL     1       1.666   3.127  17.481  0.00  0.00    +0.000 F 
ATOM     37  F   UNL     1       1.001   4.315  19.165  0.00  0.00    +0.000 F 
ENDBRANCH   6  34
TORSDOF 7
ENDMDL
MODEL 7
REMARK VINA RESULT:      -8.5      1.383      1.846
REMARK  Name = 
REMARK  8 active torsions:
REMARK  status: ('A' for Active; 'I' for Inactive)
REMARK    1  A    between atoms: C_1  and  C_2
REMARK    2  A    between atoms: C_5  and  C_6
REMARK    3  A    between atoms: C_7  and  C_8
REMARK    4  A    between atoms: C_16  and  C_17
REMARK    5  A    between atoms: C_16  and  C_29
REMARK    6  A    between atoms: C_20  and  O_21
REMARK    7  A    between atoms: O_21  and  C_22
REMARK    8  A    between atoms: C_22  and  C_23
REMARK                            x       y       z     vdW  Elec       q    Type
REMARK                         _______ _______ _______ _____ _____    ______ ____
ROOT
ATOM      1  C   UNL     1       5.140   4.478  16.297  0.00  0.00    +0.000 C 
ATOM      2  C   UNL     1       5.940   4.880  17.309  0.00  0.00    +0.000 C 
ATOM      3  C   UNL     1       5.371   4.356  18.581  0.00  0.00    +0.000 C 
ATOM      4  O   UNL     1       5.822   3.362  19.141  0.00  0.00    +0.000 OA
ATOM      5  N   UNL     1       4.228   4.965  19.003  0.00  0.00    +0.000 N 
ATOM      6  C   UNL     1       3.034   5.034  18.105  0.00  0.00    +0.000 C 
ATOM      7  C   UNL     1       3.622   4.478  16.626  0.00  0.00    +0.000 C 
ATOM      8  H   UNL     1       4.524   5.953  19.022  0.00  0.00    +0.000 HD
ENDROOT
BRANCH   1  13
ATOM      9  C   UNL     1       7.582   3.423  11.014  0.00  0.00    +0.000 C 
ATOM     10  C   UNL     1       6.931   3.736  12.335  0.00  0.00    +0.000 A 
ATOM     11  C   UNL     1       5.629   3.333  12.622  0.00  0.00    +0.000 A 
ATOM     12  C   UNL     1       5.062   3.610  13.885  0.00  0.00    +0.000 A 
ATOM     13  C   UNL     1       5.757   4.269  14.920  0.00  0.00    +0.000 A 
ATOM     14  C   UNL     1       7.041   4.750  14.569  0.00  0.00    +0.000 A 
ATOM     15  C   UNL     1       7.600   4.492  13.297  0.00  0.00    +0.000 A 
ENDBRANCH   1  13
BRANCH   2  16
ATOM     16  C   UNL     1       6.420   6.229  17.234  0.00  0.00    +0.000 A 
ATOM     17  N   UNL     1       5.606   7.303  17.022  0.00  0.00    +0.000 NA
ATOM     18  N   UNL     1       6.384   8.379  17.107  0.00  0.00    +0.000 NA
ATOM     19  N   UNL     1       7.607   7.906  17.375  0.00  0.00    +0.000 N 
ATOM     20  N   UNL     1       7.711   6.574  17.421  0.00  0.00    +0.000 NA
ATOM     21  H   UNL     1       8.410   8.507  17.530  0.00  0.00    +0.000 HD
ENDBRANCH   2  16
BRANCH   6  22
ATOM     22  C   UNL     1       2.463   6.316  18.840  0.00  0.00    +0.000 A 
ATOM     23  C   UNL     1       2.100   6.351  20.188  0.00  0.00    +0.000 A 
ATOM     24  C   UNL     1       1.621   7.540  20.742  0.00  0.00    +0.000 A 
ATOM     25  C   UNL     1       1.510   8.748  20.000  0.00  0.00    +0.000 A 
ATOM     26  C   UNL     1       1.763   8.725  18.641  0.00  0.00    +0.000 A 
ATOM     27  C   UNL     1       2.222   7.519  18.073  0.00  0.00    +0.000 A 
BRANCH  25  28
ATOM     28  O   UNL     1       1.170   9.978  20.535  0.00  0.00    +0.000 OA
BRANCH  28  29
ATOM     29  C   UNL     1      -0.240  10.191  20.735  0.00  0.00    +0.000 C 
BRANCH  29  30
ATOM     30  C   UNL     1      -0.939  10.864  19.560  0.00  0.00    +0.000 C 
ATOM     31  F   UNL     1      -0.133  11.661  18.830  0.00  0.00    +0.000 F 
ATOM     32  F   UNL     1      -1.448   9.928  18.718  0.00  0.00    +0.000 F 
ATOM     33  F   UNL     1      -1.982  11.612  19.989  0.00  0.00    +0.000 F 
ENDBRANCH  29  30
ENDBRANCH  28  29
ENDBRANCH  25  28
ENDBRANCH   6  22
BRANCH   6  34
ATOM     34  C   UNL     1       1.585   4.321  18.037  0.00  0.00    +0.000 C 
ATOM     35  F   UNL     1       1.813   3.010  17.661  0.00  0.00    +0.000 F 
ATOM     36  F   UNL     1       0.933   4.210  19.214  0.00  0.00    +0.000 F 
ATOM     37  F   UNL     1       0.700   4.812  17.147  0.00  0.00    +0.000 F 
ENDBRANCH   6  34
TORSDOF 7
ENDMDL
MODEL 8
REMARK VINA RESULT:      -8.5      0.655      1.129
REMARK  Name = 
REMARK  8 active torsions:
REMARK  status: ('A' for Active; 'I' for Inactive)
REMARK    1  A    between atoms: C_1  and  C_2
REMARK    2  A    between atoms: C_5  and  C_6
REMARK    3  A    between atoms: C_7  and  C_8
REMARK    4  A    between atoms: C_16  and  C_17
REMARK    5  A    between atoms: C_16  and  C_29
REMARK    6  A    between atoms: C_20  and  O_21
REMARK    7  A    between atoms: O_21  and  C_22
REMARK    8  A    between atoms: C_22  and  C_23
REMARK                            x       y       z     vdW  Elec       q    Type
REMARK                         _______ _______ _______ _____ _____    ______ ____
ROOT
ATOM      1  C   UNL     1       5.098   4.502  16.399  0.00  0.00    +0.000 C 
ATOM      2  C   UNL     1       5.897   4.879  17.421  0.00  0.00    +0.000 C 
ATOM      3  C   UNL     1       5.325   4.325  18.680  0.00  0.00    +0.000 C 
ATOM      4  O   UNL     1       5.774   3.319  19.218  0.00  0.00    +0.000 OA
ATOM      5  N   UNL     1       4.182   4.926  19.113  0.00  0.00    +0.000 N 
ATOM      6  C   UNL     1       2.989   5.018  18.215  0.00  0.00    +0.000 C 
ATOM      7  C   UNL     1       3.580   4.495  16.725  0.00  0.00    +0.000 C 
ATOM      8  H   UNL     1       4.479   5.913  19.156  0.00  0.00    +0.000 HD
ENDROOT
BRANCH   1  13
ATOM      9  C   UNL     1       7.556   3.569  11.100  0.00  0.00    +0.000 C 
ATOM     10  C   UNL     1       6.900   3.850  12.425  0.00  0.00    +0.000 A 
ATOM     11  C   UNL     1       5.605   3.419  12.708  0.00  0.00    +0.000 A 
ATOM     12  C   UNL     1       5.034   3.666  13.975  0.00  0.00    +0.000 A 
ATOM     13  C   UNL     1       5.718   4.324  15.018  0.00  0.00    +0.000 A 
ATOM     14  C   UNL     1       6.992   4.835  14.674  0.00  0.00    +0.000 A 
ATOM     15  C   UNL     1       7.555   4.605  13.398  0.00  0.00    +0.000 A 
ENDBRANCH   1  13
BRANCH   2  16
ATOM     16  C   UNL     1       6.378   6.228  17.378  0.00  0.00    +0.000 A 
ATOM     17  N   UNL     1       7.687   6.564  17.570  0.00  0.00    +0.000 NA
ATOM     18  N   UNL     1       7.766   7.876  17.367  0.00  0.00    +0.000 NA
ATOM     19  N   UNL     1       6.522   8.257  17.054  0.00  0.00    +0.000 N 
ATOM     20  N   UNL     1       5.599   7.291  17.088  0.00  0.00    +0.000 NA
ATOM     21  H   UNL     1       6.282   9.212  16.810  0.00  0.00    +0.000 HD
ENDBRANCH   2  16
BRANCH   6  22
ATOM     22  C   UNL     1       2.418   6.283  18.978  0.00  0.00    +0.000 A 
ATOM     23  C   UNL     1       2.046   6.284  20.324  0.00  0.00    +0.000 A 
ATOM     24  C   UNL     1       1.567   7.461  20.906  0.00  0.00    +0.000 A 
ATOM     25  C   UNL     1       1.467   8.688  20.194  0.00  0.00    +0.000 A 
ATOM     26  C   UNL     1       1.729   8.698  18.836  0.00  0.00    +0.000 A 
ATOM     27  C   UNL     1       2.188   7.506  18.241  0.00  0.00    +0.000 A 
BRANCH  25  28
ATOM     28  O   UNL     1       1.128   9.905  20.758  0.00  0.00    +0.000 OA
BRANCH  28  29
ATOM     29  C   UNL     1       0.314   9.826  21.944  0.00  0.00    +0.000 C 
BRANCH  29  30
ATOM     30  C   UNL     1      -0.659  10.987  22.109  0.00  0.00    +0.000 C 
ATOM     31  F   UNL     1      -0.057  12.176  22.309  0.00  0.00    +0.000 F 
ATOM     32  F   UNL     1      -1.434  11.111  21.001  0.00  0.00    +0.000 F 
ATOM     33  F   UNL     1      -1.495  10.765  23.150  0.00  0.00    +0.000 F 
ENDBRANCH  29  30
ENDBRANCH  28  29
ENDBRANCH  25  28
ENDBRANCH   6  22
BRANCH   6  34
ATOM     34  C   UNL     1       1.539   4.308  18.127  0.00  0.00    +0.000 C 
ATOM     35  F   UNL     1       1.772   2.988  17.787  0.00  0.00    +0.000 F 
ATOM     36  F   UNL     1       0.859   4.226  19.290  0.00  0.00    +0.000 F 
ATOM     37  F   UNL     1       0.678   4.781  17.205  0.00  0.00    +0.000 F 
ENDBRANCH   6  34
TORSDOF 7
ENDMDL
MODEL 9
REMARK VINA RESULT:      -8.5      1.544      1.823
REMARK  Name = 
REMARK  8 active torsions:
REMARK  status: ('A' for Active; 'I' for Inactive)
REMARK    1  A    between atoms: C_1  and  C_2
REMARK    2  A    between atoms: C_5  and  C_6
REMARK    3  A    between atoms: C_7  and  C_8
REMARK    4  A    between atoms: C_16  and  C_17
REMARK    5  A    between atoms: C_16  and  C_29
REMARK    6  A    between atoms: C_20  and  O_21
REMARK    7  A    between atoms: O_21  and  C_22
REMARK    8  A    between atoms: C_22  and  C_23
REMARK                            x       y       z     vdW  Elec       q    Type
REMARK                         _______ _______ _______ _____ _____    ______ ____
ROOT
ATOM      1  C   UNL     1       5.148   4.521  16.488  0.00  0.00    +0.000 C 
ATOM      2  C   UNL     1       5.929   4.915  17.518  0.00  0.00    +0.000 C 
ATOM      3  C   UNL     1       5.347   4.366  18.773  0.00  0.00    +0.000 C 
ATOM      4  O   UNL     1       5.800   3.369  19.325  0.00  0.00    +0.000 OA
ATOM      5  N   UNL     1       4.191   4.957  19.187  0.00  0.00    +0.000 N 
ATOM      6  C   UNL     1       3.010   5.028  18.272  0.00  0.00    +0.000 C 
ATOM      7  C   UNL     1       3.626   4.500  16.794  0.00  0.00    +0.000 C 
ATOM      8  H   UNL     1       4.477   5.948  19.225  0.00  0.00    +0.000 HD
ENDROOT
BRANCH   1  13
ATOM      9  C   UNL     1       7.562   4.054  11.108  0.00  0.00    +0.000 C 
ATOM     10  C   UNL     1       6.984   4.132  12.495  0.00  0.00    +0.000 A 
ATOM     11  C   UNL     1       7.626   4.827  13.518  0.00  0.00    +0.000 A 
ATOM     12  C   UNL     1       7.037   4.912  14.799  0.00  0.00    +0.000 A 
ATOM     13  C   UNL     1       5.788   4.339  15.118  0.00  0.00    +0.000 A 
ATOM     14  C   UNL     1       5.205   3.560  14.091  0.00  0.00    +0.000 A 
ATOM     15  C   UNL     1       5.805   3.457  12.815  0.00  0.00    +0.000 A 
ENDBRANCH   1  13
BRANCH   2  16
ATOM     16  C   UNL     1       6.396   6.270  17.470  0.00  0.00    +0.000 A 
ATOM     17  N   UNL     1       7.682   6.630  17.749  0.00  0.00    +0.000 NA
ATOM     18  N   UNL     1       7.760   7.936  17.512  0.00  0.00    +0.000 NA
ATOM     19  N   UNL     1       6.539   8.290  17.095  0.00  0.00    +0.000 N 
ATOM     20  N   UNL     1       5.628   7.312  17.089  0.00  0.00    +0.000 NA
ATOM     21  H   UNL     1       6.307   9.234  16.804  0.00  0.00    +0.000 HD
ENDBRANCH   2  16
BRANCH   6  22
ATOM     22  C   UNL     1       2.414   6.292  19.017  0.00  0.00    +0.000 A 
ATOM     23  C   UNL     1       1.993   6.291  20.349  0.00  0.00    +0.000 A 
ATOM     24  C   UNL     1       1.497   7.468  20.916  0.00  0.00    +0.000 A 
ATOM     25  C   UNL     1       1.426   8.697  20.204  0.00  0.00    +0.000 A 
ATOM     26  C   UNL     1       1.737   8.710  18.857  0.00  0.00    +0.000 A 
ATOM     27  C   UNL     1       2.215   7.518  18.276  0.00  0.00    +0.000 A 
BRANCH  25  28
ATOM     28  O   UNL     1       1.070   9.914  20.758  0.00  0.00    +0.000 OA
BRANCH  28  29
ATOM     29  C   UNL     1       0.488  10.859  19.841  0.00  0.00    +0.000 C 
BRANCH  29  30
ATOM     30  C   UNL     1       1.265  12.164  19.718  0.00  0.00    +0.000 C 
ATOM     31  F   UNL     1       1.891  12.535  20.853  0.00  0.00    +0.000 F 
ATOM     32  F   UNL     1       2.213  12.056  18.752  0.00  0.00    +0.000 F 
ATOM     33  F   UNL     1       0.444  13.176  19.349  0.00  0.00    +0.000 F 
ENDBRANCH  29  30
ENDBRANCH  28  29
ENDBRANCH  25  28
ENDBRANCH   6  22
BRANCH   6  34
ATOM     34  C   UNL     1       1.569   4.301  18.172  0.00  0.00    +0.000 C 
ATOM     35  F   UNL     1       1.819   2.987  17.820  0.00  0.00    +0.000 F 
ATOM     36  F   UNL     1       0.885   4.200  19.331  0.00  0.00    +0.000 F 
ATOM     37  F   UNL     1       0.706   4.772  17.250  0.00  0.00    +0.000 F 
ENDBRANCH   6  34
TORSDOF 7
ENDMDL
