MODEL 1
REMARK VINA RESULT:      -7.1      0.000      0.000
REMARK  Name = 
REMARK  8 active torsions:
REMARK  status: ('A' for Active; 'I' for Inactive)
REMARK    1  A    between atoms: C_1  and  C_2
REMARK    2  A    between atoms: C_2  and  C_3
REMARK    3  A    between atoms: C_2  and  N_4
REMARK    4  A    between atoms: C_7  and  S_8
REMARK    5  A    between atoms: S_8  and  C_9
REMARK    6  A    between atoms: C_12  and  C_13
REMARK    7  A    between atoms: C_13  and  C_15
REMARK    8  A    between atoms: N_22  and  C_23
REMARK                            x       y       z     vdW  Elec       q    Type
REMARK                         _______ _______ _______ _____ _____    ______ ____
ROOT
ATOM      1  C   UNL     1       3.706   3.697  17.493  0.00  0.00    +0.000 A 
ATOM      2  N   UNL     1       2.474   3.580  17.069  0.00  0.00    +0.000 NA
ATOM      3  C   UNL     1       1.722   4.315  17.943  0.00  0.00    +0.000 A 
ATOM      4  C   UNL     1       2.486   4.858  18.961  0.00  0.00    +0.000 A 
ATOM      5  N   UNL     1       3.771   4.428  18.657  0.00  0.00    +0.000 N 
ATOM      6  C   UNL     1       4.977   4.664  19.424  0.00  0.00    +0.000 C 
ENDROOT
BRANCH   4   7
ATOM      7  C   UNL     1       2.103   5.743  20.047  0.00  0.00    +0.000 C 
ATOM      8  O   UNL     1       1.933   5.339  21.196  0.00  0.00    +0.000 OA
BRANCH   7   9
ATOM      9  C   UNL     1       1.885   7.201  19.808  0.00  0.00    +0.000 A 
ATOM     10  C   UNL     1       1.198   7.945  20.782  0.00  0.00    +0.000 A 
ATOM     11  C   UNL     1       0.867   9.285  20.550  0.00  0.00    +0.000 A 
ATOM     12  C   UNL     1       1.218   9.881  19.344  0.00  0.00    +0.000 A 
ATOM     13 CL   UNL     1       0.758  11.511  19.026  0.00  0.00    +0.000 Cl
ATOM     14  C   UNL     1       1.909   9.161  18.372  0.00  0.00    +0.000 A 
ATOM     15  C   UNL     1       2.242   7.818  18.599  0.00  0.00    +0.000 A 
ENDBRANCH   7   9
ENDBRANCH   4   7
BRANCH   1  16
ATOM     16  S   UNL     1       5.113   3.301  16.562  0.00  0.00    +0.000 S 
BRANCH  16  20
ATOM     17  N   UNL     1       7.187   6.575  16.388  0.00  0.00    +0.000 NA
ATOM     18  C   UNL     1       7.629   5.251  15.932  0.00  0.00    +0.000 C 
ATOM     19  C   UNL     1       6.727   4.674  14.830  0.00  0.00    +0.000 C 
ATOM     20  C   UNL     1       5.256   4.595  15.268  0.00  0.00    +0.000 C 
ATOM     21  C   UNL     1       4.834   6.008  15.666  0.00  0.00    +0.000 C 
ATOM     22  C   UNL     1       5.757   6.622  16.728  0.00  0.00    +0.000 C 
BRANCH  17  24
ATOM     23  C   UNL     1       7.799   8.629  17.788  0.00  0.00    +0.000 C 
ATOM     24  C   UNL     1       8.010   7.133  17.495  0.00  0.00    +0.000 C 
ATOM     25  C   UNL     1       7.844   6.344  18.801  0.00  0.00    +0.000 C 
ENDBRANCH  17  24
ENDBRANCH  16  20
ENDBRANCH   1  16
TORSDOF 5
ENDMDL
MODEL 2
REMARK VINA RESULT:      -7.0      3.441      5.109
REMARK  Name = 
REMARK  8 active torsions:
REMARK  status: ('A' for Active; 'I' for Inactive)
REMARK    1  A    between atoms: C_1  and  C_2
REMARK    2  A    between atoms: C_2  and  C_3
REMARK    3  A    between atoms: C_2  and  N_4
REMARK    4  A    between atoms: C_7  and  S_8
REMARK    5  A    between atoms: S_8  and  C_9
REMARK    6  A    between atoms: C_12  and  C_13
REMARK    7  A    between atoms: C_13  and  C_15
REMARK    8  A    between atoms: N_22  and  C_23
REMARK                            x       y       z     vdW  Elec       q    Type
REMARK                         _______ _______ _______ _____ _____    ______ ____
ROOT
ATOM      1  C   UNL     1       1.953   8.154  19.436  0.00  0.00    +0.000 A 
ATOM      2  N   UNL     1       1.503   7.756  20.598  0.00  0.00    +0.000 NA
ATOM      3  C   UNL     1       0.670   8.755  21.022  0.00  0.00    +0.000 A 
ATOM      4  C   UNL     1       0.638   9.819  20.138  0.00  0.00    +0.000 A 
ATOM      5  N   UNL     1       1.494   9.413  19.122  0.00  0.00    +0.000 N 
ATOM      6  C   UNL     1       1.877  10.168  17.947  0.00  0.00    +0.000 C 
ENDROOT
BRANCH   4   7
ATOM      7  C   UNL     1      -0.150  11.038  20.170  0.00  0.00    +0.000 C 
ATOM      8  O   UNL     1       0.182  12.019  20.833  0.00  0.00    +0.000 OA
BRANCH   7   9
ATOM      9  C   UNL     1      -1.423  11.149  19.397  0.00  0.00    +0.000 A 
ATOM     10  C   UNL     1      -2.369  12.108  19.796  0.00  0.00    +0.000 A 
ATOM     11  C   UNL     1      -3.623  12.170  19.178  0.00  0.00    +0.000 A 
ATOM     12  C   UNL     1      -3.934  11.272  18.164  0.00  0.00    +0.000 A 
ATOM     13 CL   UNL     1      -5.499  11.301  17.442  0.00  0.00    +0.000 Cl
ATOM     14  C   UNL     1      -3.004  10.322  17.748  0.00  0.00    +0.000 A 
ATOM     15  C   UNL     1      -1.746  10.255  18.365  0.00  0.00    +0.000 A 
ENDBRANCH   7   9
ENDBRANCH   4   7
BRANCH   1  16
ATOM     16  S   UNL     1       2.731   7.130  18.274  0.00  0.00    +0.000 S 
BRANCH  16  20
ATOM     17  N   UNL     1       5.002   4.069  17.555  0.00  0.00    +0.000 NA
ATOM     18  C   UNL     1       5.290   5.149  18.506  0.00  0.00    +0.000 C 
ATOM     19  C   UNL     1       4.225   5.266  19.608  0.00  0.00    +0.000 C 
ATOM     20  C   UNL     1       2.814   5.461  19.032  0.00  0.00    +0.000 C 
ATOM     21  C   UNL     1       2.546   4.276  18.105  0.00  0.00    +0.000 C 
ATOM     22  C   UNL     1       3.628   4.111  17.029  0.00  0.00    +0.000 C 
BRANCH  17  24
ATOM     23  C   UNL     1       5.529   4.554  15.097  0.00  0.00    +0.000 C 
ATOM     24  C   UNL     1       5.988   3.969  16.445  0.00  0.00    +0.000 C 
ATOM     25  C   UNL     1       7.346   4.580  16.814  0.00  0.00    +0.000 C 
ENDBRANCH  17  24
ENDBRANCH  16  20
ENDBRANCH   1  16
TORSDOF 5
ENDMDL
MODEL 3
REMARK VINA RESULT:      -6.8      3.186      4.670
REMARK  Name = 
REMARK  8 active torsions:
REMARK  status: ('A' for Active; 'I' for Inactive)
REMARK    1  A    between atoms: C_1  and  C_2
REMARK    2  A    between atoms: C_2  and  C_3
REMARK    3  A    between atoms: C_2  and  N_4
REMARK    4  A    between atoms: C_7  and  S_8
REMARK    5  A    between atoms: S_8  and  C_9
REMARK    6  A    between atoms: C_12  and  C_13
REMARK    7  A    between atoms: C_13  and  C_15
REMARK    8  A    between atoms: N_22  and  C_23
REMARK                            x       y       z     vdW  Elec       q    Type
REMARK                         _______ _______ _______ _____ _____    ______ ____
ROOT
ATOM      1  C   UNL     1       2.355   7.506  19.073  0.00  0.00    +0.000 A 
ATOM      2  N   UNL     1       2.651   7.932  17.871  0.00  0.00    +0.000 NA
ATOM      3  C   UNL     1       2.027   9.144  17.758  0.00  0.00    +0.000 A 
ATOM      4  C   UNL     1       1.287   9.459  18.883  0.00  0.00    +0.000 A 
ATOM      5  N   UNL     1       1.502   8.370  19.718  0.00  0.00    +0.000 N 
ATOM      6  C   UNL     1       0.921   8.143  21.026  0.00  0.00    +0.000 C 
ENDROOT
BRANCH   4   7
ATOM      7  C   UNL     1       0.533  10.659  19.201  0.00  0.00    +0.000 C 
ATOM      8  O   UNL     1       1.028  11.605  19.810  0.00  0.00    +0.000 OA
BRANCH   7   9
ATOM      9  C   UNL     1      -0.901  10.790  18.806  0.00  0.00    +0.000 A 
ATOM     10  C   UNL     1      -1.369  10.033  17.719  0.00  0.00    +0.000 A 
ATOM     11  C   UNL     1      -2.672  10.210  17.238  0.00  0.00    +0.000 A 
ATOM     12  C   UNL     1      -3.505  11.146  17.839  0.00  0.00    +0.000 A 
ATOM     13 CL   UNL     1      -5.088  11.415  17.212  0.00  0.00    +0.000 Cl
ATOM     14  C   UNL     1      -3.060  11.898  18.925  0.00  0.00    +0.000 A 
ATOM     15  C   UNL     1      -1.756  11.724  19.410  0.00  0.00    +0.000 A 
ENDBRANCH   7   9
ENDBRANCH   4   7
BRANCH   1  16
ATOM     16  S   UNL     1       3.179   6.222  19.895  0.00  0.00    +0.000 S 
BRANCH  16  20
ATOM     17  N   UNL     1       5.447   4.072  17.596  0.00  0.00    +0.000 NA
ATOM     18  C   UNL     1       5.268   3.891  19.042  0.00  0.00    +0.000 C 
ATOM     19  C   UNL     1       3.808   3.601  19.426  0.00  0.00    +0.000 C 
ATOM     20  C   UNL     1       2.851   4.696  18.930  0.00  0.00    +0.000 C 
ATOM     21  C   UNL     1       3.033   4.793  17.417  0.00  0.00    +0.000 C 
ATOM     22  C   UNL     1       4.495   5.029  17.012  0.00  0.00    +0.000 C 
BRANCH  17  24
ATOM     23  C   UNL     1       7.061   4.672  15.702  0.00  0.00    +0.000 C 
ATOM     24  C   UNL     1       6.841   4.410  17.203  0.00  0.00    +0.000 C 
ATOM     25  C   UNL     1       7.402   5.595  18.001  0.00  0.00    +0.000 C 
ENDBRANCH  17  24
ENDBRANCH  16  20
ENDBRANCH   1  16
TORSDOF 5
ENDMDL
MODEL 4
REMARK VINA RESULT:      -6.8      3.184      4.625
REMARK  Name = 
REMARK  8 active torsions:
REMARK  status: ('A' for Active; 'I' for Inactive)
REMARK    1  A    between atoms: C_1  and  C_2
REMARK    2  A    between atoms: C_2  and  C_3
REMARK    3  A    between atoms: C_2  and  N_4
REMARK    4  A    between atoms: C_7  and  S_8
REMARK    5  A    between atoms: S_8  and  C_9
REMARK    6  A    between atoms: C_12  and  C_13
REMARK    7  A    between atoms: C_13  and  C_15
REMARK    8  A    between atoms: N_22  and  C_23
REMARK                            x       y       z     vdW  Elec       q    Type
REMARK                         _______ _______ _______ _____ _____    ______ ____
ROOT
ATOM      1  C   UNL     1       2.371   7.476  19.056  0.00  0.00    +0.000 A 
ATOM      2  N   UNL     1       2.659   7.872  17.843  0.00  0.00    +0.000 NA
ATOM      3  C   UNL     1       2.045   9.086  17.706  0.00  0.00    +0.000 A 
ATOM      4  C   UNL     1       1.316   9.433  18.831  0.00  0.00    +0.000 A 
ATOM      5  N   UNL     1       1.529   8.362  19.688  0.00  0.00    +0.000 N 
ATOM      6  C   UNL     1       0.957   8.169  21.006  0.00  0.00    +0.000 C 
ENDROOT
BRANCH   4   7
ATOM      7  C   UNL     1       0.574  10.645  19.127  0.00  0.00    +0.000 C 
ATOM      8  O   UNL     1       1.058  11.570  19.778  0.00  0.00    +0.000 OA
BRANCH   7   9
ATOM      9  C   UNL     1      -0.832  10.818  18.656  0.00  0.00    +0.000 A 
ATOM     10  C   UNL     1      -1.654  11.741  19.324  0.00  0.00    +0.000 A 
ATOM     11  C   UNL     1      -3.011  11.853  18.996  0.00  0.00    +0.000 A 
ATOM     12  C   UNL     1      -3.546  11.041  18.003  0.00  0.00    +0.000 A 
ATOM     13 CL   UNL     1      -5.228  11.128  17.637  0.00  0.00    +0.000 Cl
ATOM     14  C   UNL     1      -2.742  10.128  17.322  0.00  0.00    +0.000 A 
ATOM     15  C   UNL     1      -1.383  10.012  17.648  0.00  0.00    +0.000 A 
ENDBRANCH   7   9
ENDBRANCH   4   7
BRANCH   1  16
ATOM     16  S   UNL     1       3.191   6.205  19.901  0.00  0.00    +0.000 S 
BRANCH  16  20
ATOM     17  N   UNL     1       5.098   3.945  17.390  0.00  0.00    +0.000 NA
ATOM     18  C   UNL     1       5.132   3.826  18.853  0.00  0.00    +0.000 C 
ATOM     19  C   UNL     1       3.744   3.562  19.457  0.00  0.00    +0.000 C 
ATOM     20  C   UNL     1       2.725   4.641  19.060  0.00  0.00    +0.000 C 
ATOM     21  C   UNL     1       2.684   4.673  17.533  0.00  0.00    +0.000 C 
ATOM     22  C   UNL     1       4.071   4.882  16.910  0.00  0.00    +0.000 C 
BRANCH  17  24
ATOM     23  C   UNL     1       6.387   5.213  15.578  0.00  0.00    +0.000 C 
ATOM     24  C   UNL     1       6.421   4.256  16.783  0.00  0.00    +0.000 C 
ATOM     25  C   UNL     1       7.424   4.792  17.814  0.00  0.00    +0.000 C 
ENDBRANCH  17  24
ENDBRANCH  16  20
ENDBRANCH   1  16
TORSDOF 5
ENDMDL
MODEL 5
REMARK VINA RESULT:      -6.6      4.034      6.189
REMARK  Name = 
REMARK  8 active torsions:
REMARK  status: ('A' for Active; 'I' for Inactive)
REMARK    1  A    between atoms: C_1  and  C_2
REMARK    2  A    between atoms: C_2  and  C_3
REMARK    3  A    between atoms: C_2  and  N_4
REMARK    4  A    between atoms: C_7  and  S_8
REMARK    5  A    between atoms: S_8  and  C_9
REMARK    6  A    between atoms: C_12  and  C_13
REMARK    7  A    between atoms: C_13  and  C_15
REMARK    8  A    between atoms: N_22  and  C_23
REMARK                            x       y       z     vdW  Elec       q    Type
REMARK                         _______ _______ _______ _____ _____    ______ ____
ROOT
ATOM      1  C   UNL     1       1.820   7.941  20.118  0.00  0.00    +0.000 A 
ATOM      2  N   UNL     1       1.219   8.212  21.248  0.00  0.00    +0.000 NA
ATOM      3  C   UNL     1       0.497   9.348  21.008  0.00  0.00    +0.000 A 
ATOM      4  C   UNL     1       0.689   9.828  19.725  0.00  0.00    +0.000 A 
ATOM      5  N   UNL     1       1.567   8.906  19.170  0.00  0.00    +0.000 N 
ATOM      6  C   UNL     1       2.153   8.943  17.845  0.00  0.00    +0.000 C 
ENDROOT
BRANCH   4   7
ATOM      7  C   UNL     1       0.076  10.956  19.047  0.00  0.00    +0.000 C 
ATOM      8  O   UNL     1       0.725  11.929  18.669  0.00  0.00    +0.000 OA
BRANCH   7   9
ATOM      9  C   UNL     1      -1.394  10.987  18.787  0.00  0.00    +0.000 A 
ATOM     10  C   UNL     1      -1.925  10.107  17.829  0.00  0.00    +0.000 A 
ATOM     11  C   UNL     1      -3.275  10.180  17.466  0.00  0.00    +0.000 A 
ATOM     12  C   UNL     1      -4.094  11.135  18.057  0.00  0.00    +0.000 A 
ATOM     13 CL   UNL     1      -5.741  11.273  17.569  0.00  0.00    +0.000 Cl
ATOM     14  C   UNL     1      -3.587  12.008  19.018  0.00  0.00    +0.000 A 
ATOM     15  C   UNL     1      -2.235  11.939  19.383  0.00  0.00    +0.000 A 
ENDBRANCH   7   9
ENDBRANCH   4   7
BRANCH   1  16
ATOM     16  S   UNL     1       2.549   6.419  19.727  0.00  0.00    +0.000 S 
BRANCH  16  20
ATOM     17  N   UNL     1       2.268   2.559  19.461  0.00  0.00    +0.000 NA
ATOM     18  C   UNL     1       3.345   3.299  20.131  0.00  0.00    +0.000 C 
ATOM     19  C   UNL     1       2.830   4.182  21.278  0.00  0.00    +0.000 C 
ATOM     20  C   UNL     1       1.750   5.171  20.809  0.00  0.00    +0.000 C 
ATOM     21  C   UNL     1       0.631   4.341  20.184  0.00  0.00    +0.000 C 
ATOM     22  C   UNL     1       1.136   3.412  19.070  0.00  0.00    +0.000 C 
BRANCH  17  24
ATOM     23  C   UNL     1       2.854   2.487  16.970  0.00  0.00    +0.000 C 
ATOM     24  C   UNL     1       2.732   1.739  18.309  0.00  0.00    +0.000 C 
ATOM     25  C   UNL     1       4.058   1.021  18.600  0.00  0.00    +0.000 C 
ENDBRANCH  17  24
ENDBRANCH  16  20
ENDBRANCH   1  16
TORSDOF 5
ENDMDL
MODEL 6
REMARK VINA RESULT:      -6.5      3.402      5.559
REMARK  Name = 
REMARK  8 active torsions:
REMARK  status: ('A' for Active; 'I' for Inactive)
REMARK    1  A    between atoms: C_1  and  C_2
REMARK    2  A    between atoms: C_2  and  C_3
REMARK    3  A    between atoms: C_2  and  N_4
REMARK    4  A    between atoms: C_7  and  S_8
REMARK    5  A    between atoms: S_8  and  C_9
REMARK    6  A    between atoms: C_12  and  C_13
REMARK    7  A    between atoms: C_13  and  C_15
REMARK    8  A    between atoms: N_22  and  C_23
REMARK                            x       y       z     vdW  Elec       q    Type
REMARK                         _______ _______ _______ _____ _____    ______ ____
ROOT
ATOM      1  C   UNL     1       2.376   8.046  18.537  0.00  0.00    +0.000 A 
ATOM      2  N   UNL     1       2.372   8.792  17.463  0.00  0.00    +0.000 NA
ATOM      3  C   UNL     1       1.611   9.881  17.785  0.00  0.00    +0.000 A 
ATOM      4  C   UNL     1       1.085   9.792  19.061  0.00  0.00    +0.000 A 
ATOM      5  N   UNL     1       1.583   8.582  19.525  0.00  0.00    +0.000 N 
ATOM      6  C   UNL     1       1.309   7.955  20.803  0.00  0.00    +0.000 C 
ENDROOT
BRANCH   4   7
ATOM      7  C   UNL     1       0.285  10.744  19.811  0.00  0.00    +0.000 C 
ATOM      8  O   UNL     1       0.728  11.357  20.781  0.00  0.00    +0.000 OA
BRANCH   7   9
ATOM      9  C   UNL     1      -1.135  11.015  19.438  0.00  0.00    +0.000 A 
ATOM     10  C   UNL     1      -1.694  10.301  18.365  0.00  0.00    +0.000 A 
ATOM     11  C   UNL     1      -2.981  10.603  17.903  0.00  0.00    +0.000 A 
ATOM     12  C   UNL     1      -3.708  11.620  18.511  0.00  0.00    +0.000 A 
ATOM     13 CL   UNL     1      -5.266  12.041  17.907  0.00  0.00    +0.000 Cl
ATOM     14  C   UNL     1      -3.173  12.331  19.584  0.00  0.00    +0.000 A 
ATOM     15  C   UNL     1      -1.884  12.032  20.049  0.00  0.00    +0.000 A 
ENDBRANCH   7   9
ENDBRANCH   4   7
BRANCH   1  16
ATOM     16  S   UNL     1       3.486   6.749  18.835  0.00  0.00    +0.000 S 
BRANCH  16  20
ATOM     17  N   UNL     1       2.954   2.916  19.109  0.00  0.00    +0.000 NA
ATOM     18  C   UNL     1       1.906   3.939  19.203  0.00  0.00    +0.000 C 
ATOM     19  C   UNL     1       1.798   4.794  17.930  0.00  0.00    +0.000 C 
ATOM     20  C   UNL     1       3.132   5.467  17.570  0.00  0.00    +0.000 C 
ATOM     21  C   UNL     1       4.165   4.352  17.420  0.00  0.00    +0.000 C 
ATOM     22  C   UNL     1       4.249   3.454  18.663  0.00  0.00    +0.000 C 
BRANCH  17  24
ATOM     23  C   UNL     1       4.571   1.790  20.743  0.00  0.00    +0.000 C 
ATOM     24  C   UNL     1       3.118   2.110  20.349  0.00  0.00    +0.000 C 
ATOM     25  C   UNL     1       2.405   2.740  21.553  0.00  0.00    +0.000 C 
ENDBRANCH  17  24
ENDBRANCH  16  20
ENDBRANCH   1  16
TORSDOF 5
ENDMDL
MODEL 7
REMARK VINA RESULT:      -6.5      4.034      6.168
REMARK  Name = 
REMARK  8 active torsions:
REMARK  status: ('A' for Active; 'I' for Inactive)
REMARK    1  A    between atoms: C_1  and  C_2
REMARK    2  A    between atoms: C_2  and  C_3
REMARK    3  A    between atoms: C_2  and  N_4
REMARK    4  A    between atoms: C_7  and  S_8
REMARK    5  A    between atoms: S_8  and  C_9
REMARK    6  A    between atoms: C_12  and  C_13
REMARK    7  A    between atoms: C_13  and  C_15
REMARK    8  A    between atoms: N_22  and  C_23
REMARK                            x       y       z     vdW  Elec       q    Type
REMARK                         _______ _______ _______ _____ _____    ______ ____
ROOT
ATOM      1  C   UNL     1       1.371   8.720  19.735  0.00  0.00    +0.000 A 
ATOM      2  N   UNL     1       1.264   9.388  18.615  0.00  0.00    +0.000 NA
ATOM      3  C   UNL     1       0.843  10.636  18.981  0.00  0.00    +0.000 A 
ATOM      4  C   UNL     1       0.631  10.738  20.345  0.00  0.00    +0.000 A 
ATOM      5  N   UNL     1       0.965   9.474  20.812  0.00  0.00    +0.000 N 
ATOM      6  C   UNL     1       0.882   8.996  22.177  0.00  0.00    +0.000 C 
ENDROOT
BRANCH   4   7
ATOM      7  C   UNL     1       0.248  11.885  21.148  0.00  0.00    +0.000 C 
ATOM      8  O   UNL     1       1.057  12.742  21.499  0.00  0.00    +0.000 OA
BRANCH   7   9
ATOM      9  C   UNL     1      -1.164  12.069  21.598  0.00  0.00    +0.000 A 
ATOM     10  C   UNL     1      -2.092  12.607  20.691  0.00  0.00    +0.000 A 
ATOM     11  C   UNL     1      -3.396  12.908  21.102  0.00  0.00    +0.000 A 
ATOM     12  C   UNL     1      -3.772  12.673  22.420  0.00  0.00    +0.000 A 
ATOM     13 CL   UNL     1      -5.356  13.100  22.950  0.00  0.00    +0.000 Cl
ATOM     14  C   UNL     1      -2.867  12.130  23.330  0.00  0.00    +0.000 A 
ATOM     15  C   UNL     1      -1.560  11.828  22.923  0.00  0.00    +0.000 A 
ENDBRANCH   7   9
ENDBRANCH   4   7
BRANCH   1  16
ATOM     16  S   UNL     1       2.227   7.224  19.915  0.00  0.00    +0.000 S 
BRANCH  16  20
ATOM     17  N   UNL     1       3.581   3.868  18.517  0.00  0.00    +0.000 NA
ATOM     18  C   UNL     1       2.169   4.260  18.596  0.00  0.00    +0.000 C 
ATOM     19  C   UNL     1       1.863   5.534  17.794  0.00  0.00    +0.000 C 
ATOM     20  C   UNL     1       2.742   6.718  18.228  0.00  0.00    +0.000 C 
ATOM     21  C   UNL     1       4.195   6.276  18.061  0.00  0.00    +0.000 C 
ATOM     22  C   UNL     1       4.506   4.974  18.813  0.00  0.00    +0.000 C 
BRANCH  17  24
ATOM     23  C   UNL     1       3.252   2.601  20.717  0.00  0.00    +0.000 C 
ATOM     24  C   UNL     1       3.917   2.669  19.331  0.00  0.00    +0.000 C 
ATOM     25  C   UNL     1       3.637   1.359  18.582  0.00  0.00    +0.000 C 
ENDBRANCH  17  24
ENDBRANCH  16  20
ENDBRANCH   1  16
TORSDOF 5
ENDMDL
MODEL 8
REMARK VINA RESULT:      -6.4      5.049      8.863
REMARK  Name = 
REMARK  8 active torsions:
REMARK  status: ('A' for Active; 'I' for Inactive)
REMARK    1  A    between atoms: C_1  and  C_2
REMARK    2  A    between atoms: C_2  and  C_3
REMARK    3  A    between atoms: C_2  and  N_4
REMARK    4  A    between atoms: C_7  and  S_8
REMARK    5  A    between atoms: S_8  and  C_9
REMARK    6  A    between atoms: C_12  and  C_13
REMARK    7  A    between atoms: C_13  and  C_15
REMARK    8  A    between atoms: N_22  and  C_23
REMARK                            x       y       z     vdW  Elec       q    Type
REMARK                         _______ _______ _______ _____ _____    ______ ____
ROOT
ATOM      1  C   UNL     1       0.859   9.631  19.227  0.00  0.00    +0.000 A 
ATOM      2  N   UNL     1       1.269   9.788  17.994  0.00  0.00    +0.000 NA
ATOM      3  C   UNL     1       2.059   8.702  17.738  0.00  0.00    +0.000 A 
ATOM      4  C   UNL     1       2.190   7.878  18.842  0.00  0.00    +0.000 A 
ATOM      5  N   UNL     1       1.414   8.512  19.804  0.00  0.00    +0.000 N 
ATOM      6  C   UNL     1       1.229   8.109  21.183  0.00  0.00    +0.000 C 
ENDROOT
BRANCH   4   7
ATOM      7  C   UNL     1       2.878   6.607  18.984  0.00  0.00    +0.000 C 
ATOM      8  O   UNL     1       2.851   5.958  20.028  0.00  0.00    +0.000 OA
BRANCH   7   9
ATOM      9  C   UNL     1       3.667   6.032  17.855  0.00  0.00    +0.000 A 
ATOM     10  C   UNL     1       3.533   4.662  17.572  0.00  0.00    +0.000 A 
ATOM     11  C   UNL     1       4.338   4.054  16.602  0.00  0.00    +0.000 A 
ATOM     12  C   UNL     1       5.280   4.814  15.916  0.00  0.00    +0.000 A 
ATOM     13 CL   UNL     1       6.319   4.059  14.766  0.00  0.00    +0.000 Cl
ATOM     14  C   UNL     1       5.418   6.176  16.176  0.00  0.00    +0.000 A 
ATOM     15  C   UNL     1       4.614   6.789  17.148  0.00  0.00    +0.000 A 
ENDBRANCH   7   9
ENDBRANCH   4   7
BRANCH   1  16
ATOM     16  S   UNL     1      -0.464  10.490  19.944  0.00  0.00    +0.000 S 
BRANCH  16  20
ATOM     17  N   UNL     1      -3.805  12.228  19.015  0.00  0.00    +0.000 NA
ATOM     18  C   UNL     1      -2.916  12.608  20.119  0.00  0.00    +0.000 C 
ATOM     19  C   UNL     1      -1.510  13.000  19.638  0.00  0.00    +0.000 C 
ATOM     20  C   UNL     1      -0.847  11.885  18.815  0.00  0.00    +0.000 C 
ATOM     21  C   UNL     1      -1.783  11.580  17.647  0.00  0.00    +0.000 C 
ATOM     22  C   UNL     1      -3.208  11.238  18.106  0.00  0.00    +0.000 C 
BRANCH  17  24
ATOM     23  C   UNL     1      -6.087  12.910  19.953  0.00  0.00    +0.000 C 
ATOM     24  C   UNL     1      -5.156  11.790  19.457  0.00  0.00    +0.000 C 
ATOM     25  C   UNL     1      -5.888  10.978  18.378  0.00  0.00    +0.000 C 
ENDBRANCH  17  24
ENDBRANCH  16  20
ENDBRANCH   1  16
TORSDOF 5
ENDMDL
MODEL 9
REMARK VINA RESULT:      -6.4      3.221      4.959
REMARK  Name = 
REMARK  8 active torsions:
REMARK  status: ('A' for Active; 'I' for Inactive)
REMARK    1  A    between atoms: C_1  and  C_2
REMARK    2  A    between atoms: C_2  and  C_3
REMARK    3  A    between atoms: C_2  and  N_4
REMARK    4  A    between atoms: C_7  and  S_8
REMARK    5  A    between atoms: S_8  and  C_9
REMARK    6  A    between atoms: C_12  and  C_13
REMARK    7  A    between atoms: C_13  and  C_15
REMARK    8  A    between atoms: N_22  and  C_23
REMARK                            x       y       z     vdW  Elec       q    Type
REMARK                         _______ _______ _______ _____ _____    ______ ____
ROOT
ATOM      1  C   UNL     1       1.978   7.799  19.409  0.00  0.00    +0.000 A 
ATOM      2  N   UNL     1       1.606   7.475  20.621  0.00  0.00    +0.000 NA
ATOM      3  C   UNL     1       1.029   8.604  21.133  0.00  0.00    +0.000 A 
ATOM      4  C   UNL     1       1.086   9.667  20.249  0.00  0.00    +0.000 A 
ATOM      5  N   UNL     1       1.723   9.124  19.141  0.00  0.00    +0.000 N 
ATOM      6  C   UNL     1       2.094   9.812  17.921  0.00  0.00    +0.000 C 
ENDROOT
BRANCH   4   7
ATOM      7  C   UNL     1       0.545  11.010  20.365  0.00  0.00    +0.000 C 
ATOM      8  O   UNL     1       1.223  11.961  20.749  0.00  0.00    +0.000 OA
BRANCH   7   9
ATOM      9  C   UNL     1      -0.882  11.293  20.030  0.00  0.00    +0.000 A 
ATOM     10  C   UNL     1      -1.375  10.872  18.783  0.00  0.00    +0.000 A 
ATOM     11  C   UNL     1      -2.669  11.217  18.376  0.00  0.00    +0.000 A 
ATOM     12  C   UNL     1      -3.470  11.986  19.213  0.00  0.00    +0.000 A 
ATOM     13 CL   UNL     1      -5.040  12.469  18.692  0.00  0.00    +0.000 Cl
ATOM     14  C   UNL     1      -3.001  12.403  20.457  0.00  0.00    +0.000 A 
ATOM     15  C   UNL     1      -1.705  12.060  20.869  0.00  0.00    +0.000 A 
ENDBRANCH   7   9
ENDBRANCH   4   7
BRANCH   1  16
ATOM     16  S   UNL     1       2.407   6.664  18.171  0.00  0.00    +0.000 S 
BRANCH  16  20
ATOM     17  N   UNL     1       5.381   4.269  17.486  0.00  0.00    +0.000 NA
ATOM     18  C   UNL     1       5.419   5.469  18.331  0.00  0.00    +0.000 C 
ATOM     19  C   UNL     1       4.432   5.396  19.506  0.00  0.00    +0.000 C 
ATOM     20  C   UNL     1       2.989   5.154  19.036  0.00  0.00    +0.000 C 
ATOM     21  C   UNL     1       2.999   3.862  18.221  0.00  0.00    +0.000 C 
ATOM     22  C   UNL     1       4.019   3.896  17.074  0.00  0.00    +0.000 C 
BRANCH  17  24
ATOM     23  C   UNL     1       5.596   4.265  14.935  0.00  0.00    +0.000 C 
ATOM     24  C   UNL     1       6.288   4.337  16.308  0.00  0.00    +0.000 C 
ATOM     25  C   UNL     1       7.197   5.574  16.341  0.00  0.00    +0.000 C 
ENDBRANCH  17  24
ENDBRANCH  16  20
ENDBRANCH   1  16
TORSDOF 5
ENDMDL
