MODEL 1
REMARK VINA RESULT:      -7.4      0.000      0.000
REMARK  Name = 
REMARK  7 active torsions:
REMARK  status: ('A' for Active; 'I' for Inactive)
REMARK    1  A    between atoms: C_2  and  C_3
REMARK    2  A    between atoms: C_3  and  C_4
REMARK    3  A    between atoms: C_4  and  N_5
REMARK    4  A    between atoms: C_7  and  C_8
REMARK    5  A    between atoms: N_10  and  C_11
REMARK    6  A    between atoms: C_14  and  N_15
REMARK    7  A    between atoms: C_20  and  C_21
REMARK                            x       y       z     vdW  Elec       q    Type
REMARK                         _______ _______ _______ _____ _____    ______ ____
ROOT
ATOM      1  N   UNL     1       5.100   5.802  16.918  0.00  0.00    +0.000 N 
ATOM      2  C   UNL     1       4.466   7.001  17.077  0.00  0.00    +0.000 A 
ATOM      3  C   UNL     1       3.373   6.746  17.884  0.00  0.00    +0.000 A 
ATOM      4  C   UNL     1       3.418   5.336  18.113  0.00  0.00    +0.000 A 
ATOM      5  N   UNL     1       4.505   4.786  17.553  0.00  0.00    +0.000 NA
ENDROOT
BRANCH   4   6
ATOM      6  C   UNL     1       2.403   4.488  18.835  0.00  0.00    +0.000 A 
ATOM      7  C   UNL     1       1.415   3.744  18.217  0.00  0.00    +0.000 A 
ATOM      8  C   UNL     1       0.618   3.014  19.144  0.00  0.00    +0.000 A 
ATOM      9  C   UNL     1       1.007   3.242  20.443  0.00  0.00    +0.000 A 
ATOM     10  S   UNL     1       2.365   4.281  20.534  0.00  0.00    +0.000 S 
ENDBRANCH   4   6
BRANCH   3  11
ATOM     11  C   UNL     1       2.470   7.696  18.507  0.00  0.00    +0.000 C 
ATOM     12  O   UNL     1       2.203   7.563  19.695  0.00  0.00    +0.000 OA
ATOM     13  N   UNL     1       1.943   8.692  17.694  0.00  0.00    +0.000 N 
ATOM     14  H   UNL     1       2.111   8.618  16.699  0.00  0.00    +0.000 HD
BRANCH  13  15
ATOM     15  C   UNL     1       1.063   9.707  18.150  0.00  0.00    +0.000 A 
ATOM     16  C   UNL     1       1.517  10.853  18.820  0.00  0.00    +0.000 A 
ATOM     17  C   UNL     1       0.638  11.830  19.285  0.00  0.00    +0.000 A 
ATOM     18  C   UNL     1      -0.729  11.678  19.065  0.00  0.00    +0.000 A 
ATOM     19  C   UNL     1      -1.211  10.551  18.386  0.00  0.00    +0.000 A 
ATOM     20  C   UNL     1      -0.314   9.572  17.925  0.00  0.00    +0.000 A 
BRANCH  18  21
ATOM     21  N   UNL     1      -1.648  12.719  19.543  0.00  0.00    +0.000 N 
ATOM     22  O   UNL     1      -1.195  13.859  19.709  0.00  0.00    +0.000 OA
ATOM     23  O   UNL     1      -2.828  12.392  19.746  0.00  0.00    +0.000 OA
ENDBRANCH  18  21
ENDBRANCH  13  15
ENDBRANCH   3  11
BRANCH   1  24
ATOM     24  C   UNL     1       6.276   5.528  16.113  0.00  0.00    +0.000 C 
BRANCH  24  25
ATOM     25  C   UNL     1       7.217   4.542  16.794  0.00  0.00    +0.000 C 
BRANCH  25  27
ATOM     26  N   UNL     1       7.936   5.407  19.169  0.00  0.00    +0.000 NA
ATOM     27  C   UNL     1       7.639   5.043  18.107  0.00  0.00    +0.000 C 
ENDBRANCH  25  27
ENDBRANCH  24  25
ENDBRANCH   1  24
TORSDOF 7
ENDMDL
MODEL 2
REMARK VINA RESULT:      -7.3      2.752      3.584
REMARK  Name = 
REMARK  7 active torsions:
REMARK  status: ('A' for Active; 'I' for Inactive)
REMARK    1  A    between atoms: C_2  and  C_3
REMARK    2  A    between atoms: C_3  and  C_4
REMARK    3  A    between atoms: C_4  and  N_5
REMARK    4  A    between atoms: C_7  and  C_8
REMARK    5  A    between atoms: N_10  and  C_11
REMARK    6  A    between atoms: C_14  and  N_15
REMARK    7  A    between atoms: C_20  and  C_21
REMARK                            x       y       z     vdW  Elec       q    Type
REMARK                         _______ _______ _______ _____ _____    ______ ____
ROOT
ATOM      1  N   UNL     1       5.950   4.749  14.860  0.00  0.00    +0.000 N 
ATOM      2  C   UNL     1       5.538   5.985  15.270  0.00  0.00    +0.000 A 
ATOM      3  C   UNL     1       4.796   5.773  16.417  0.00  0.00    +0.000 A 
ATOM      4  C   UNL     1       4.785   4.354  16.579  0.00  0.00    +0.000 A 
ATOM      5  N   UNL     1       5.533   3.750  15.645  0.00  0.00    +0.000 NA
ENDROOT
BRANCH   4   6
ATOM      6  C   UNL     1       4.026   3.551  17.605  0.00  0.00    +0.000 A 
ATOM      7  C   UNL     1       2.878   2.827  17.346  0.00  0.00    +0.000 A 
ATOM      8  C   UNL     1       2.393   2.139  18.496  0.00  0.00    +0.000 A 
ATOM      9  C   UNL     1       3.175   2.379  19.602  0.00  0.00    +0.000 A 
ATOM     10  S   UNL     1       4.517   3.377  19.236  0.00  0.00    +0.000 S 
ENDBRANCH   4   6
BRANCH   3  11
ATOM     11  C   UNL     1       4.280   6.757  17.352  0.00  0.00    +0.000 C 
ATOM     12  O   UNL     1       5.044   7.605  17.795  0.00  0.00    +0.000 OA
ATOM     13  N   UNL     1       2.940   6.650  17.704  0.00  0.00    +0.000 N 
ATOM     14  H   UNL     1       2.442   5.824  17.397  0.00  0.00    +0.000 HD
BRANCH  13  15
ATOM     15  C   UNL     1       2.278   7.539  18.589  0.00  0.00    +0.000 A 
ATOM     16  C   UNL     1       1.771   8.779  18.170  0.00  0.00    +0.000 A 
ATOM     17  C   UNL     1       1.145   9.655  19.056  0.00  0.00    +0.000 A 
ATOM     18  C   UNL     1       0.999   9.285  20.392  0.00  0.00    +0.000 A 
ATOM     19  C   UNL     1       1.483   8.047  20.836  0.00  0.00    +0.000 A 
ATOM     20  C   UNL     1       2.115   7.174  19.932  0.00  0.00    +0.000 A 
BRANCH  18  21
ATOM     21  N   UNL     1       0.325  10.204  21.316  0.00  0.00    +0.000 N 
ATOM     22  O   UNL     1      -0.592  10.906  20.869  0.00  0.00    +0.000 OA
ATOM     23  O   UNL     1       0.711  10.218  22.496  0.00  0.00    +0.000 OA
ENDBRANCH  18  21
ENDBRANCH  13  15
ENDBRANCH   3  11
BRANCH   1  24
ATOM     24  C   UNL     1       6.719   4.427  13.670  0.00  0.00    +0.000 C 
BRANCH  24  25
ATOM     25  C   UNL     1       6.275   3.111  13.043  0.00  0.00    +0.000 C 
BRANCH  25  27
ATOM     26  N   UNL     1       4.269   3.491  11.388  0.00  0.00    +0.000 NA
ATOM     27  C   UNL     1       5.175   3.328  12.097  0.00  0.00    +0.000 C 
ENDBRANCH  25  27
ENDBRANCH  24  25
ENDBRANCH   1  24
TORSDOF 7
ENDMDL
MODEL 3
REMARK VINA RESULT:      -7.3      1.167      1.897
REMARK  Name = 
REMARK  7 active torsions:
REMARK  status: ('A' for Active; 'I' for Inactive)
REMARK    1  A    between atoms: C_2  and  C_3
REMARK    2  A    between atoms: C_3  and  C_4
REMARK    3  A    between atoms: C_4  and  N_5
REMARK    4  A    between atoms: C_7  and  C_8
REMARK    5  A    between atoms: N_10  and  C_11
REMARK    6  A    between atoms: C_14  and  N_15
REMARK    7  A    between atoms: C_20  and  C_21
REMARK                            x       y       z     vdW  Elec       q    Type
REMARK                         _______ _______ _______ _____ _____    ______ ____
ROOT
ATOM      1  N   UNL     1       5.285   5.353  17.146  0.00  0.00    +0.000 N 
ATOM      2  C   UNL     1       4.689   6.581  17.196  0.00  0.00    +0.000 A 
ATOM      3  C   UNL     1       3.567   6.423  17.988  0.00  0.00    +0.000 A 
ATOM      4  C   UNL     1       3.558   5.034  18.323  0.00  0.00    +0.000 A 
ATOM      5  N   UNL     1       4.639   4.408  17.838  0.00  0.00    +0.000 NA
ENDROOT
BRANCH   4   6
ATOM      6  C   UNL     1       2.495   4.276  19.077  0.00  0.00    +0.000 A 
ATOM      7  C   UNL     1       1.396   3.672  18.496  0.00  0.00    +0.000 A 
ATOM      8  C   UNL     1       0.575   2.999  19.445  0.00  0.00    +0.000 A 
ATOM      9  C   UNL     1       1.061   3.130  20.725  0.00  0.00    +0.000 A 
ATOM     10  S   UNL     1       2.531   4.006  20.767  0.00  0.00    +0.000 S 
ENDBRANCH   4   6
BRANCH   3  11
ATOM     11  C   UNL     1       2.681   7.446  18.512  0.00  0.00    +0.000 C 
ATOM     12  O   UNL     1       2.314   7.367  19.678  0.00  0.00    +0.000 OA
ATOM     13  N   UNL     1       2.284   8.447  17.634  0.00  0.00    +0.000 N 
ATOM     14  H   UNL     1       2.524   8.332  16.658  0.00  0.00    +0.000 HD
BRANCH  13  15
ATOM     15  C   UNL     1       1.438   9.528  17.991  0.00  0.00    +0.000 A 
ATOM     16  C   UNL     1       0.038   9.436  17.947  0.00  0.00    +0.000 A 
ATOM     17  C   UNL     1      -0.780  10.515  18.277  0.00  0.00    +0.000 A 
ATOM     18  C   UNL     1      -0.198  11.715  18.679  0.00  0.00    +0.000 A 
ATOM     19  C   UNL     1       1.197  11.833  18.747  0.00  0.00    +0.000 A 
ATOM     20  C   UNL     1       2.011  10.737  18.409  0.00  0.00    +0.000 A 
BRANCH  18  21
ATOM     21  N   UNL     1      -1.066  12.843  19.041  0.00  0.00    +0.000 N 
ATOM     22  O   UNL     1      -2.188  12.587  19.497  0.00  0.00    +0.000 OA
ATOM     23  O   UNL     1      -0.618  13.989  18.872  0.00  0.00    +0.000 OA
ENDBRANCH  18  21
ENDBRANCH  13  15
ENDBRANCH   3  11
BRANCH   1  24
ATOM     24  C   UNL     1       6.472   4.981  16.397  0.00  0.00    +0.000 C 
BRANCH  24  25
ATOM     25  C   UNL     1       6.158   4.691  14.935  0.00  0.00    +0.000 C 
BRANCH  25  27
ATOM     26  N   UNL     1       8.075   5.572  13.368  0.00  0.00    +0.000 NA
ATOM     27  C   UNL     1       7.243   5.157  14.064  0.00  0.00    +0.000 C 
ENDBRANCH  25  27
ENDBRANCH  24  25
ENDBRANCH   1  24
TORSDOF 7
ENDMDL
MODEL 4
REMARK VINA RESULT:      -7.3      2.200      2.603
REMARK  Name = 
REMARK  7 active torsions:
REMARK  status: ('A' for Active; 'I' for Inactive)
REMARK    1  A    between atoms: C_2  and  C_3
REMARK    2  A    between atoms: C_3  and  C_4
REMARK    3  A    between atoms: C_4  and  N_5
REMARK    4  A    between atoms: C_7  and  C_8
REMARK    5  A    between atoms: N_10  and  C_11
REMARK    6  A    between atoms: C_14  and  N_15
REMARK    7  A    between atoms: C_20  and  C_21
REMARK                            x       y       z     vdW  Elec       q    Type
REMARK                         _______ _______ _______ _____ _____    ______ ____
ROOT
ATOM      1  N   UNL     1       5.547   4.901  16.654  0.00  0.00    +0.000 N 
ATOM      2  C   UNL     1       5.020   6.160  16.667  0.00  0.00    +0.000 A 
ATOM      3  C   UNL     1       3.900   6.093  17.475  0.00  0.00    +0.000 A 
ATOM      4  C   UNL     1       3.818   4.719  17.858  0.00  0.00    +0.000 A 
ATOM      5  N   UNL     1       4.857   4.018  17.385  0.00  0.00    +0.000 NA
ENDROOT
BRANCH   4   6
ATOM      6  C   UNL     1       2.723   4.048  18.648  0.00  0.00    +0.000 A 
ATOM      7  C   UNL     1       1.453   3.787  18.169  0.00  0.00    +0.000 A 
ATOM      8  C   UNL     1       0.636   3.114  19.123  0.00  0.00    +0.000 A 
ATOM      9  C   UNL     1       1.301   2.904  20.308  0.00  0.00    +0.000 A 
ATOM     10  S   UNL     1       2.919   3.460  20.244  0.00  0.00    +0.000 S 
ENDBRANCH   4   6
BRANCH   3  11
ATOM     11  C   UNL     1       3.078   7.182  17.971  0.00  0.00    +0.000 C 
ATOM     12  O   UNL     1       2.829   8.119  17.224  0.00  0.00    +0.000 OA
ATOM     13  N   UNL     1       2.645   7.095  19.288  0.00  0.00    +0.000 N 
ATOM     14  H   UNL     1       3.033   6.355  19.859  0.00  0.00    +0.000 HD
BRANCH  13  15
ATOM     15  C   UNL     1       1.822   8.063  19.919  0.00  0.00    +0.000 A 
ATOM     16  C   UNL     1       1.279   9.157  19.227  0.00  0.00    +0.000 A 
ATOM     17  C   UNL     1       0.492  10.114  19.866  0.00  0.00    +0.000 A 
ATOM     18  C   UNL     1       0.220   9.977  21.225  0.00  0.00    +0.000 A 
ATOM     19  C   UNL     1       0.737   8.888  21.940  0.00  0.00    +0.000 A 
ATOM     20  C   UNL     1       1.531   7.931  21.284  0.00  0.00    +0.000 A 
BRANCH  18  21
ATOM     21  N   UNL     1      -0.622  10.980  21.888  0.00  0.00    +0.000 N 
ATOM     22  O   UNL     1      -1.390  11.649  21.184  0.00  0.00    +0.000 OA
ATOM     23  O   UNL     1      -0.518  11.093  23.120  0.00  0.00    +0.000 OA
ENDBRANCH  18  21
ENDBRANCH  13  15
ENDBRANCH   3  11
BRANCH   1  24
ATOM     24  C   UNL     1       6.703   4.437  15.908  0.00  0.00    +0.000 C 
BRANCH  24  25
ATOM     25  C   UNL     1       6.446   4.425  14.407  0.00  0.00    +0.000 C 
BRANCH  25  27
ATOM     26  N   UNL     1       8.330   5.755  13.147  0.00  0.00    +0.000 NA
ATOM     27  C   UNL     1       7.505   5.143  13.689  0.00  0.00    +0.000 C 
ENDBRANCH  25  27
ENDBRANCH  24  25
ENDBRANCH   1  24
TORSDOF 7
ENDMDL
MODEL 5
REMARK VINA RESULT:      -7.3      2.746      3.535
REMARK  Name = 
REMARK  7 active torsions:
REMARK  status: ('A' for Active; 'I' for Inactive)
REMARK    1  A    between atoms: C_2  and  C_3
REMARK    2  A    between atoms: C_3  and  C_4
REMARK    3  A    between atoms: C_4  and  N_5
REMARK    4  A    between atoms: C_7  and  C_8
REMARK    5  A    between atoms: N_10  and  C_11
REMARK    6  A    between atoms: C_14  and  N_15
REMARK    7  A    between atoms: C_20  and  C_21
REMARK                            x       y       z     vdW  Elec       q    Type
REMARK                         _______ _______ _______ _____ _____    ______ ____
ROOT
ATOM      1  N   UNL     1       5.847   4.779  14.810  0.00  0.00    +0.000 N 
ATOM      2  C   UNL     1       5.455   6.010  15.249  0.00  0.00    +0.000 A 
ATOM      3  C   UNL     1       4.747   5.787  16.416  0.00  0.00    +0.000 A 
ATOM      4  C   UNL     1       4.733   4.366  16.559  0.00  0.00    +0.000 A 
ATOM      5  N   UNL     1       5.449   3.771  15.594  0.00  0.00    +0.000 NA
ENDROOT
BRANCH   4   6
ATOM      6  C   UNL     1       4.001   3.553  17.596  0.00  0.00    +0.000 A 
ATOM      7  C   UNL     1       2.819   2.871  17.373  0.00  0.00    +0.000 A 
ATOM      8  C   UNL     1       2.371   2.160  18.523  0.00  0.00    +0.000 A 
ATOM      9  C   UNL     1       3.212   2.342  19.596  0.00  0.00    +0.000 A 
ATOM     10  S   UNL     1       4.565   3.311  19.194  0.00  0.00    +0.000 S 
ENDBRANCH   4   6
BRANCH   3  11
ATOM     11  C   UNL     1       4.265   6.760  17.379  0.00  0.00    +0.000 C 
ATOM     12  O   UNL     1       5.074   7.501  17.922  0.00  0.00    +0.000 OA
ATOM     13  N   UNL     1       2.901   6.765  17.642  0.00  0.00    +0.000 N 
ATOM     14  H   UNL     1       2.348   6.012  17.252  0.00  0.00    +0.000 HD
BRANCH  13  15
ATOM     15  C   UNL     1       2.268   7.662  18.540  0.00  0.00    +0.000 A 
ATOM     16  C   UNL     1       2.120   7.380  19.907  0.00  0.00    +0.000 A 
ATOM     17  C   UNL     1       1.473   8.260  20.774  0.00  0.00    +0.000 A 
ATOM     18  C   UNL     1       0.974   9.462  20.278  0.00  0.00    +0.000 A 
ATOM     19  C   UNL     1       1.119   9.778  18.920  0.00  0.00    +0.000 A 
ATOM     20  C   UNL     1       1.771   8.880  18.056  0.00  0.00    +0.000 A 
BRANCH  18  21
ATOM     21  N   UNL     1       0.308  10.392  21.199  0.00  0.00    +0.000 N 
ATOM     22  O   UNL     1       0.579  10.307  22.403  0.00  0.00    +0.000 OA
ATOM     23  O   UNL     1      -0.484  11.214  20.710  0.00  0.00    +0.000 OA
ENDBRANCH  18  21
ENDBRANCH  13  15
ENDBRANCH   3  11
BRANCH   1  24
ATOM     24  C   UNL     1       6.578   4.469  13.594  0.00  0.00    +0.000 C 
BRANCH  24  25
ATOM     25  C   UNL     1       6.167   3.124  13.008  0.00  0.00    +0.000 C 
BRANCH  25  27
ATOM     26  N   UNL     1       4.216   3.426  11.273  0.00  0.00    +0.000 NA
ATOM     27  C   UNL     1       5.058   3.284  12.060  0.00  0.00    +0.000 C 
ENDBRANCH  25  27
ENDBRANCH  24  25
ENDBRANCH   1  24
TORSDOF 7
ENDMDL
MODEL 6
REMARK VINA RESULT:      -7.2      1.146      1.509
REMARK  Name = 
REMARK  7 active torsions:
REMARK  status: ('A' for Active; 'I' for Inactive)
REMARK    1  A    between atoms: C_2  and  C_3
REMARK    2  A    between atoms: C_3  and  C_4
REMARK    3  A    between atoms: C_4  and  N_5
REMARK    4  A    between atoms: C_7  and  C_8
REMARK    5  A    between atoms: N_10  and  C_11
REMARK    6  A    between atoms: C_14  and  N_15
REMARK    7  A    between atoms: C_20  and  C_21
REMARK                            x       y       z     vdW  Elec       q    Type
REMARK                         _______ _______ _______ _____ _____    ______ ____
ROOT
ATOM      1  N   UNL     1       5.440   5.691  17.049  0.00  0.00    +0.000 N 
ATOM      2  C   UNL     1       4.797   6.889  17.174  0.00  0.00    +0.000 A 
ATOM      3  C   UNL     1       3.642   6.626  17.887  0.00  0.00    +0.000 A 
ATOM      4  C   UNL     1       3.667   5.213  18.098  0.00  0.00    +0.000 A 
ATOM      5  N   UNL     1       4.795   4.668  17.620  0.00  0.00    +0.000 NA
ENDROOT
BRANCH   4   6
ATOM      6  C   UNL     1       2.596   4.358  18.724  0.00  0.00    +0.000 A 
ATOM      7  C   UNL     1       1.488   3.869  18.057  0.00  0.00    +0.000 A 
ATOM      8  C   UNL     1       0.659   3.062  18.889  0.00  0.00    +0.000 A 
ATOM      9  C   UNL     1       1.148   2.980  20.172  0.00  0.00    +0.000 A 
ATOM     10  S   UNL     1       2.630   3.820  20.349  0.00  0.00    +0.000 S 
ENDBRANCH   4   6
BRANCH   3  11
ATOM     11  C   UNL     1       2.694   7.570  18.449  0.00  0.00    +0.000 C 
ATOM     12  O   UNL     1       2.336   7.424  19.611  0.00  0.00    +0.000 OA
ATOM     13  N   UNL     1       2.230   8.574  17.608  0.00  0.00    +0.000 N 
ATOM     14  H   UNL     1       2.474   8.511  16.628  0.00  0.00    +0.000 HD
BRANCH  13  15
ATOM     15  C   UNL     1       1.317   9.584  18.006  0.00  0.00    +0.000 A 
ATOM     16  C   UNL     1       1.738  10.837  18.478  0.00  0.00    +0.000 A 
ATOM     17  C   UNL     1       0.830  11.812  18.889  0.00  0.00    +0.000 A 
ATOM     18  C   UNL     1      -0.535  11.546  18.815  0.00  0.00    +0.000 A 
ATOM     19  C   UNL     1      -0.987  10.309  18.334  0.00  0.00    +0.000 A 
ATOM     20  C   UNL     1      -0.060   9.334  17.925  0.00  0.00    +0.000 A 
BRANCH  18  21
ATOM     21  N   UNL     1      -1.487  12.582  19.235  0.00  0.00    +0.000 N 
ATOM     22  O   UNL     1      -1.030  13.670  19.609  0.00  0.00    +0.000 OA
ATOM     23  O   UNL     1      -2.696  12.306  19.181  0.00  0.00    +0.000 OA
ENDBRANCH  18  21
ENDBRANCH  13  15
ENDBRANCH   3  11
BRANCH   1  24
ATOM     24  C   UNL     1       6.677   5.425  16.337  0.00  0.00    +0.000 C 
BRANCH  24  25
ATOM     25  C   UNL     1       6.427   4.775  14.982  0.00  0.00    +0.000 C 
BRANCH  25  27
ATOM     26  N   UNL     1       8.219   5.575  13.233  0.00  0.00    +0.000 NA
ATOM     27  C   UNL     1       7.440   5.195  14.006  0.00  0.00    +0.000 C 
ENDBRANCH  25  27
ENDBRANCH  24  25
ENDBRANCH   1  24
TORSDOF 7
ENDMDL
MODEL 7
REMARK VINA RESULT:      -7.2      2.114      2.579
REMARK  Name = 
REMARK  7 active torsions:
REMARK  status: ('A' for Active; 'I' for Inactive)
REMARK    1  A    between atoms: C_2  and  C_3
REMARK    2  A    between atoms: C_3  and  C_4
REMARK    3  A    between atoms: C_4  and  N_5
REMARK    4  A    between atoms: C_7  and  C_8
REMARK    5  A    between atoms: N_10  and  C_11
REMARK    6  A    between atoms: C_14  and  N_15
REMARK    7  A    between atoms: C_20  and  C_21
REMARK                            x       y       z     vdW  Elec       q    Type
REMARK                         _______ _______ _______ _____ _____    ______ ____
ROOT
ATOM      1  N   UNL     1       5.106   5.493  16.137  0.00  0.00    +0.000 N 
ATOM      2  C   UNL     1       4.584   6.604  16.735  0.00  0.00    +0.000 A 
ATOM      3  C   UNL     1       3.663   6.140  17.655  0.00  0.00    +0.000 A 
ATOM      4  C   UNL     1       3.676   4.721  17.489  0.00  0.00    +0.000 A 
ATOM      5  N   UNL     1       4.596   4.343  16.590  0.00  0.00    +0.000 NA
ENDROOT
BRANCH   4   6
ATOM      6  C   UNL     1       2.780   3.709  18.157  0.00  0.00    +0.000 A 
ATOM      7  C   UNL     1       1.420   3.596  17.940  0.00  0.00    +0.000 A 
ATOM      8  C   UNL     1       0.833   2.530  18.681  0.00  0.00    +0.000 A 
ATOM      9  C   UNL     1       1.761   1.877  19.458  0.00  0.00    +0.000 A 
ATOM     10  S   UNL     1       3.338   2.509  19.242  0.00  0.00    +0.000 S 
ENDBRANCH   4   6
BRANCH   3  11
ATOM     11  C   UNL     1       2.958   6.886  18.681  0.00  0.00    +0.000 C 
ATOM     12  O   UNL     1       3.008   6.488  19.838  0.00  0.00    +0.000 OA
ATOM     13  N   UNL     1       2.242   8.003  18.269  0.00  0.00    +0.000 N 
ATOM     14  H   UNL     1       2.146   8.153  17.273  0.00  0.00    +0.000 HD
BRANCH  13  15
ATOM     15  C   UNL     1       1.516   8.850  19.145  0.00  0.00    +0.000 A 
ATOM     16  C   UNL     1       1.001  10.091  18.740  0.00  0.00    +0.000 A 
ATOM     17  C   UNL     1       0.311  10.924  19.619  0.00  0.00    +0.000 A 
ATOM     18  C   UNL     1       0.108  10.509  20.933  0.00  0.00    +0.000 A 
ATOM     19  C   UNL     1       0.597   9.268  21.364  0.00  0.00    +0.000 A 
ATOM     20  C   UNL     1       1.295   8.439  20.467  0.00  0.00    +0.000 A 
BRANCH  18  21
ATOM     21  N   UNL     1      -0.634  11.383  21.851  0.00  0.00    +0.000 N 
ATOM     22  O   UNL     1      -1.442  12.183  21.361  0.00  0.00    +0.000 OA
ATOM     23  O   UNL     1      -0.409  11.263  23.066  0.00  0.00    +0.000 OA
ENDBRANCH  18  21
ENDBRANCH  13  15
ENDBRANCH   3  11
BRANCH   1  24
ATOM     24  C   UNL     1       6.080   5.448  15.061  0.00  0.00    +0.000 C 
BRANCH  24  25
ATOM     25  C   UNL     1       6.486   4.020  14.718  0.00  0.00    +0.000 C 
BRANCH  25  27
ATOM     26  N   UNL     1       5.769   3.450  12.254  0.00  0.00    +0.000 NA
ATOM     27  C   UNL     1       6.079   3.674  13.351  0.00  0.00    +0.000 C 
ENDBRANCH  25  27
ENDBRANCH  24  25
ENDBRANCH   1  24
TORSDOF 7
ENDMDL
MODEL 8
REMARK VINA RESULT:      -7.2      0.896      1.417
REMARK  Name = 
REMARK  7 active torsions:
REMARK  status: ('A' for Active; 'I' for Inactive)
REMARK    1  A    between atoms: C_2  and  C_3
REMARK    2  A    between atoms: C_3  and  C_4
REMARK    3  A    between atoms: C_4  and  N_5
REMARK    4  A    between atoms: C_7  and  C_8
REMARK    5  A    between atoms: N_10  and  C_11
REMARK    6  A    between atoms: C_14  and  N_15
REMARK    7  A    between atoms: C_20  and  C_21
REMARK                            x       y       z     vdW  Elec       q    Type
REMARK                         _______ _______ _______ _____ _____    ______ ____
ROOT
ATOM      1  N   UNL     1       5.152   6.167  17.427  0.00  0.00    +0.000 N 
ATOM      2  C   UNL     1       4.409   7.306  17.555  0.00  0.00    +0.000 A 
ATOM      3  C   UNL     1       3.279   6.943  18.262  0.00  0.00    +0.000 A 
ATOM      4  C   UNL     1       3.422   5.536  18.468  0.00  0.00    +0.000 A 
ATOM      5  N   UNL     1       4.593   5.091  17.991  0.00  0.00    +0.000 NA
ENDROOT
BRANCH   4   6
ATOM      6  C   UNL     1       2.424   4.590  19.085  0.00  0.00    +0.000 A 
ATOM      7  C   UNL     1       2.175   4.484  20.440  0.00  0.00    +0.000 A 
ATOM      8  C   UNL     1       1.157   3.531  20.737  0.00  0.00    +0.000 A 
ATOM      9  C   UNL     1       0.680   2.923  19.600  0.00  0.00    +0.000 A 
ATOM     10  S   UNL     1       1.411   3.547  18.183  0.00  0.00    +0.000 S 
ENDBRANCH   4   6
BRANCH   3  11
ATOM     11  C   UNL     1       2.252   7.800  18.825  0.00  0.00    +0.000 C 
ATOM     12  O   UNL     1       1.912   7.627  19.988  0.00  0.00    +0.000 OA
ATOM     13  N   UNL     1       1.698   8.757  17.983  0.00  0.00    +0.000 N 
ATOM     14  H   UNL     1       1.943   8.713  17.002  0.00  0.00    +0.000 HD
BRANCH  13  15
ATOM     15  C   UNL     1       0.700   9.684  18.381  0.00  0.00    +0.000 A 
ATOM     16  C   UNL     1      -0.592   9.682  17.832  0.00  0.00    +0.000 A 
ATOM     17  C   UNL     1      -1.555  10.614  18.214  0.00  0.00    +0.000 A 
ATOM     18  C   UNL     1      -1.237  11.566  19.180  0.00  0.00    +0.000 A 
ATOM     19  C   UNL     1       0.041  11.584  19.757  0.00  0.00    +0.000 A 
ATOM     20  C   UNL     1       1.004  10.639  19.360  0.00  0.00    +0.000 A 
BRANCH  18  21
ATOM     21  N   UNL     1      -2.260  12.536  19.590  0.00  0.00    +0.000 N 
ATOM     22  O   UNL     1      -1.879  13.610  20.074  0.00  0.00    +0.000 OA
ATOM     23  O   UNL     1      -3.449  12.221  19.421  0.00  0.00    +0.000 OA
ENDBRANCH  18  21
ENDBRANCH  13  15
ENDBRANCH   3  11
BRANCH   1  24
ATOM     24  C   UNL     1       6.409   6.010  16.719  0.00  0.00    +0.000 C 
BRANCH  24  25
ATOM     25  C   UNL     1       7.583   6.577  17.507  0.00  0.00    +0.000 C 
BRANCH  25  27
ATOM     26  N   UNL     1       7.745   5.540  19.917  0.00  0.00    +0.000 NA
ATOM     27  C   UNL     1       7.651   5.980  18.846  0.00  0.00    +0.000 C 
ENDBRANCH  25  27
ENDBRANCH  24  25
ENDBRANCH   1  24
TORSDOF 7
ENDMDL
MODEL 9
REMARK VINA RESULT:      -7.2      2.111      2.483
REMARK  Name = 
REMARK  7 active torsions:
REMARK  status: ('A' for Active; 'I' for Inactive)
REMARK    1  A    between atoms: C_2  and  C_3
REMARK    2  A    between atoms: C_3  and  C_4
REMARK    3  A    between atoms: C_4  and  N_5
REMARK    4  A    between atoms: C_7  and  C_8
REMARK    5  A    between atoms: N_10  and  C_11
REMARK    6  A    between atoms: C_14  and  N_15
REMARK    7  A    between atoms: C_20  and  C_21
REMARK                            x       y       z     vdW  Elec       q    Type
REMARK                         _______ _______ _______ _____ _____    ______ ____
ROOT
ATOM      1  N   UNL     1       5.105   5.651  17.010  0.00  0.00    +0.000 N 
ATOM      2  C   UNL     1       4.425   6.834  17.021  0.00  0.00    +0.000 A 
ATOM      3  C   UNL     1       3.327   6.631  17.837  0.00  0.00    +0.000 A 
ATOM      4  C   UNL     1       3.420   5.260  18.227  0.00  0.00    +0.000 A 
ATOM      5  N   UNL     1       4.537   4.692  17.749  0.00  0.00    +0.000 NA
ENDROOT
BRANCH   4   6
ATOM      6  C   UNL     1       2.424   4.461  19.027  0.00  0.00    +0.000 A 
ATOM      7  C   UNL     1       1.437   3.662  18.483  0.00  0.00    +0.000 A 
ATOM      8  C   UNL     1       0.659   2.998  19.476  0.00  0.00    +0.000 A 
ATOM      9  C   UNL     1       1.063   3.332  20.748  0.00  0.00    +0.000 A 
ATOM     10  S   UNL     1       2.412   4.388  20.737  0.00  0.00    +0.000 S 
ENDBRANCH   4   6
BRANCH   3  11
ATOM     11  C   UNL     1       2.378   7.611  18.334  0.00  0.00    +0.000 C 
ATOM     12  O   UNL     1       1.715   8.250  17.527  0.00  0.00    +0.000 OA
ATOM     13  N   UNL     1       2.306   7.776  19.711  0.00  0.00    +0.000 N 
ATOM     14  H   UNL     1       3.004   7.307  20.274  0.00  0.00    +0.000 HD
BRANCH  13  15
ATOM     15  C   UNL     1       1.420   8.676  20.358  0.00  0.00    +0.000 A 
ATOM     16  C   UNL     1       0.942   8.458  21.660  0.00  0.00    +0.000 A 
ATOM     17  C   UNL     1       0.052   9.338  22.273  0.00  0.00    +0.000 A 
ATOM     18  C   UNL     1      -0.364  10.476  21.587  0.00  0.00    +0.000 A 
ATOM     19  C   UNL     1       0.108  10.729  20.291  0.00  0.00    +0.000 A 
ATOM     20  C   UNL     1       1.003   9.831  19.682  0.00  0.00    +0.000 A 
BRANCH  18  21
ATOM     21  N   UNL     1      -1.288  11.408  22.244  0.00  0.00    +0.000 N 
ATOM     22  O   UNL     1      -1.194  11.547  23.471  0.00  0.00    +0.000 OA
ATOM     23  O   UNL     1      -2.107  12.006  21.527  0.00  0.00    +0.000 OA
ENDBRANCH  18  21
ENDBRANCH  13  15
ENDBRANCH   3  11
BRANCH   1  24
ATOM     24  C   UNL     1       6.306   5.332  16.258  0.00  0.00    +0.000 C 
BRANCH  24  25
ATOM     25  C   UNL     1       6.285   3.904  15.728  0.00  0.00    +0.000 C 
BRANCH  25  27
ATOM     26  N   UNL     1       6.191   3.830  13.102  0.00  0.00    +0.000 NA
ATOM     27  C   UNL     1       6.240   3.891  14.261  0.00  0.00    +0.000 C 
ENDBRANCH  25  27
ENDBRANCH  24  25
ENDBRANCH   1  24
TORSDOF 7
ENDMDL
