MODEL 1
REMARK VINA RESULT:      -8.0      0.000      0.000
REMARK  Name = 
REMARK  11 active torsions:
REMARK  status: ('A' for Active; 'I' for Inactive)
REMARK    1  A    between atoms: C_1  and  O_2
REMARK    2  A    between atoms: O_2  and  C_3
REMARK    3  A    between atoms: C_7  and  C_8
REMARK    4  A    between atoms: C_8  and  N_9
REMARK    5  A    between atoms: N_9  and  C_10
REMARK    6  A    between atoms: C_10  and  C_11
REMARK    7  A    between atoms: C_12  and  C_13
REMARK    8  A    between atoms: C_13  and  O_15
REMARK    9  A    between atoms: C_16  and  C_17
REMARK   10  A    between atoms: N_18  and  C_19
REMARK   11  A    between atoms: C_25  and  C_26
REMARK                            x       y       z     vdW  Elec       q    Type
REMARK                         _______ _______ _______ _____ _____    ______ ____
ROOT
ATOM      1  C   UNL     1       2.207   5.412  19.807  0.00  0.00    +0.000 A 
ATOM      2  C   UNL     1       2.470   4.072  20.238  0.00  0.00    +0.000 A 
ATOM      3  C   UNL     1       3.523   3.591  19.448  0.00  0.00    +0.000 A 
ATOM      4  C   UNL     1       4.218   2.267  19.585  0.00  0.00    +0.000 C 
ATOM      5  N   UNL     1       3.913   4.588  18.547  0.00  0.00    +0.000 N 
ATOM      6  C   UNL     1       3.039   5.662  18.718  0.00  0.00    +0.000 A 
ATOM      7  C   UNL     1       2.987   6.894  17.860  0.00  0.00    +0.000 C 
ENDROOT
BRANCH   5   8
ATOM      8  C   UNL     1       5.022   4.539  17.620  0.00  0.00    +0.000 A 
ATOM      9  C   UNL     1       4.862   4.097  16.303  0.00  0.00    +0.000 A 
ATOM     10  C   UNL     1       5.948   4.056  15.420  0.00  0.00    +0.000 A 
ATOM     11  C   UNL     1       7.200   4.503  15.829  0.00  0.00    +0.000 A 
ATOM     12  C   UNL     1       7.373   4.955  17.133  0.00  0.00    +0.000 A 
ATOM     13  C   UNL     1       6.301   4.943  18.031  0.00  0.00    +0.000 A 
ENDBRANCH   5   8
BRANCH   2  14
ATOM     14  C   UNL     1       1.831   3.321  21.330  0.00  0.00    +0.000 C 
ATOM     15  O   UNL     1       2.342   3.117  22.419  0.00  0.00    +0.000 OA
BRANCH  14  16
ATOM     16  O   UNL     1       0.602   2.832  21.031  0.00  0.00    +0.000 OA
ATOM     17  H   UNL     1       0.620   2.279  20.234  0.00  0.00    +0.000 HD
ENDBRANCH  14  16
ENDBRANCH   2  14
BRANCH   1  18
ATOM     18  C   UNL     1       1.227   6.402  20.383  0.00  0.00    +0.000 C 
BRANCH  18  19
ATOM     19  N   UNL     1       1.980   7.533  20.910  0.00  0.00    +0.000 NA
ATOM     20  H   UNL     1       1.863   7.580  21.921  0.00  0.00    +0.000 HD
BRANCH  19  21
ATOM     21  C   UNL     1       1.540   8.787  20.308  0.00  0.00    +0.000 C 
BRANCH  21  26
ATOM     22  C   UNL     1      -0.978  11.363  21.569  0.00  0.00    +0.000 A 
ATOM     23  C   UNL     1      -1.112  10.973  22.906  0.00  0.00    +0.000 A 
ATOM     24  C   UNL     1      -0.413   9.876  23.399  0.00  0.00    +0.000 A 
ATOM     25  C   UNL     1       0.437   9.158  22.558  0.00  0.00    +0.000 A 
ATOM     26  C   UNL     1       0.590   9.532  21.216  0.00  0.00    +0.000 A 
ATOM     27  C   UNL     1      -0.130  10.637  20.731  0.00  0.00    +0.000 A 
BRANCH  22  29
ATOM     28  C   UNL     1      -2.367  13.160  22.264  0.00  0.00    +0.000 C 
ATOM     29  O   UNL     1      -1.708  12.463  21.212  0.00  0.00    +0.000 OA
ENDBRANCH  22  29
ENDBRANCH  21  26
ENDBRANCH  19  21
ENDBRANCH  18  19
ENDBRANCH   1  18
TORSDOF 8
ENDMDL
MODEL 2
REMARK VINA RESULT:      -8.0      0.478      1.041
REMARK  Name = 
REMARK  11 active torsions:
REMARK  status: ('A' for Active; 'I' for Inactive)
REMARK    1  A    between atoms: C_1  and  O_2
REMARK    2  A    between atoms: O_2  and  C_3
REMARK    3  A    between atoms: C_7  and  C_8
REMARK    4  A    between atoms: C_8  and  N_9
REMARK    5  A    between atoms: N_9  and  C_10
REMARK    6  A    between atoms: C_10  and  C_11
REMARK    7  A    between atoms: C_12  and  C_13
REMARK    8  A    between atoms: C_13  and  O_15
REMARK    9  A    between atoms: C_16  and  C_17
REMARK   10  A    between atoms: N_18  and  C_19
REMARK   11  A    between atoms: C_25  and  C_26
REMARK                            x       y       z     vdW  Elec       q    Type
REMARK                         _______ _______ _______ _____ _____    ______ ____
ROOT
ATOM      1  C   UNL     1       2.198   5.454  19.835  0.00  0.00    +0.000 A 
ATOM      2  C   UNL     1       2.468   4.110  20.250  0.00  0.00    +0.000 A 
ATOM      3  C   UNL     1       3.521   3.643  19.453  0.00  0.00    +0.000 A 
ATOM      4  C   UNL     1       4.222   2.320  19.573  0.00  0.00    +0.000 C 
ATOM      5  N   UNL     1       3.904   4.652  18.562  0.00  0.00    +0.000 N 
ATOM      6  C   UNL     1       3.026   5.719  18.747  0.00  0.00    +0.000 A 
ATOM      7  C   UNL     1       2.966   6.960  17.902  0.00  0.00    +0.000 C 
ENDROOT
BRANCH   5   8
ATOM      8  C   UNL     1       5.011   4.618  17.631  0.00  0.00    +0.000 A 
ATOM      9  C   UNL     1       6.299   5.014  18.003  0.00  0.00    +0.000 A 
ATOM     10  C   UNL     1       7.358   4.974  17.088  0.00  0.00    +0.000 A 
ATOM     11  C   UNL     1       7.151   4.492  15.800  0.00  0.00    +0.000 A 
ATOM     12  C   UNL     1       5.878   4.085  15.417  0.00  0.00    +0.000 A 
ATOM     13  C   UNL     1       4.810   4.178  16.314  0.00  0.00    +0.000 A 
ENDBRANCH   5   8
BRANCH   2  14
ATOM     14  C   UNL     1       1.836   3.345  21.336  0.00  0.00    +0.000 C 
ATOM     15  O   UNL     1       2.346   3.140  22.425  0.00  0.00    +0.000 OA
BRANCH  14  16
ATOM     16  O   UNL     1       0.613   2.844  21.031  0.00  0.00    +0.000 OA
ATOM     17  H   UNL     1       0.163   2.494  21.816  0.00  0.00    +0.000 HD
ENDBRANCH  14  16
ENDBRANCH   2  14
BRANCH   1  18
ATOM     18  C   UNL     1       1.216   6.434  20.425  0.00  0.00    +0.000 C 
BRANCH  18  19
ATOM     19  N   UNL     1       1.968   7.531  21.018  0.00  0.00    +0.000 NA
ATOM     20  H   UNL     1       1.782   7.572  22.018  0.00  0.00    +0.000 HD
BRANCH  19  21
ATOM     21  C   UNL     1       1.615   8.806  20.403  0.00  0.00    +0.000 C 
BRANCH  21  26
ATOM     22  C   UNL     1      -1.005  11.373  21.458  0.00  0.00    +0.000 A 
ATOM     23  C   UNL     1      -1.183  11.035  22.803  0.00  0.00    +0.000 A 
ATOM     24  C   UNL     1      -0.481   9.975  23.368  0.00  0.00    +0.000 A 
ATOM     25  C   UNL     1       0.416   9.243  22.591  0.00  0.00    +0.000 A 
ATOM     26  C   UNL     1       0.614   9.566  21.242  0.00  0.00    +0.000 A 
ATOM     27  C   UNL     1      -0.109  10.634  20.683  0.00  0.00    +0.000 A 
BRANCH  22  29
ATOM     28  C   UNL     1      -1.077  13.381  20.191  0.00  0.00    +0.000 C 
ATOM     29  O   UNL     1      -1.743  12.441  21.027  0.00  0.00    +0.000 OA
ENDBRANCH  22  29
ENDBRANCH  21  26
ENDBRANCH  19  21
ENDBRANCH  18  19
ENDBRANCH   1  18
TORSDOF 8
ENDMDL
MODEL 3
REMARK VINA RESULT:      -7.9      1.070      1.386
REMARK  Name = 
REMARK  11 active torsions:
REMARK  status: ('A' for Active; 'I' for Inactive)
REMARK    1  A    between atoms: C_1  and  O_2
REMARK    2  A    between atoms: O_2  and  C_3
REMARK    3  A    between atoms: C_7  and  C_8
REMARK    4  A    between atoms: C_8  and  N_9
REMARK    5  A    between atoms: N_9  and  C_10
REMARK    6  A    between atoms: C_10  and  C_11
REMARK    7  A    between atoms: C_12  and  C_13
REMARK    8  A    between atoms: C_13  and  O_15
REMARK    9  A    between atoms: C_16  and  C_17
REMARK   10  A    between atoms: N_18  and  C_19
REMARK   11  A    between atoms: C_25  and  C_26
REMARK                            x       y       z     vdW  Elec       q    Type
REMARK                         _______ _______ _______ _____ _____    ______ ____
ROOT
ATOM      1  C   UNL     1       2.223   5.587  19.932  0.00  0.00    +0.000 A 
ATOM      2  C   UNL     1       2.461   4.219  20.282  0.00  0.00    +0.000 A 
ATOM      3  C   UNL     1       3.486   3.759  19.446  0.00  0.00    +0.000 A 
ATOM      4  C   UNL     1       4.151   2.412  19.495  0.00  0.00    +0.000 C 
ATOM      5  N   UNL     1       3.883   4.795  18.594  0.00  0.00    +0.000 N 
ATOM      6  C   UNL     1       3.040   5.877  18.842  0.00  0.00    +0.000 A 
ATOM      7  C   UNL     1       3.002   7.156  18.054  0.00  0.00    +0.000 C 
ENDROOT
BRANCH   5   8
ATOM      8  C   UNL     1       4.973   4.771  17.643  0.00  0.00    +0.000 A 
ATOM      9  C   UNL     1       4.793   4.330  16.328  0.00  0.00    +0.000 A 
ATOM     10  C   UNL     1       5.860   4.314  15.421  0.00  0.00    +0.000 A 
ATOM     11  C   UNL     1       7.111   4.785  15.805  0.00  0.00    +0.000 A 
ATOM     12  C   UNL     1       7.304   5.235  17.106  0.00  0.00    +0.000 A 
ATOM     13  C   UNL     1       6.252   5.199  18.027  0.00  0.00    +0.000 A 
ENDBRANCH   5   8
BRANCH   2  14
ATOM     14  C   UNL     1       1.825   3.424  21.345  0.00  0.00    +0.000 C 
ATOM     15  O   UNL     1       2.315   3.222  22.444  0.00  0.00    +0.000 OA
BRANCH  14  16
ATOM     16  O   UNL     1       0.624   2.892  21.005  0.00  0.00    +0.000 OA
ATOM     17  H   UNL     1       0.585   1.943  21.199  0.00  0.00    +0.000 HD
ENDBRANCH  14  16
ENDBRANCH   2  14
BRANCH   1  18
ATOM     18  C   UNL     1       1.279   6.567  20.582  0.00  0.00    +0.000 C 
BRANCH  18  19
ATOM     19  N   UNL     1       2.018   7.792  20.863  0.00  0.00    +0.000 NA
ATOM     20  H   UNL     1       2.989   7.565  21.070  0.00  0.00    +0.000 HD
BRANCH  19  21
ATOM     21  C   UNL     1       1.434   8.513  21.988  0.00  0.00    +0.000 C 
BRANCH  21  26
ATOM     22  C   UNL     1       0.096  11.339  19.798  0.00  0.00    +0.000 A 
ATOM     23  C   UNL     1      -0.809  11.949  20.672  0.00  0.00    +0.000 A 
ATOM     24  C   UNL     1      -1.006  11.445  21.954  0.00  0.00    +0.000 A 
ATOM     25  C   UNL     1      -0.292  10.326  22.380  0.00  0.00    +0.000 A 
ATOM     26  C   UNL     1       0.624   9.700  21.522  0.00  0.00    +0.000 A 
ATOM     27  C   UNL     1       0.806  10.216  20.227  0.00  0.00    +0.000 A 
BRANCH  22  29
ATOM     28  C   UNL     1      -0.639  13.054  18.329  0.00  0.00    +0.000 C 
ATOM     29  O   UNL     1       0.208  11.936  18.573  0.00  0.00    +0.000 OA
ENDBRANCH  22  29
ENDBRANCH  21  26
ENDBRANCH  19  21
ENDBRANCH  18  19
ENDBRANCH   1  18
TORSDOF 8
ENDMDL
MODEL 4
REMARK VINA RESULT:      -7.8      0.768      1.690
REMARK  Name = 
REMARK  11 active torsions:
REMARK  status: ('A' for Active; 'I' for Inactive)
REMARK    1  A    between atoms: C_1  and  O_2
REMARK    2  A    between atoms: O_2  and  C_3
REMARK    3  A    between atoms: C_7  and  C_8
REMARK    4  A    between atoms: C_8  and  N_9
REMARK    5  A    between atoms: N_9  and  C_10
REMARK    6  A    between atoms: C_10  and  C_11
REMARK    7  A    between atoms: C_12  and  C_13
REMARK    8  A    between atoms: C_13  and  O_15
REMARK    9  A    between atoms: C_16  and  C_17
REMARK   10  A    between atoms: N_18  and  C_19
REMARK   11  A    between atoms: C_25  and  C_26
REMARK                            x       y       z     vdW  Elec       q    Type
REMARK                         _______ _______ _______ _____ _____    ______ ____
ROOT
ATOM      1  C   UNL     1       2.231   5.546  19.946  0.00  0.00    +0.000 A 
ATOM      2  C   UNL     1       2.470   4.174  20.278  0.00  0.00    +0.000 A 
ATOM      3  C   UNL     1       3.488   3.721  19.429  0.00  0.00    +0.000 A 
ATOM      4  C   UNL     1       4.151   2.374  19.457  0.00  0.00    +0.000 C 
ATOM      5  N   UNL     1       3.880   4.767  18.586  0.00  0.00    +0.000 N 
ATOM      6  C   UNL     1       3.040   5.848  18.853  0.00  0.00    +0.000 A 
ATOM      7  C   UNL     1       2.998   7.135  18.080  0.00  0.00    +0.000 C 
ENDROOT
BRANCH   5   8
ATOM      8  C   UNL     1       4.962   4.753  17.626  0.00  0.00    +0.000 A 
ATOM      9  C   UNL     1       6.242   5.213  17.951  0.00  0.00    +0.000 A 
ATOM     10  C   UNL     1       7.277   5.192  17.008  0.00  0.00    +0.000 A 
ATOM     11  C   UNL     1       7.057   4.665  15.740  0.00  0.00    +0.000 A 
ATOM     12  C   UNL     1       5.792   4.194  15.404  0.00  0.00    +0.000 A 
ATOM     13  C   UNL     1       4.745   4.267  16.328  0.00  0.00    +0.000 A 
ENDBRANCH   5   8
BRANCH   2  14
ATOM     14  C   UNL     1       1.841   3.367  21.336  0.00  0.00    +0.000 C 
ATOM     15  O   UNL     1       2.347   3.138  22.423  0.00  0.00    +0.000 OA
BRANCH  14  16
ATOM     16  O   UNL     1       0.628   2.857  21.007  0.00  0.00    +0.000 OA
ATOM     17  H   UNL     1       0.191   2.450  21.771  0.00  0.00    +0.000 HD
ENDBRANCH  14  16
ENDBRANCH   2  14
BRANCH   1  18
ATOM     18  C   UNL     1       1.294   6.519  20.615  0.00  0.00    +0.000 C 
BRANCH  18  19
ATOM     19  N   UNL     1       2.053   7.713  20.966  0.00  0.00    +0.000 NA
ATOM     20  H   UNL     1       2.875   7.448  21.505  0.00  0.00    +0.000 HD
BRANCH  19  21
ATOM     21  C   UNL     1       1.241   8.646  21.738  0.00  0.00    +0.000 C 
BRANCH  21  26
ATOM     22  C   UNL     1      -0.622  11.790  20.635  0.00  0.00    +0.000 A 
ATOM     23  C   UNL     1      -0.489  11.705  19.246  0.00  0.00    +0.000 A 
ATOM     24  C   UNL     1       0.211  10.654  18.662  0.00  0.00    +0.000 A 
ATOM     25  C   UNL     1       0.784   9.668  19.466  0.00  0.00    +0.000 A 
ATOM     26  C   UNL     1       0.661   9.731  20.861  0.00  0.00    +0.000 A 
ATOM     27  C   UNL     1      -0.042  10.803  21.435  0.00  0.00    +0.000 A 
BRANCH  22  29
ATOM     28  C   UNL     1      -2.722  12.636  21.351  0.00  0.00    +0.000 C 
ATOM     29  O   UNL     1      -1.343  12.863  21.082  0.00  0.00    +0.000 OA
ENDBRANCH  22  29
ENDBRANCH  21  26
ENDBRANCH  19  21
ENDBRANCH  18  19
ENDBRANCH   1  18
TORSDOF 8
ENDMDL
MODEL 5
REMARK VINA RESULT:      -7.7      1.534      2.275
REMARK  Name = 
REMARK  11 active torsions:
REMARK  status: ('A' for Active; 'I' for Inactive)
REMARK    1  A    between atoms: C_1  and  O_2
REMARK    2  A    between atoms: O_2  and  C_3
REMARK    3  A    between atoms: C_7  and  C_8
REMARK    4  A    between atoms: C_8  and  N_9
REMARK    5  A    between atoms: N_9  and  C_10
REMARK    6  A    between atoms: C_10  and  C_11
REMARK    7  A    between atoms: C_12  and  C_13
REMARK    8  A    between atoms: C_13  and  O_15
REMARK    9  A    between atoms: C_16  and  C_17
REMARK   10  A    between atoms: N_18  and  C_19
REMARK   11  A    between atoms: C_25  and  C_26
REMARK                            x       y       z     vdW  Elec       q    Type
REMARK                         _______ _______ _______ _____ _____    ______ ____
ROOT
ATOM      1  C   UNL     1       2.087   5.815  20.005  0.00  0.00    +0.000 A 
ATOM      2  C   UNL     1       2.447   4.460  20.293  0.00  0.00    +0.000 A 
ATOM      3  C   UNL     1       3.515   4.135  19.447  0.00  0.00    +0.000 A 
ATOM      4  C   UNL     1       4.299   2.853  19.440  0.00  0.00    +0.000 C 
ATOM      5  N   UNL     1       3.821   5.242  18.649  0.00  0.00    +0.000 N 
ATOM      6  C   UNL     1       2.881   6.230  18.939  0.00  0.00    +0.000 A 
ATOM      7  C   UNL     1       2.732   7.536  18.212  0.00  0.00    +0.000 C 
ENDROOT
BRANCH   5   8
ATOM      8  C   UNL     1       4.914   5.363  17.710  0.00  0.00    +0.000 A 
ATOM      9  C   UNL     1       6.124   5.969  18.061  0.00  0.00    +0.000 A 
ATOM     10  C   UNL     1       7.171   6.077  17.137  0.00  0.00    +0.000 A 
ATOM     11  C   UNL     1       7.038   5.537  15.863  0.00  0.00    +0.000 A 
ATOM     12  C   UNL     1       5.844   4.922  15.501  0.00  0.00    +0.000 A 
ATOM     13  C   UNL     1       4.780   4.864  16.405  0.00  0.00    +0.000 A 
ENDBRANCH   5   8
BRANCH   2  14
ATOM     14  C   UNL     1       1.879   3.560  21.310  0.00  0.00    +0.000 C 
ATOM     15  O   UNL     1       2.413   3.298  22.376  0.00  0.00    +0.000 OA
BRANCH  14  16
ATOM     16  O   UNL     1       0.691   3.003  20.966  0.00  0.00    +0.000 OA
ATOM     17  H   UNL     1       0.139   3.620  20.461  0.00  0.00    +0.000 HD
ENDBRANCH  14  16
ENDBRANCH   2  14
BRANCH   1  18
ATOM     18  C   UNL     1       1.054   6.673  20.691  0.00  0.00    +0.000 C 
BRANCH  18  19
ATOM     19  N   UNL     1       1.705   7.897  21.139  0.00  0.00    +0.000 NA
ATOM     20  H   UNL     1       2.399   7.674  21.850  0.00  0.00    +0.000 HD
BRANCH  19  21
ATOM     21  C   UNL     1       0.735   8.841  21.684  0.00  0.00    +0.000 C 
BRANCH  21  26
ATOM     22  C   UNL     1      -0.590  11.032  18.853  0.00  0.00    +0.000 A 
ATOM     23  C   UNL     1       0.212  12.168  18.997  0.00  0.00    +0.000 A 
ATOM     24  C   UNL     1       1.163  12.243  20.010  0.00  0.00    +0.000 A 
ATOM     25  C   UNL     1       1.326  11.173  20.890  0.00  0.00    +0.000 A 
ATOM     26  C   UNL     1       0.536  10.022  20.763  0.00  0.00    +0.000 A 
ATOM     27  C   UNL     1      -0.426   9.966  19.740  0.00  0.00    +0.000 A 
BRANCH  22  29
ATOM     28  C   UNL     1      -1.826   9.834  17.216  0.00  0.00    +0.000 C 
ATOM     29  O   UNL     1      -1.477  11.079  17.813  0.00  0.00    +0.000 OA
ENDBRANCH  22  29
ENDBRANCH  21  26
ENDBRANCH  19  21
ENDBRANCH  18  19
ENDBRANCH   1  18
TORSDOF 8
ENDMDL
MODEL 6
REMARK VINA RESULT:      -7.6      3.263      8.954
REMARK  Name = 
REMARK  11 active torsions:
REMARK  status: ('A' for Active; 'I' for Inactive)
REMARK    1  A    between atoms: C_1  and  O_2
REMARK    2  A    between atoms: O_2  and  C_3
REMARK    3  A    between atoms: C_7  and  C_8
REMARK    4  A    between atoms: C_8  and  N_9
REMARK    5  A    between atoms: N_9  and  C_10
REMARK    6  A    between atoms: C_10  and  C_11
REMARK    7  A    between atoms: C_12  and  C_13
REMARK    8  A    between atoms: C_13  and  O_15
REMARK    9  A    between atoms: C_16  and  C_17
REMARK   10  A    between atoms: N_18  and  C_19
REMARK   11  A    between atoms: C_25  and  C_26
REMARK                            x       y       z     vdW  Elec       q    Type
REMARK                         _______ _______ _______ _____ _____    ______ ____
ROOT
ATOM      1  C   UNL     1       5.070   4.783  18.433  0.00  0.00    +0.000 A 
ATOM      2  C   UNL     1       4.074   3.988  19.087  0.00  0.00    +0.000 A 
ATOM      3  C   UNL     1       3.017   4.849  19.413  0.00  0.00    +0.000 A 
ATOM      4  C   UNL     1       1.702   4.464  20.028  0.00  0.00    +0.000 C 
ATOM      5  N   UNL     1       3.331   6.143  18.984  0.00  0.00    +0.000 N 
ATOM      6  C   UNL     1       4.626   6.103  18.469  0.00  0.00    +0.000 A 
ATOM      7  C   UNL     1       5.430   7.294  18.030  0.00  0.00    +0.000 C 
ENDROOT
BRANCH   5   8
ATOM      8  C   UNL     1       2.477   7.309  19.039  0.00  0.00    +0.000 A 
ATOM      9  C   UNL     1       1.949   7.778  20.246  0.00  0.00    +0.000 A 
ATOM     10  C   UNL     1       1.124   8.910  20.279  0.00  0.00    +0.000 A 
ATOM     11  C   UNL     1       0.855   9.615  19.111  0.00  0.00    +0.000 A 
ATOM     12  C   UNL     1       1.381   9.166  17.904  0.00  0.00    +0.000 A 
ATOM     13  C   UNL     1       2.158   8.005  17.864  0.00  0.00    +0.000 A 
ENDBRANCH   5   8
BRANCH   2  14
ATOM     14  C   UNL     1       4.083   2.539  19.338  0.00  0.00    +0.000 C 
ATOM     15  O   UNL     1       3.306   1.745  18.832  0.00  0.00    +0.000 OA
BRANCH  14  16
ATOM     16  O   UNL     1       5.030   2.127  20.218  0.00  0.00    +0.000 OA
ATOM     17  H   UNL     1       5.146   2.762  20.942  0.00  0.00    +0.000 HD
ENDBRANCH  14  16
ENDBRANCH   2  14
BRANCH   1  18
ATOM     18  C   UNL     1       6.366   4.330  17.811  0.00  0.00    +0.000 C 
BRANCH  18  19
ATOM     19  N   UNL     1       6.059   3.674  16.546  0.00  0.00    +0.000 NA
ATOM     20  H   UNL     1       6.904   3.248  16.169  0.00  0.00    +0.000 HD
BRANCH  19  21
ATOM     21  C   UNL     1       5.514   4.620  15.579  0.00  0.00    +0.000 C 
BRANCH  21  26
ATOM     22  C   UNL     1       5.942   3.075  12.115  0.00  0.00    +0.000 A 
ATOM     23  C   UNL     1       7.048   3.786  11.641  0.00  0.00    +0.000 A 
ATOM     24  C   UNL     1       7.646   4.772  12.420  0.00  0.00    +0.000 A 
ATOM     25  C   UNL     1       7.145   5.054  13.690  0.00  0.00    +0.000 A 
ATOM     26  C   UNL     1       6.038   4.352  14.188  0.00  0.00    +0.000 A 
ATOM     27  C   UNL     1       5.440   3.365  13.386  0.00  0.00    +0.000 A 
BRANCH  22  29
ATOM     28  C   UNL     1       6.295   1.005  11.006  0.00  0.00    +0.000 C 
ATOM     29  O   UNL     1       5.454   2.126  11.260  0.00  0.00    +0.000 OA
ENDBRANCH  22  29
ENDBRANCH  21  26
ENDBRANCH  19  21
ENDBRANCH  18  19
ENDBRANCH   1  18
TORSDOF 8
ENDMDL
MODEL 7
REMARK VINA RESULT:      -7.6      2.964      7.107
REMARK  Name = 
REMARK  11 active torsions:
REMARK  status: ('A' for Active; 'I' for Inactive)
REMARK    1  A    between atoms: C_1  and  O_2
REMARK    2  A    between atoms: O_2  and  C_3
REMARK    3  A    between atoms: C_7  and  C_8
REMARK    4  A    between atoms: C_8  and  N_9
REMARK    5  A    between atoms: N_9  and  C_10
REMARK    6  A    between atoms: C_10  and  C_11
REMARK    7  A    between atoms: C_12  and  C_13
REMARK    8  A    between atoms: C_13  and  O_15
REMARK    9  A    between atoms: C_16  and  C_17
REMARK   10  A    between atoms: N_18  and  C_19
REMARK   11  A    between atoms: C_25  and  C_26
REMARK                            x       y       z     vdW  Elec       q    Type
REMARK                         _______ _______ _______ _____ _____    ______ ____
ROOT
ATOM      1  C   UNL     1       3.840   4.440  17.485  0.00  0.00    +0.000 A 
ATOM      2  C   UNL     1       3.409   3.749  18.663  0.00  0.00    +0.000 A 
ATOM      3  C   UNL     1       2.775   4.694  19.479  0.00  0.00    +0.000 A 
ATOM      4  C   UNL     1       2.074   4.433  20.782  0.00  0.00    +0.000 C 
ATOM      5  N   UNL     1       2.802   5.940  18.844  0.00  0.00    +0.000 N 
ATOM      6  C   UNL     1       3.536   5.787  17.668  0.00  0.00    +0.000 A 
ATOM      7  C   UNL     1       3.950   6.896  16.743  0.00  0.00    +0.000 C 
ENDROOT
BRANCH   5   8
ATOM      8  C   UNL     1       2.177   7.164  19.298  0.00  0.00    +0.000 A 
ATOM      9  C   UNL     1       1.840   7.364  20.640  0.00  0.00    +0.000 A 
ATOM     10  C   UNL     1       1.235   8.555  21.060  0.00  0.00    +0.000 A 
ATOM     11  C   UNL     1       1.003   9.581  20.150  0.00  0.00    +0.000 A 
ATOM     12  C   UNL     1       1.341   9.401  18.813  0.00  0.00    +0.000 A 
ATOM     13  C   UNL     1       1.894   8.190  18.385  0.00  0.00    +0.000 A 
ENDBRANCH   5   8
BRANCH   2  14
ATOM     14  C   UNL     1       3.531   2.317  18.978  0.00  0.00    +0.000 C 
ATOM     15  O   UNL     1       4.338   1.849  19.766  0.00  0.00    +0.000 OA
BRANCH  14  16
ATOM     16  O   UNL     1       2.674   1.517  18.296  0.00  0.00    +0.000 OA
ATOM     17  H   UNL     1       2.061   2.033  17.749  0.00  0.00    +0.000 HD
ENDBRANCH  14  16
ENDBRANCH   2  14
BRANCH   1  18
ATOM     18  C   UNL     1       4.501   3.868  16.257  0.00  0.00    +0.000 C 
BRANCH  18  19
ATOM     19  N   UNL     1       5.860   3.481  16.610  0.00  0.00    +0.000 NA
ATOM     20  H   UNL     1       5.947   3.427  17.623  0.00  0.00    +0.000 HD
BRANCH  19  21
ATOM     21  C   UNL     1       6.833   4.433  16.086  0.00  0.00    +0.000 C 
BRANCH  21  26
ATOM     22  C   UNL     1       7.795   7.681  17.844  0.00  0.00    +0.000 A 
ATOM     23  C   UNL     1       8.212   7.197  19.088  0.00  0.00    +0.000 A 
ATOM     24  C   UNL     1       8.168   5.836  19.373  0.00  0.00    +0.000 A 
ATOM     25  C   UNL     1       7.710   4.939  18.408  0.00  0.00    +0.000 A 
ATOM     26  C   UNL     1       7.290   5.400  17.152  0.00  0.00    +0.000 A 
ATOM     27  C   UNL     1       7.333   6.779  16.884  0.00  0.00    +0.000 A 
BRANCH  22  29
ATOM     28  C   UNL     1       8.809   9.710  18.548  0.00  0.00    +0.000 C 
ATOM     29  O   UNL     1       7.899   9.036  17.686  0.00  0.00    +0.000 OA
ENDBRANCH  22  29
ENDBRANCH  21  26
ENDBRANCH  19  21
ENDBRANCH  18  19
ENDBRANCH   1  18
TORSDOF 8
ENDMDL
MODEL 8
REMARK VINA RESULT:      -7.6      3.253      8.737
REMARK  Name = 
REMARK  11 active torsions:
REMARK  status: ('A' for Active; 'I' for Inactive)
REMARK    1  A    between atoms: C_1  and  O_2
REMARK    2  A    between atoms: O_2  and  C_3
REMARK    3  A    between atoms: C_7  and  C_8
REMARK    4  A    between atoms: C_8  and  N_9
REMARK    5  A    between atoms: N_9  and  C_10
REMARK    6  A    between atoms: C_10  and  C_11
REMARK    7  A    between atoms: C_12  and  C_13
REMARK    8  A    between atoms: C_13  and  O_15
REMARK    9  A    between atoms: C_16  and  C_17
REMARK   10  A    between atoms: N_18  and  C_19
REMARK   11  A    between atoms: C_25  and  C_26
REMARK                            x       y       z     vdW  Elec       q    Type
REMARK                         _______ _______ _______ _____ _____    ______ ____
ROOT
ATOM      1  C   UNL     1       4.968   4.644  18.486  0.00  0.00    +0.000 A 
ATOM      2  C   UNL     1       3.934   3.903  19.143  0.00  0.00    +0.000 A 
ATOM      3  C   UNL     1       2.908   4.810  19.437  0.00  0.00    +0.000 A 
ATOM      4  C   UNL     1       1.571   4.491  20.043  0.00  0.00    +0.000 C 
ATOM      5  N   UNL     1       3.278   6.082  18.987  0.00  0.00    +0.000 N 
ATOM      6  C   UNL     1       4.577   5.981  18.489  0.00  0.00    +0.000 A 
ATOM      7  C   UNL     1       5.433   7.130  18.037  0.00  0.00    +0.000 C 
ENDROOT
BRANCH   5   8
ATOM      8  C   UNL     1       2.470   7.282  19.007  0.00  0.00    +0.000 A 
ATOM      9  C   UNL     1       2.186   7.999  17.841  0.00  0.00    +0.000 A 
ATOM     10  C   UNL     1       1.403   9.159  17.881  0.00  0.00    +0.000 A 
ATOM     11  C   UNL     1       0.852   9.590  19.083  0.00  0.00    +0.000 A 
ATOM     12  C   UNL     1       1.117   8.883  20.251  0.00  0.00    +0.000 A 
ATOM     13  C   UNL     1       1.946   7.756  20.219  0.00  0.00    +0.000 A 
ENDBRANCH   5   8
BRANCH   2  14
ATOM     14  C   UNL     1       3.883   2.459  19.423  0.00  0.00    +0.000 C 
ATOM     15  O   UNL     1       3.018   1.705  19.009  0.00  0.00    +0.000 OA
BRANCH  14  16
ATOM     16  O   UNL     1       4.883   2.006  20.220  0.00  0.00    +0.000 OA
ATOM     17  H   UNL     1       5.487   1.420  19.738  0.00  0.00    +0.000 HD
ENDBRANCH  14  16
ENDBRANCH   2  14
BRANCH   1  18
ATOM     18  C   UNL     1       6.253   4.128  17.890  0.00  0.00    +0.000 C 
BRANCH  18  19
ATOM     19  N   UNL     1       6.075   4.019  16.448  0.00  0.00    +0.000 NA
ATOM     20  H   UNL     1       6.198   3.050  16.162  0.00  0.00    +0.000 HD
BRANCH  19  21
ATOM     21  C   UNL     1       7.024   4.865  15.733  0.00  0.00    +0.000 C 
BRANCH  21  26
ATOM     22  C   UNL     1       6.008   3.441  12.341  0.00  0.00    +0.000 A 
ATOM     23  C   UNL     1       6.865   4.145  11.489  0.00  0.00    +0.000 A 
ATOM     24  C   UNL     1       7.753   5.089  11.996  0.00  0.00    +0.000 A 
ATOM     25  C   UNL     1       7.798   5.334  13.368  0.00  0.00    +0.000 A 
ATOM     26  C   UNL     1       6.952   4.638  14.242  0.00  0.00    +0.000 A 
ATOM     27  C   UNL     1       6.055   3.694  13.713  0.00  0.00    +0.000 A 
BRANCH  22  29
ATOM     28  C   UNL     1       3.997   3.044  11.142  0.00  0.00    +0.000 C 
ATOM     29  O   UNL     1       5.193   2.534  11.721  0.00  0.00    +0.000 OA
ENDBRANCH  22  29
ENDBRANCH  21  26
ENDBRANCH  19  21
ENDBRANCH  18  19
ENDBRANCH   1  18
TORSDOF 8
ENDMDL
MODEL 9
REMARK VINA RESULT:      -7.3      1.434      2.079
REMARK  Name = 
REMARK  11 active torsions:
REMARK  status: ('A' for Active; 'I' for Inactive)
REMARK    1  A    between atoms: C_1  and  O_2
REMARK    2  A    between atoms: O_2  and  C_3
REMARK    3  A    between atoms: C_7  and  C_8
REMARK    4  A    between atoms: C_8  and  N_9
REMARK    5  A    between atoms: N_9  and  C_10
REMARK    6  A    between atoms: C_10  and  C_11
REMARK    7  A    between atoms: C_12  and  C_13
REMARK    8  A    between atoms: C_13  and  O_15
REMARK    9  A    between atoms: C_16  and  C_17
REMARK   10  A    between atoms: N_18  and  C_19
REMARK   11  A    between atoms: C_25  and  C_26
REMARK                            x       y       z     vdW  Elec       q    Type
REMARK                         _______ _______ _______ _____ _____    ______ ____
ROOT
ATOM      1  C   UNL     1       2.189   5.561  19.933  0.00  0.00    +0.000 A 
ATOM      2  C   UNL     1       2.423   4.185  20.258  0.00  0.00    +0.000 A 
ATOM      3  C   UNL     1       3.451   3.739  19.417  0.00  0.00    +0.000 A 
ATOM      4  C   UNL     1       4.112   2.390  19.443  0.00  0.00    +0.000 C 
ATOM      5  N   UNL     1       3.854   4.791  18.588  0.00  0.00    +0.000 N 
ATOM      6  C   UNL     1       3.012   5.870  18.853  0.00  0.00    +0.000 A 
ATOM      7  C   UNL     1       2.981   7.164  18.091  0.00  0.00    +0.000 C 
ENDROOT
BRANCH   5   8
ATOM      8  C   UNL     1       4.949   4.783  17.642  0.00  0.00    +0.000 A 
ATOM      9  C   UNL     1       4.771   4.384  16.314  0.00  0.00    +0.000 A 
ATOM     10  C   UNL     1       5.843   4.383  15.412  0.00  0.00    +0.000 A 
ATOM     11  C   UNL     1       7.097   4.828  15.816  0.00  0.00    +0.000 A 
ATOM     12  C   UNL     1       7.288   5.237  17.132  0.00  0.00    +0.000 A 
ATOM     13  C   UNL     1       6.231   5.185  18.045  0.00  0.00    +0.000 A 
ENDBRANCH   5   8
BRANCH   2  14
ATOM     14  C   UNL     1       1.779   3.371  21.301  0.00  0.00    +0.000 C 
ATOM     15  O   UNL     1       0.735   2.758  21.152  0.00  0.00    +0.000 OA
BRANCH  14  16
ATOM     16  O   UNL     1       2.433   3.362  22.489  0.00  0.00    +0.000 OA
ATOM     17  H   UNL     1       3.378   3.173  22.377  0.00  0.00    +0.000 HD
ENDBRANCH  14  16
ENDBRANCH   2  14
BRANCH   1  18
ATOM     18  C   UNL     1       1.245   6.529  20.598  0.00  0.00    +0.000 C 
BRANCH  18  19
ATOM     19  N   UNL     1       1.973   7.762  20.869  0.00  0.00    +0.000 NA
ATOM     20  H   UNL     1       2.780   7.559  21.456  0.00  0.00    +0.000 HD
BRANCH  19  21
ATOM     21  C   UNL     1       1.122   8.744  21.529  0.00  0.00    +0.000 C 
BRANCH  21  26
ATOM     22  C   UNL     1      -1.077  10.743  19.133  0.00  0.00    +0.000 A 
ATOM     23  C   UNL     1      -0.184  11.736  18.718  0.00  0.00    +0.000 A 
ATOM     24  C   UNL     1       1.113  11.779  19.218  0.00  0.00    +0.000 A 
ATOM     25  C   UNL     1       1.536  10.820  20.138  0.00  0.00    +0.000 A 
ATOM     26  C   UNL     1       0.660   9.813  20.566  0.00  0.00    +0.000 A 
ATOM     27  C   UNL     1      -0.650   9.788  20.058  0.00  0.00    +0.000 A 
BRANCH  22  29
ATOM     28  C   UNL     1      -2.614   9.816  17.578  0.00  0.00    +0.000 C 
ATOM     29  O   UNL     1      -2.317  10.803  18.560  0.00  0.00    +0.000 OA
ENDBRANCH  22  29
ENDBRANCH  21  26
ENDBRANCH  19  21
ENDBRANCH  18  19
ENDBRANCH   1  18
TORSDOF 8
ENDMDL
