MODEL 1
REMARK VINA RESULT:      -6.5      0.000      0.000
REMARK  Name = 
REMARK  5 active torsions:
REMARK  status: ('A' for Active; 'I' for Inactive)
REMARK    1  A    between atoms: C_1  and  C_2
REMARK    2  A    between atoms: N_7  and  C_8
REMARK    3  A    between atoms: C_8  and  C_9
REMARK    4  A    between atoms: C_10  and  C_11
REMARK    5  A    between atoms: C_11  and  N_12
REMARK                            x       y       z     vdW  Elec       q    Type
REMARK                         _______ _______ _______ _____ _____    ______ ____
ROOT
ATOM      1  C   UNL     1       3.620   2.507  17.880  0.00  0.00    +0.000 C 
ENDROOT
BRANCH   1   8
ATOM      2  C   UNL     1       0.443   2.575  18.686  0.00  0.00    +0.000 C 
ATOM      3  C   UNL     1       1.648   3.109  19.451  0.00  0.00    +0.000 C 
ATOM      4  C   UNL     1       1.441   2.869  20.947  0.00  0.00    +0.000 C 
ATOM      5  C   UNL     1       2.844   2.817  21.515  0.00  0.00    +0.000 C 
ATOM      6  C   UNL     1       3.686   2.370  20.347  0.00  0.00    +0.000 C 
ATOM      7  O   UNL     1       4.857   2.041  20.427  0.00  0.00    +0.000 OA
ATOM      8  N   UNL     1       2.928   2.462  19.178  0.00  0.00    +0.000 N 
ENDBRANCH   1   8
BRANCH   1   9
ATOM      9  C   UNL     1       4.154   3.910  17.642  0.00  0.00    +0.000 C 
ATOM     10  C   UNL     1       4.611   5.113  17.438  0.00  0.00    +0.000 C 
BRANCH  10  11
ATOM     11  C   UNL     1       5.145   6.516  17.200  0.00  0.00    +0.000 C 
BRANCH  11  12
ATOM     12  N   UNL     1       6.564   6.470  16.814  0.00  0.00    +0.000 NA
ATOM     13  C   UNL     1       7.285   5.335  17.416  0.00  0.00    +0.000 C 
ATOM     14  C   UNL     1       7.728   5.831  18.775  0.00  0.00    +0.000 C 
ATOM     15  C   UNL     1       8.121   7.265  18.488  0.00  0.00    +0.000 C 
ATOM     16  C   UNL     1       7.268   7.676  17.289  0.00  0.00    +0.000 C 
ENDBRANCH  11  12
ENDBRANCH  10  11
ENDBRANCH   1   9
TORSDOF 4
ENDMDL
MODEL 2
REMARK VINA RESULT:      -6.2      1.788      5.794
REMARK  Name = 
REMARK  5 active torsions:
REMARK  status: ('A' for Active; 'I' for Inactive)
REMARK    1  A    between atoms: C_1  and  C_2
REMARK    2  A    between atoms: N_7  and  C_8
REMARK    3  A    between atoms: C_8  and  C_9
REMARK    4  A    between atoms: C_10  and  C_11
REMARK    5  A    between atoms: C_11  and  N_12
REMARK                            x       y       z     vdW  Elec       q    Type
REMARK                         _______ _______ _______ _____ _____    ______ ____
ROOT
ATOM      1  C   UNL     1       5.283   4.159  16.164  0.00  0.00    +0.000 C 
ENDROOT
BRANCH   1   8
ATOM      2  C   UNL     1       3.961   6.945  17.277  0.00  0.00    +0.000 C 
ATOM      3  C   UNL     1       5.360   6.688  16.731  0.00  0.00    +0.000 C 
ATOM      4  C   UNL     1       6.371   7.512  17.530  0.00  0.00    +0.000 C 
ATOM      5  C   UNL     1       7.672   6.751  17.383  0.00  0.00    +0.000 C 
ATOM      6  C   UNL     1       7.230   5.331  17.135  0.00  0.00    +0.000 C 
ATOM      7  O   UNL     1       7.977   4.368  17.129  0.00  0.00    +0.000 OA
ATOM      8  N   UNL     1       5.863   5.323  16.855  0.00  0.00    +0.000 N 
ENDBRANCH   1   8
BRANCH   1   9
ATOM      9  C   UNL     1       4.366   3.412  17.117  0.00  0.00    +0.000 C 
ATOM     10  C   UNL     1       3.579   2.771  17.935  0.00  0.00    +0.000 C 
BRANCH  10  11
ATOM     11  C   UNL     1       2.661   2.025  18.889  0.00  0.00    +0.000 C 
BRANCH  11  12
ATOM     12  N   UNL     1       2.745   2.598  20.241  0.00  0.00    +0.000 NA
ATOM     13  C   UNL     1       1.433   2.705  20.901  0.00  0.00    +0.000 C 
ATOM     14  C   UNL     1       0.868   4.029  20.434  0.00  0.00    +0.000 C 
ATOM     15  C   UNL     1       2.092   4.922  20.425  0.00  0.00    +0.000 C 
ATOM     16  C   UNL     1       3.268   3.977  20.186  0.00  0.00    +0.000 C 
ENDBRANCH  11  12
ENDBRANCH  10  11
ENDBRANCH   1   9
TORSDOF 4
ENDMDL
MODEL 3
REMARK VINA RESULT:      -6.2      2.149      5.836
REMARK  Name = 
REMARK  5 active torsions:
REMARK  status: ('A' for Active; 'I' for Inactive)
REMARK    1  A    between atoms: C_1  and  C_2
REMARK    2  A    between atoms: N_7  and  C_8
REMARK    3  A    between atoms: C_8  and  C_9
REMARK    4  A    between atoms: C_10  and  C_11
REMARK    5  A    between atoms: C_11  and  N_12
REMARK                            x       y       z     vdW  Elec       q    Type
REMARK                         _______ _______ _______ _____ _____    ______ ____
ROOT
ATOM      1  C   UNL     1       6.246   5.499  18.891  0.00  0.00    +0.000 C 
ENDROOT
BRANCH   1   8
ATOM      2  C   UNL     1       4.458   7.047  16.621  0.00  0.00    +0.000 C 
ATOM      3  C   UNL     1       5.093   5.662  16.574  0.00  0.00    +0.000 C 
ATOM      4  C   UNL     1       5.622   5.398  15.164  0.00  0.00    +0.000 C 
ATOM      5  C   UNL     1       6.730   4.385  15.364  0.00  0.00    +0.000 C 
ATOM      6  C   UNL     1       7.193   4.636  16.778  0.00  0.00    +0.000 C 
ATOM      7  O   UNL     1       8.189   4.140  17.275  0.00  0.00    +0.000 OA
ATOM      8  N   UNL     1       6.266   5.460  17.419  0.00  0.00    +0.000 N 
ENDBRANCH   1   8
BRANCH   1   9
ATOM      9  C   UNL     1       4.838   5.210  19.383  0.00  0.00    +0.000 C 
ATOM     10  C   UNL     1       3.629   4.964  19.806  0.00  0.00    +0.000 C 
BRANCH  10  11
ATOM     11  C   UNL     1       2.221   4.675  20.298  0.00  0.00    +0.000 C 
BRANCH  11  12
ATOM     12  N   UNL     1       1.373   4.208  19.191  0.00  0.00    +0.000 NA
ATOM     13  C   UNL     1       0.773   2.887  19.446  0.00  0.00    +0.000 C 
ATOM     14  C   UNL     1       1.817   1.890  18.994  0.00  0.00    +0.000 C 
ATOM     15  C   UNL     1       2.375   2.544  17.746  0.00  0.00    +0.000 C 
ATOM     16  C   UNL     1       2.172   4.042  17.961  0.00  0.00    +0.000 C 
ENDBRANCH  11  12
ENDBRANCH  10  11
ENDBRANCH   1   9
TORSDOF 4
ENDMDL
MODEL 4
REMARK VINA RESULT:      -6.1      1.528      2.111
REMARK  Name = 
REMARK  5 active torsions:
REMARK  status: ('A' for Active; 'I' for Inactive)
REMARK    1  A    between atoms: C_1  and  C_2
REMARK    2  A    between atoms: N_7  and  C_8
REMARK    3  A    between atoms: C_8  and  C_9
REMARK    4  A    between atoms: C_10  and  C_11
REMARK    5  A    between atoms: C_11  and  N_12
REMARK                            x       y       z     vdW  Elec       q    Type
REMARK                         _______ _______ _______ _____ _____    ______ ____
ROOT
ATOM      1  C   UNL     1       3.520   2.784  17.240  0.00  0.00    +0.000 C 
ENDROOT
BRANCH   1   8
ATOM      2  C   UNL     1       4.295   2.342  20.395  0.00  0.00    +0.000 C 
ATOM      3  C   UNL     1       2.954   2.162  19.693  0.00  0.00    +0.000 C 
ATOM      4  C   UNL     1       1.833   2.635  20.620  0.00  0.00    +0.000 C 
ATOM      5  C   UNL     1       0.709   3.020  19.680  0.00  0.00    +0.000 C 
ATOM      6  C   UNL     1       1.420   3.378  18.400  0.00  0.00    +0.000 C 
ATOM      7  O   UNL     1       0.887   3.904  17.439  0.00  0.00    +0.000 OA
ATOM      8  N   UNL     1       2.747   2.951  18.482  0.00  0.00    +0.000 N 
ENDBRANCH   1   8
BRANCH   1   9
ATOM      9  C   UNL     1       4.273   4.069  16.939  0.00  0.00    +0.000 C 
ATOM     10  C   UNL     1       4.919   5.171  16.681  0.00  0.00    +0.000 C 
BRANCH  10  11
ATOM     11  C   UNL     1       5.672   6.456  16.380  0.00  0.00    +0.000 C 
BRANCH  11  12
ATOM     12  N   UNL     1       7.121   6.253  16.531  0.00  0.00    +0.000 NA
ATOM     13  C   UNL     1       7.451   5.101  17.388  0.00  0.00    +0.000 C 
ATOM     14  C   UNL     1       7.436   5.647  18.799  0.00  0.00    +0.000 C 
ATOM     15  C   UNL     1       8.062   7.016  18.627  0.00  0.00    +0.000 C 
ATOM     16  C   UNL     1       7.741   7.419  17.189  0.00  0.00    +0.000 C 
ENDBRANCH  11  12
ENDBRANCH  10  11
ENDBRANCH   1   9
TORSDOF 4
ENDMDL
MODEL 5
REMARK VINA RESULT:      -6.0      1.823      5.911
REMARK  Name = 
REMARK  5 active torsions:
REMARK  status: ('A' for Active; 'I' for Inactive)
REMARK    1  A    between atoms: C_1  and  C_2
REMARK    2  A    between atoms: N_7  and  C_8
REMARK    3  A    between atoms: C_8  and  C_9
REMARK    4  A    between atoms: C_10  and  C_11
REMARK    5  A    between atoms: C_11  and  N_12
REMARK                            x       y       z     vdW  Elec       q    Type
REMARK                         _______ _______ _______ _____ _____    ______ ____
ROOT
ATOM      1  C   UNL     1       5.406   4.191  16.068  0.00  0.00    +0.000 C 
ENDROOT
BRANCH   1   8
ATOM      2  C   UNL     1       4.034   6.958  17.167  0.00  0.00    +0.000 C 
ATOM      3  C   UNL     1       5.462   6.705  16.701  0.00  0.00    +0.000 C 
ATOM      4  C   UNL     1       6.427   7.502  17.580  0.00  0.00    +0.000 C 
ATOM      5  C   UNL     1       7.731   6.735  17.494  0.00  0.00    +0.000 C 
ATOM      6  C   UNL     1       7.297   5.324  17.185  0.00  0.00    +0.000 C 
ATOM      7  O   UNL     1       8.037   4.357  17.200  0.00  0.00    +0.000 OA
ATOM      8  N   UNL     1       5.949   5.333  16.821  0.00  0.00    +0.000 N 
ENDBRANCH   1   8
BRANCH   1   9
ATOM      9  C   UNL     1       4.449   3.412  16.955  0.00  0.00    +0.000 C 
ATOM     10  C   UNL     1       3.628   2.744  17.716  0.00  0.00    +0.000 C 
BRANCH  10  11
ATOM     11  C   UNL     1       2.671   1.965  18.602  0.00  0.00    +0.000 C 
BRANCH  11  12
ATOM     12  N   UNL     1       1.391   2.677  18.731  0.00  0.00    +0.000 NA
ATOM     13  C   UNL     1       1.471   4.082  18.297  0.00  0.00    +0.000 C 
ATOM     14  C   UNL     1       1.952   4.840  19.516  0.00  0.00    +0.000 C 
ATOM     15  C   UNL     1       1.211   4.151  20.643  0.00  0.00    +0.000 C 
ATOM     16  C   UNL     1       0.968   2.728  20.144  0.00  0.00    +0.000 C 
ENDBRANCH  11  12
ENDBRANCH  10  11
ENDBRANCH   1   9
TORSDOF 4
ENDMDL
MODEL 6
REMARK VINA RESULT:      -6.0      2.047      5.976
REMARK  Name = 
REMARK  5 active torsions:
REMARK  status: ('A' for Active; 'I' for Inactive)
REMARK    1  A    between atoms: C_1  and  C_2
REMARK    2  A    between atoms: N_7  and  C_8
REMARK    3  A    between atoms: C_8  and  C_9
REMARK    4  A    between atoms: C_10  and  C_11
REMARK    5  A    between atoms: C_11  and  N_12
REMARK                            x       y       z     vdW  Elec       q    Type
REMARK                         _______ _______ _______ _____ _____    ______ ____
ROOT
ATOM      1  C   UNL     1       5.977   4.800  18.945  0.00  0.00    +0.000 C 
ENDROOT
BRANCH   1   8
ATOM      2  C   UNL     1       4.219   6.957  17.211  0.00  0.00    +0.000 C 
ATOM      3  C   UNL     1       4.955   5.708  16.741  0.00  0.00    +0.000 C 
ATOM      4  C   UNL     1       5.585   5.979  15.375  0.00  0.00    +0.000 C 
ATOM      5  C   UNL     1       6.751   5.013  15.303  0.00  0.00    +0.000 C 
ATOM      6  C   UNL     1       7.109   4.776  16.748  0.00  0.00    +0.000 C 
ATOM      7  O   UNL     1       8.107   4.186  17.123  0.00  0.00    +0.000 OA
ATOM      8  N   UNL     1       6.088   5.279  17.557  0.00  0.00    +0.000 N 
ENDBRANCH   1   8
BRANCH   1   9
ATOM      9  C   UNL     1       4.852   3.783  19.039  0.00  0.00    +0.000 C 
ATOM     10  C   UNL     1       3.886   2.910  19.119  0.00  0.00    +0.000 C 
BRANCH  10  11
ATOM     11  C   UNL     1       2.762   1.893  19.213  0.00  0.00    +0.000 C 
BRANCH  11  12
ATOM     12  N   UNL     1       1.851   2.230  20.318  0.00  0.00    +0.000 NA
ATOM     13  C   UNL     1       0.739   3.100  19.899  0.00  0.00    +0.000 C 
ATOM     14  C   UNL     1       1.287   4.508  19.993  0.00  0.00    +0.000 C 
ATOM     15  C   UNL     1       2.129   4.447  21.251  0.00  0.00    +0.000 C 
ATOM     16  C   UNL     1       2.566   2.988  21.363  0.00  0.00    +0.000 C 
ENDBRANCH  11  12
ENDBRANCH  10  11
ENDBRANCH   1   9
TORSDOF 4
ENDMDL
MODEL 7
REMARK VINA RESULT:      -5.9      1.982      6.042
REMARK  Name = 
REMARK  5 active torsions:
REMARK  status: ('A' for Active; 'I' for Inactive)
REMARK    1  A    between atoms: C_1  and  C_2
REMARK    2  A    between atoms: N_7  and  C_8
REMARK    3  A    between atoms: C_8  and  C_9
REMARK    4  A    between atoms: C_10  and  C_11
REMARK    5  A    between atoms: C_11  and  N_12
REMARK                            x       y       z     vdW  Elec       q    Type
REMARK                         _______ _______ _______ _____ _____    ______ ____
ROOT
ATOM      1  C   UNL     1       6.285   5.364  18.835  0.00  0.00    +0.000 C 
ENDROOT
BRANCH   1   8
ATOM      2  C   UNL     1       4.404   7.026  16.725  0.00  0.00    +0.000 C 
ATOM      3  C   UNL     1       5.069   5.664  16.564  0.00  0.00    +0.000 C 
ATOM      4  C   UNL     1       5.568   5.515  15.126  0.00  0.00    +0.000 C 
ATOM      5  C   UNL     1       6.704   4.517  15.227  0.00  0.00    +0.000 C 
ATOM      6  C   UNL     1       7.197   4.678  16.643  0.00  0.00    +0.000 C 
ATOM      7  O   UNL     1       8.216   4.172  17.079  0.00  0.00    +0.000 OA
ATOM      8  N   UNL     1       6.268   5.431  17.364  0.00  0.00    +0.000 N 
ENDBRANCH   1   8
BRANCH   1   9
ATOM      9  C   UNL     1       5.264   4.341  19.304  0.00  0.00    +0.000 C 
ATOM     10  C   UNL     1       4.388   3.464  19.708  0.00  0.00    +0.000 C 
BRANCH  10  11
ATOM     11  C   UNL     1       3.367   2.441  20.177  0.00  0.00    +0.000 C 
BRANCH  11  12
ATOM     12  N   UNL     1       2.597   1.920  19.037  0.00  0.00    +0.000 NA
ATOM     13  C   UNL     1       2.671   2.789  17.850  0.00  0.00    +0.000 C 
ATOM     14  C   UNL     1       1.577   3.816  18.049  0.00  0.00    +0.000 C 
ATOM     15  C   UNL     1       0.460   2.991  18.653  0.00  0.00    +0.000 C 
ATOM     16  C   UNL     1       1.162   1.843  19.375  0.00  0.00    +0.000 C 
ENDBRANCH  11  12
ENDBRANCH  10  11
ENDBRANCH   1   9
TORSDOF 4
ENDMDL
MODEL 8
REMARK VINA RESULT:      -5.9      1.993      2.560
REMARK  Name = 
REMARK  5 active torsions:
REMARK  status: ('A' for Active; 'I' for Inactive)
REMARK    1  A    between atoms: C_1  and  C_2
REMARK    2  A    between atoms: N_7  and  C_8
REMARK    3  A    between atoms: C_8  and  C_9
REMARK    4  A    between atoms: C_10  and  C_11
REMARK    5  A    between atoms: C_11  and  N_12
REMARK                            x       y       z     vdW  Elec       q    Type
REMARK                         _______ _______ _______ _____ _____    ______ ____
ROOT
ATOM      1  C   UNL     1       1.455   4.263  17.630  0.00  0.00    +0.000 C 
ENDROOT
BRANCH   1   8
ATOM      2  C   UNL     1       2.273   6.211  20.137  0.00  0.00    +0.000 C 
ATOM      3  C   UNL     1       2.344   4.693  20.028  0.00  0.00    +0.000 C 
ATOM      4  C   UNL     1       1.958   4.073  21.371  0.00  0.00    +0.000 C 
ATOM      5  C   UNL     1       1.444   2.694  21.013  0.00  0.00    +0.000 C 
ATOM      6  C   UNL     1       0.955   2.852  19.595  0.00  0.00    +0.000 C 
ATOM      7  O   UNL     1       0.311   2.012  18.991  0.00  0.00    +0.000 OA
ATOM      8  N   UNL     1       1.417   4.068  19.088  0.00  0.00    +0.000 N 
ENDBRANCH   1   8
BRANCH   1   9
ATOM      9  C   UNL     1       2.883   4.097  17.137  0.00  0.00    +0.000 C 
ATOM     10  C   UNL     1       4.108   3.955  16.714  0.00  0.00    +0.000 C 
BRANCH  10  11
ATOM     11  C   UNL     1       5.536   3.789  16.221  0.00  0.00    +0.000 C 
BRANCH  11  12
ATOM     12  N   UNL     1       6.034   5.048  15.649  0.00  0.00    +0.000 NA
ATOM     13  C   UNL     1       7.386   5.396  16.117  0.00  0.00    +0.000 C 
ATOM     14  C   UNL     1       7.170   6.137  17.419  0.00  0.00    +0.000 C 
ATOM     15  C   UNL     1       5.938   6.967  17.122  0.00  0.00    +0.000 C 
ATOM     16  C   UNL     1       5.177   6.177  16.059  0.00  0.00    +0.000 C 
ENDBRANCH  11  12
ENDBRANCH  10  11
ENDBRANCH   1   9
TORSDOF 4
ENDMDL
MODEL 9
REMARK VINA RESULT:      -5.9      2.373      3.371
REMARK  Name = 
REMARK  5 active torsions:
REMARK  status: ('A' for Active; 'I' for Inactive)
REMARK    1  A    between atoms: C_1  and  C_2
REMARK    2  A    between atoms: N_7  and  C_8
REMARK    3  A    between atoms: C_8  and  C_9
REMARK    4  A    between atoms: C_10  and  C_11
REMARK    5  A    between atoms: C_11  and  N_12
REMARK                            x       y       z     vdW  Elec       q    Type
REMARK                         _______ _______ _______ _____ _____    ______ ____
ROOT
ATOM      1  C   UNL     1       2.313   5.836  19.322  0.00  0.00    +0.000 C 
ENDROOT
BRANCH   1   8
ATOM      2  C   UNL     1       2.289   3.652  21.767  0.00  0.00    +0.000 C 
ATOM      3  C   UNL     1       2.495   3.430  20.274  0.00  0.00    +0.000 C 
ATOM      4  C   UNL     1       1.809   2.128  19.859  0.00  0.00    +0.000 C 
ATOM      5  C   UNL     1       1.509   2.316  18.386  0.00  0.00    +0.000 C 
ATOM      6  C   UNL     1       1.407   3.813  18.230  0.00  0.00    +0.000 C 
ATOM      7  O   UNL     1       1.010   4.375  17.225  0.00  0.00    +0.000 OA
ATOM      8  N   UNL     1       1.900   4.424  19.384  0.00  0.00    +0.000 N 
ENDBRANCH   1   8
BRANCH   1   9
ATOM      9  C   UNL     1       3.495   5.974  18.378  0.00  0.00    +0.000 C 
ATOM     10  C   UNL     1       4.510   6.092  17.568  0.00  0.00    +0.000 C 
BRANCH  10  11
ATOM     11  C   UNL     1       5.692   6.230  16.623  0.00  0.00    +0.000 C 
BRANCH  11  12
ATOM     12  N   UNL     1       6.333   4.924  16.404  0.00  0.00    +0.000 NA
ATOM     13  C   UNL     1       7.502   5.002  15.512  0.00  0.00    +0.000 C 
ATOM     14  C   UNL     1       6.934   4.896  14.113  0.00  0.00    +0.000 C 
ATOM     15  C   UNL     1       5.835   3.867  14.284  0.00  0.00    +0.000 C 
ATOM     16  C   UNL     1       5.397   3.994  15.742  0.00  0.00    +0.000 C 
ENDBRANCH  11  12
ENDBRANCH  10  11
ENDBRANCH   1   9
TORSDOF 4
ENDMDL
