MODEL 1
REMARK VINA RESULT:      -6.9      0.000      0.000
REMARK  Name = 
REMARK  7 active torsions:
REMARK  status: ('A' for Active; 'I' for Inactive)
REMARK    1  A    between atoms: C_1  and  O_2
REMARK    2  A    between atoms: O_2  and  C_3
REMARK    3  A    between atoms: C_7  and  C_8
REMARK    4  A    between atoms: C_8  and  N_9
REMARK    5  A    between atoms: N_16  and  C_17
REMARK    6  A    between atoms: C_17  and  C_18
REMARK    7  A    between atoms: C_21  and  C_22
REMARK                            x       y       z     vdW  Elec       q    Type
REMARK                         _______ _______ _______ _____ _____    ______ ____
ROOT
ATOM      1  N   UNL     1       1.901   8.155  19.022  0.00  0.00    +0.000 N 
ATOM      2  C   UNL     1       1.992   7.558  20.341  0.00  0.00    +0.000 C 
ATOM      3  C   UNL     1       0.895   8.096  21.246  0.00  0.00    +0.000 C 
ATOM      4  C   UNL     1       0.873   9.622  21.231  0.00  0.00    +0.000 C 
ATOM      5  C   UNL     1       0.916  10.232  19.818  0.00  0.00    +0.000 C 
ATOM      6  C   UNL     1       1.145  11.741  19.915  0.00  0.00    +0.000 C 
ATOM      7  C   UNL     1       0.311  12.350  18.804  0.00  0.00    +0.000 C 
ATOM      8  N   UNL     1      -0.784  11.420  18.522  0.00  0.00    +0.000 NA
ATOM      9  C   UNL     1      -0.418  10.099  19.052  0.00  0.00    +0.000 C 
ATOM     10  C   UNL     1       1.950   9.544  18.925  0.00  0.00    +0.000 C 
ATOM     11  O   UNL     1       2.565  10.150  18.053  0.00  0.00    +0.000 OA
ENDROOT
BRANCH   1  12
ATOM     12  C   UNL     1       2.078   7.335  17.835  0.00  0.00    +0.000 C 
BRANCH  12  17
ATOM     13  C   UNL     1       4.736   4.715  18.599  0.00  0.00    +0.000 A 
ATOM     14  C   UNL     1       3.993   3.542  18.450  0.00  0.00    +0.000 A 
ATOM     15  C   UNL     1       2.644   3.592  18.119  0.00  0.00    +0.000 A 
ATOM     16  C   UNL     1       2.029   4.824  17.923  0.00  0.00    +0.000 A 
ATOM     17  C   UNL     1       2.760   6.014  18.057  0.00  0.00    +0.000 A 
ATOM     18  C   UNL     1       4.116   5.952  18.410  0.00  0.00    +0.000 A 
BRANCH  13  20
ATOM     19  C   UNL     1       7.002   4.710  17.877  0.00  0.00    +0.000 C 
ATOM     20  O   UNL     1       6.053   4.517  18.916  0.00  0.00    +0.000 OA
ENDBRANCH  13  20
ENDBRANCH  12  17
ENDBRANCH   1  12
BRANCH   8  21
ATOM     21  C   UNL     1      -2.103  11.866  18.983  0.00  0.00    +0.000 C 
BRANCH  21  22
ATOM     22  C   UNL     1      -3.189  11.582  18.001  0.00  0.00    +0.000 A 
ATOM     23  C   UNL     1      -4.561  11.739  18.027  0.00  0.00    +0.000 A 
ATOM     24  C   UNL     1      -5.041  11.288  16.776  0.00  0.00    +0.000 A 
ATOM     25  C   UNL     1      -3.932  10.905  16.052  0.00  0.00    +0.000 A 
ATOM     26  C   UNL     1      -3.747  10.371  14.689  0.00  0.00    +0.000 C 
ATOM     27  O   UNL     1      -2.801  11.083  16.792  0.00  0.00    +0.000 OA
ENDBRANCH  21  22
ENDBRANCH   8  21
TORSDOF 5
ENDMDL
MODEL 2
REMARK VINA RESULT:      -6.9      2.785      5.110
REMARK  Name = 
REMARK  7 active torsions:
REMARK  status: ('A' for Active; 'I' for Inactive)
REMARK    1  A    between atoms: C_1  and  O_2
REMARK    2  A    between atoms: O_2  and  C_3
REMARK    3  A    between atoms: C_7  and  C_8
REMARK    4  A    between atoms: C_8  and  N_9
REMARK    5  A    between atoms: N_16  and  C_17
REMARK    6  A    between atoms: C_17  and  C_18
REMARK    7  A    between atoms: C_21  and  C_22
REMARK                            x       y       z     vdW  Elec       q    Type
REMARK                         _______ _______ _______ _____ _____    ______ ____
ROOT
ATOM      1  N   UNL     1       3.779   3.322  18.838  0.00  0.00    +0.000 N 
ATOM      2  C   UNL     1       2.792   2.265  18.724  0.00  0.00    +0.000 C 
ATOM      3  C   UNL     1       1.458   2.829  18.262  0.00  0.00    +0.000 C 
ATOM      4  C   UNL     1       1.035   4.012  19.128  0.00  0.00    +0.000 C 
ATOM      5  C   UNL     1       2.147   5.054  19.345  0.00  0.00    +0.000 C 
ATOM      6  C   UNL     1       1.713   6.056  20.417  0.00  0.00    +0.000 C 
ATOM      7  C   UNL     1       2.259   7.397  19.964  0.00  0.00    +0.000 C 
ATOM      8  N   UNL     1       2.405   7.337  18.508  0.00  0.00    +0.000 NA
ATOM      9  C   UNL     1       2.424   5.925  18.101  0.00  0.00    +0.000 C 
ATOM     10  C   UNL     1       3.492   4.401  19.671  0.00  0.00    +0.000 C 
ATOM     11  O   UNL     1       4.312   4.933  20.413  0.00  0.00    +0.000 OA
ENDROOT
BRANCH   1  12
ATOM     12  C   UNL     1       5.136   3.110  18.362  0.00  0.00    +0.000 C 
BRANCH  12  17
ATOM     13  C   UNL     1       6.849   5.893  16.404  0.00  0.00    +0.000 A 
ATOM     14  C   UNL     1       6.352   5.650  15.122  0.00  0.00    +0.000 A 
ATOM     15  C   UNL     1       5.483   4.592  14.884  0.00  0.00    +0.000 A 
ATOM     16  C   UNL     1       5.095   3.770  15.938  0.00  0.00    +0.000 A 
ATOM     17  C   UNL     1       5.573   4.003  17.236  0.00  0.00    +0.000 A 
ATOM     18  C   UNL     1       6.464   5.063  17.460  0.00  0.00    +0.000 A 
BRANCH  13  20
ATOM     19  C   UNL     1       7.757   7.629  17.751  0.00  0.00    +0.000 C 
ATOM     20  O   UNL     1       7.686   6.972  16.494  0.00  0.00    +0.000 OA
ENDBRANCH  13  20
ENDBRANCH  12  17
ENDBRANCH   1  12
BRANCH   8  21
ATOM     21  C   UNL     1       1.421   8.126  17.760  0.00  0.00    +0.000 C 
BRANCH  21  22
ATOM     22  C   UNL     1       1.319   9.535  18.238  0.00  0.00    +0.000 A 
ATOM     23  C   UNL     1       2.125  10.647  18.101  0.00  0.00    +0.000 A 
ATOM     24  C   UNL     1       1.477  11.702  18.784  0.00  0.00    +0.000 A 
ATOM     25  C   UNL     1       0.300  11.176  19.277  0.00  0.00    +0.000 A 
ATOM     26  C   UNL     1      -0.818  11.747  20.050  0.00  0.00    +0.000 C 
ATOM     27  O   UNL     1       0.198   9.858  18.946  0.00  0.00    +0.000 OA
ENDBRANCH  21  22
ENDBRANCH   8  21
TORSDOF 5
ENDMDL
MODEL 3
REMARK VINA RESULT:      -6.9      2.993      5.379
REMARK  Name = 
REMARK  7 active torsions:
REMARK  status: ('A' for Active; 'I' for Inactive)
REMARK    1  A    between atoms: C_1  and  O_2
REMARK    2  A    between atoms: O_2  and  C_3
REMARK    3  A    between atoms: C_7  and  C_8
REMARK    4  A    between atoms: C_8  and  N_9
REMARK    5  A    between atoms: N_16  and  C_17
REMARK    6  A    between atoms: C_17  and  C_18
REMARK    7  A    between atoms: C_21  and  C_22
REMARK                            x       y       z     vdW  Elec       q    Type
REMARK                         _______ _______ _______ _____ _____    ______ ____
ROOT
ATOM      1  N   UNL     1       4.038   3.551  18.910  0.00  0.00    +0.000 N 
ATOM      2  C   UNL     1       3.291   2.506  18.235  0.00  0.00    +0.000 C 
ATOM      3  C   UNL     1       2.211   3.110  17.350  0.00  0.00    +0.000 C 
ATOM      4  C   UNL     1       1.359   4.107  18.130  0.00  0.00    +0.000 C 
ATOM      5  C   UNL     1       2.180   5.122  18.949  0.00  0.00    +0.000 C 
ATOM      6  C   UNL     1       1.252   5.903  19.880  0.00  0.00    +0.000 C 
ATOM      7  C   UNL     1       1.801   7.317  19.907  0.00  0.00    +0.000 C 
ATOM      8  N   UNL     1       2.531   7.523  18.654  0.00  0.00    +0.000 NA
ATOM      9  C   UNL     1       2.851   6.209  18.082  0.00  0.00    +0.000 C 
ATOM     10  C   UNL     1       3.333   4.455  19.702  0.00  0.00    +0.000 C 
ATOM     11  O   UNL     1       3.725   4.866  20.790  0.00  0.00    +0.000 OA
ENDROOT
BRANCH   1  12
ATOM     12  C   UNL     1       5.485   3.462  19.017  0.00  0.00    +0.000 C 
BRANCH  12  17
ATOM     13  C   UNL     1       7.148   5.529  16.283  0.00  0.00    +0.000 A 
ATOM     14  C   UNL     1       7.695   6.567  17.041  0.00  0.00    +0.000 A 
ATOM     15  C   UNL     1       7.520   6.610  18.419  0.00  0.00    +0.000 A 
ATOM     16  C   UNL     1       6.801   5.603  19.054  0.00  0.00    +0.000 A 
ATOM     17  C   UNL     1       6.252   4.545  18.313  0.00  0.00    +0.000 A 
ATOM     18  C   UNL     1       6.420   4.522  16.920  0.00  0.00    +0.000 A 
BRANCH  13  20
ATOM     19  C   UNL     1       6.714   4.700  14.097  0.00  0.00    +0.000 C 
ATOM     20  O   UNL     1       7.408   5.608  14.942  0.00  0.00    +0.000 OA
ENDBRANCH  13  20
ENDBRANCH  12  17
ENDBRANCH   1  12
BRANCH   8  21
ATOM     21  C   UNL     1       1.864   8.409  17.694  0.00  0.00    +0.000 C 
BRANCH  21  22
ATOM     22  C   UNL     1       1.484   9.725  18.282  0.00  0.00    +0.000 A 
ATOM     23  C   UNL     1       0.439  10.145  19.081  0.00  0.00    +0.000 A 
ATOM     24  C   UNL     1       0.638  11.526  19.311  0.00  0.00    +0.000 A 
ATOM     25  C   UNL     1       1.806  11.862  18.658  0.00  0.00    +0.000 A 
ATOM     26  C   UNL     1       2.565  13.120  18.524  0.00  0.00    +0.000 C 
ATOM     27  O   UNL     1       2.326  10.770  18.031  0.00  0.00    +0.000 OA
ENDBRANCH  21  22
ENDBRANCH   8  21
TORSDOF 5
ENDMDL
MODEL 4
REMARK VINA RESULT:      -6.8      2.965      5.134
REMARK  Name = 
REMARK  7 active torsions:
REMARK  status: ('A' for Active; 'I' for Inactive)
REMARK    1  A    between atoms: C_1  and  O_2
REMARK    2  A    between atoms: O_2  and  C_3
REMARK    3  A    between atoms: C_7  and  C_8
REMARK    4  A    between atoms: C_8  and  N_9
REMARK    5  A    between atoms: N_16  and  C_17
REMARK    6  A    between atoms: C_17  and  C_18
REMARK    7  A    between atoms: C_21  and  C_22
REMARK                            x       y       z     vdW  Elec       q    Type
REMARK                         _______ _______ _______ _____ _____    ______ ____
ROOT
ATOM      1  N   UNL     1       3.714   3.351  18.846  0.00  0.00    +0.000 N 
ATOM      2  C   UNL     1       2.727   2.294  18.726  0.00  0.00    +0.000 C 
ATOM      3  C   UNL     1       1.392   2.861  18.271  0.00  0.00    +0.000 C 
ATOM      4  C   UNL     1       0.970   4.037  19.146  0.00  0.00    +0.000 C 
ATOM      5  C   UNL     1       2.083   5.079  19.369  0.00  0.00    +0.000 C 
ATOM      6  C   UNL     1       1.651   6.072  20.449  0.00  0.00    +0.000 C 
ATOM      7  C   UNL     1       2.195   7.416  20.005  0.00  0.00    +0.000 C 
ATOM      8  N   UNL     1       2.338   7.368  18.548  0.00  0.00    +0.000 NA
ATOM      9  C   UNL     1       2.357   5.959  18.131  0.00  0.00    +0.000 C 
ATOM     10  C   UNL     1       3.428   4.423  19.688  0.00  0.00    +0.000 C 
ATOM     11  O   UNL     1       4.250   4.950  20.431  0.00  0.00    +0.000 OA
ENDROOT
BRANCH   1  12
ATOM     12  C   UNL     1       5.070   3.142  18.365  0.00  0.00    +0.000 C 
BRANCH  12  17
ATOM     13  C   UNL     1       6.699   6.052  16.524  0.00  0.00    +0.000 A 
ATOM     14  C   UNL     1       6.318   5.772  15.210  0.00  0.00    +0.000 A 
ATOM     15  C   UNL     1       5.554   4.649  14.915  0.00  0.00    +0.000 A 
ATOM     16  C   UNL     1       5.155   3.799  15.941  0.00  0.00    +0.000 A 
ATOM     17  C   UNL     1       5.517   4.068  17.270  0.00  0.00    +0.000 A 
ATOM     18  C   UNL     1       6.304   5.194  17.553  0.00  0.00    +0.000 A 
BRANCH  13  20
ATOM     19  C   UNL     1       7.900   7.501  17.978  0.00  0.00    +0.000 C 
ATOM     20  O   UNL     1       7.440   7.193  16.669  0.00  0.00    +0.000 OA
ENDBRANCH  13  20
ENDBRANCH  12  17
ENDBRANCH   1  12
BRANCH   8  21
ATOM     21  C   UNL     1       1.352   8.162  17.808  0.00  0.00    +0.000 C 
BRANCH  21  22
ATOM     22  C   UNL     1       1.193   9.543  18.348  0.00  0.00    +0.000 A 
ATOM     23  C   UNL     1       0.301  10.124  19.226  0.00  0.00    +0.000 A 
ATOM     24  C   UNL     1       0.678  11.482  19.344  0.00  0.00    +0.000 A 
ATOM     25  C   UNL     1       1.794  11.643  18.548  0.00  0.00    +0.000 A 
ATOM     26  C   UNL     1       2.669  12.792  18.252  0.00  0.00    +0.000 C 
ATOM     27  O   UNL     1       2.113  10.465  17.940  0.00  0.00    +0.000 OA
ENDBRANCH  21  22
ENDBRANCH   8  21
TORSDOF 5
ENDMDL
MODEL 5
REMARK VINA RESULT:      -6.8      2.861      5.442
REMARK  Name = 
REMARK  7 active torsions:
REMARK  status: ('A' for Active; 'I' for Inactive)
REMARK    1  A    between atoms: C_1  and  O_2
REMARK    2  A    between atoms: O_2  and  C_3
REMARK    3  A    between atoms: C_7  and  C_8
REMARK    4  A    between atoms: C_8  and  N_9
REMARK    5  A    between atoms: N_16  and  C_17
REMARK    6  A    between atoms: C_17  and  C_18
REMARK    7  A    between atoms: C_21  and  C_22
REMARK                            x       y       z     vdW  Elec       q    Type
REMARK                         _______ _______ _______ _____ _____    ______ ____
ROOT
ATOM      1  N   UNL     1       4.526   4.102  18.104  0.00  0.00    +0.000 N 
ATOM      2  C   UNL     1       3.750   2.936  17.728  0.00  0.00    +0.000 C 
ATOM      3  C   UNL     1       2.355   3.345  17.281  0.00  0.00    +0.000 C 
ATOM      4  C   UNL     1       1.693   4.251  18.315  0.00  0.00    +0.000 C 
ATOM      5  C   UNL     1       2.592   5.405  18.799  0.00  0.00    +0.000 C 
ATOM      6  C   UNL     1       1.943   6.094  20.001  0.00  0.00    +0.000 C 
ATOM      7  C   UNL     1       2.258   7.569  19.841  0.00  0.00    +0.000 C 
ATOM      8  N   UNL     1       2.469   7.816  18.413  0.00  0.00    +0.000 NA
ATOM      9  C   UNL     1       2.756   6.533  17.758  0.00  0.00    +0.000 C 
ATOM     10  C   UNL     1       4.018   4.937  19.097  0.00  0.00    +0.000 C 
ATOM     11  O   UNL     1       4.700   5.447  19.981  0.00  0.00    +0.000 OA
ENDROOT
BRANCH   1  12
ATOM     12  C   UNL     1       5.916   4.217  17.697  0.00  0.00    +0.000 C 
BRANCH  12  17
ATOM     13  C   UNL     1       7.466   5.118  14.335  0.00  0.00    +0.000 A 
ATOM     14  C   UNL     1       6.540   4.542  13.461  0.00  0.00    +0.000 A 
ATOM     15  C   UNL     1       5.433   3.858  13.949  0.00  0.00    +0.000 A 
ATOM     16  C   UNL     1       5.238   3.754  15.322  0.00  0.00    +0.000 A 
ATOM     17  C   UNL     1       6.149   4.335  16.217  0.00  0.00    +0.000 A 
ATOM     18  C   UNL     1       7.273   5.007  15.714  0.00  0.00    +0.000 A 
BRANCH  13  20
ATOM     19  C   UNL     1       8.381   5.988  12.320  0.00  0.00    +0.000 C 
ATOM     20  O   UNL     1       8.500   5.769  13.718  0.00  0.00    +0.000 OA
ENDBRANCH  13  20
ENDBRANCH  12  17
ENDBRANCH   1  12
BRANCH   8  21
ATOM     21  C   UNL     1       1.390   8.557  17.752  0.00  0.00    +0.000 C 
BRANCH  21  22
ATOM     22  C   UNL     1       1.221   9.940  18.285  0.00  0.00    +0.000 A 
ATOM     23  C   UNL     1       0.266  10.545  19.077  0.00  0.00    +0.000 A 
ATOM     24  C   UNL     1       0.671  11.889  19.242  0.00  0.00    +0.000 A 
ATOM     25  C   UNL     1       1.864  12.019  18.560  0.00  0.00    +0.000 A 
ATOM     26  C   UNL     1       2.799  13.142  18.359  0.00  0.00    +0.000 C 
ATOM     27  O   UNL     1       2.204  10.835  17.976  0.00  0.00    +0.000 OA
ENDBRANCH  21  22
ENDBRANCH   8  21
TORSDOF 5
ENDMDL
MODEL 6
REMARK VINA RESULT:      -6.8      2.811      5.436
REMARK  Name = 
REMARK  7 active torsions:
REMARK  status: ('A' for Active; 'I' for Inactive)
REMARK    1  A    between atoms: C_1  and  O_2
REMARK    2  A    between atoms: O_2  and  C_3
REMARK    3  A    between atoms: C_7  and  C_8
REMARK    4  A    between atoms: C_8  and  N_9
REMARK    5  A    between atoms: N_16  and  C_17
REMARK    6  A    between atoms: C_17  and  C_18
REMARK    7  A    between atoms: C_21  and  C_22
REMARK                            x       y       z     vdW  Elec       q    Type
REMARK                         _______ _______ _______ _____ _____    ______ ____
ROOT
ATOM      1  N   UNL     1       3.952   3.481  18.844  0.00  0.00    +0.000 N 
ATOM      2  C   UNL     1       3.321   2.711  17.789  0.00  0.00    +0.000 C 
ATOM      3  C   UNL     1       2.271   3.548  17.075  0.00  0.00    +0.000 C 
ATOM      4  C   UNL     1       1.307   4.183  18.073  0.00  0.00    +0.000 C 
ATOM      5  C   UNL     1       2.004   4.878  19.258  0.00  0.00    +0.000 C 
ATOM      6  C   UNL     1       0.967   5.255  20.317  0.00  0.00    +0.000 C 
ATOM      7  C   UNL     1       1.425   6.590  20.875  0.00  0.00    +0.000 C 
ATOM      8  N   UNL     1       2.226   7.243  19.838  0.00  0.00    +0.000 NA
ATOM      9  C   UNL     1       2.666   6.220  18.879  0.00  0.00    +0.000 C 
ATOM     10  C   UNL     1       3.140   4.030  19.834  0.00  0.00    +0.000 C 
ATOM     11  O   UNL     1       3.429   4.051  21.026  0.00  0.00    +0.000 OA
ENDROOT
BRANCH   1  12
ATOM     12  C   UNL     1       5.391   3.409  19.040  0.00  0.00    +0.000 C 
BRANCH  12  17
ATOM     13  C   UNL     1       7.119   5.549  16.403  0.00  0.00    +0.000 A 
ATOM     14  C   UNL     1       7.685   6.542  17.207  0.00  0.00    +0.000 A 
ATOM     15  C   UNL     1       7.502   6.531  18.585  0.00  0.00    +0.000 A 
ATOM     16  C   UNL     1       6.756   5.515  19.172  0.00  0.00    +0.000 A 
ATOM     17  C   UNL     1       6.188   4.502  18.385  0.00  0.00    +0.000 A 
ATOM     18  C   UNL     1       6.363   4.533  16.994  0.00  0.00    +0.000 A 
BRANCH  13  20
ATOM     19  C   UNL     1       6.771   4.743  14.193  0.00  0.00    +0.000 C 
ATOM     20  O   UNL     1       7.387   5.678  15.068  0.00  0.00    +0.000 OA
ENDBRANCH  13  20
ENDBRANCH  12  17
ENDBRANCH   1  12
BRANCH   8  21
ATOM     21  C   UNL     1       1.575   8.383  19.186  0.00  0.00    +0.000 C 
BRANCH  21  22
ATOM     22  C   UNL     1       0.903   9.300  20.151  0.00  0.00    +0.000 A 
ATOM     23  C   UNL     1       1.048   9.529  21.505  0.00  0.00    +0.000 A 
ATOM     24  C   UNL     1       0.115  10.536  21.845  0.00  0.00    +0.000 A 
ATOM     25  C   UNL     1      -0.527  10.879  20.673  0.00  0.00    +0.000 A 
ATOM     26  C   UNL     1      -1.576  11.862  20.344  0.00  0.00    +0.000 C 
ATOM     27  O   UNL     1      -0.051  10.131  19.639  0.00  0.00    +0.000 OA
ENDBRANCH  21  22
ENDBRANCH   8  21
TORSDOF 5
ENDMDL
MODEL 7
REMARK VINA RESULT:      -6.8      2.836      5.285
REMARK  Name = 
REMARK  7 active torsions:
REMARK  status: ('A' for Active; 'I' for Inactive)
REMARK    1  A    between atoms: C_1  and  O_2
REMARK    2  A    between atoms: O_2  and  C_3
REMARK    3  A    between atoms: C_7  and  C_8
REMARK    4  A    between atoms: C_8  and  N_9
REMARK    5  A    between atoms: N_16  and  C_17
REMARK    6  A    between atoms: C_17  and  C_18
REMARK    7  A    between atoms: C_21  and  C_22
REMARK                            x       y       z     vdW  Elec       q    Type
REMARK                         _______ _______ _______ _____ _____    ______ ____
ROOT
ATOM      1  N   UNL     1       4.013   3.765  18.596  0.00  0.00    +0.000 N 
ATOM      2  C   UNL     1       3.131   2.620  18.471  0.00  0.00    +0.000 C 
ATOM      3  C   UNL     1       1.726   3.069  18.101  0.00  0.00    +0.000 C 
ATOM      4  C   UNL     1       1.233   4.159  19.047  0.00  0.00    +0.000 C 
ATOM      5  C   UNL     1       2.247   5.297  19.270  0.00  0.00    +0.000 C 
ATOM      6  C   UNL     1       1.771   6.196  20.412  0.00  0.00    +0.000 C 
ATOM      7  C   UNL     1       2.159   7.606  20.007  0.00  0.00    +0.000 C 
ATOM      8  N   UNL     1       2.236   7.632  18.545  0.00  0.00    +0.000 NA
ATOM      9  C   UNL     1       2.373   6.251  18.062  0.00  0.00    +0.000 C 
ATOM     10  C   UNL     1       3.664   4.768  19.499  0.00  0.00    +0.000 C 
ATOM     11  O   UNL     1       4.465   5.343  20.230  0.00  0.00    +0.000 OA
ENDROOT
BRANCH   1  12
ATOM     12  C   UNL     1       5.359   3.714  18.048  0.00  0.00    +0.000 C 
BRANCH  12  17
ATOM     13  C   UNL     1       6.010   4.016  14.307  0.00  0.00    +0.000 A 
ATOM     14  C   UNL     1       5.812   5.386  14.120  0.00  0.00    +0.000 A 
ATOM     15  C   UNL     1       5.459   6.205  15.185  0.00  0.00    +0.000 A 
ATOM     16  C   UNL     1       5.311   5.657  16.455  0.00  0.00    +0.000 A 
ATOM     17  C   UNL     1       5.516   4.286  16.668  0.00  0.00    +0.000 A 
ATOM     18  C   UNL     1       5.854   3.465  15.581  0.00  0.00    +0.000 A 
BRANCH  13  20
ATOM     19  C   UNL     1       5.420   3.317  12.112  0.00  0.00    +0.000 C 
ATOM     20  O   UNL     1       6.363   3.333  13.175  0.00  0.00    +0.000 OA
ENDBRANCH  13  20
ENDBRANCH  12  17
ENDBRANCH   1  12
BRANCH   8  21
ATOM     21  C   UNL     1       1.142   8.354  17.886  0.00  0.00    +0.000 C 
BRANCH  21  22
ATOM     22  C   UNL     1       1.002   9.760  18.361  0.00  0.00    +0.000 A 
ATOM     23  C   UNL     1       0.034  10.429  19.083  0.00  0.00    +0.000 A 
ATOM     24  C   UNL     1       0.483  11.762  19.221  0.00  0.00    +0.000 A 
ATOM     25  C   UNL     1       1.712  11.822  18.596  0.00  0.00    +0.000 A 
ATOM     26  C   UNL     1       2.699  12.901  18.405  0.00  0.00    +0.000 C 
ATOM     27  O   UNL     1       2.033  10.606  18.072  0.00  0.00    +0.000 OA
ENDBRANCH  21  22
ENDBRANCH   8  21
TORSDOF 5
ENDMDL
MODEL 8
REMARK VINA RESULT:      -6.7      2.704      5.282
REMARK  Name = 
REMARK  7 active torsions:
REMARK  status: ('A' for Active; 'I' for Inactive)
REMARK    1  A    between atoms: C_1  and  O_2
REMARK    2  A    between atoms: O_2  and  C_3
REMARK    3  A    between atoms: C_7  and  C_8
REMARK    4  A    between atoms: C_8  and  N_9
REMARK    5  A    between atoms: N_16  and  C_17
REMARK    6  A    between atoms: C_17  and  C_18
REMARK    7  A    between atoms: C_21  and  C_22
REMARK                            x       y       z     vdW  Elec       q    Type
REMARK                         _______ _______ _______ _____ _____    ______ ____
ROOT
ATOM      1  N   UNL     1       4.046   3.564  18.930  0.00  0.00    +0.000 N 
ATOM      2  C   UNL     1       3.290   2.518  18.266  0.00  0.00    +0.000 C 
ATOM      3  C   UNL     1       2.206   3.121  17.387  0.00  0.00    +0.000 C 
ATOM      4  C   UNL     1       1.364   4.126  18.168  0.00  0.00    +0.000 C 
ATOM      5  C   UNL     1       2.195   5.142  18.974  0.00  0.00    +0.000 C 
ATOM      6  C   UNL     1       1.277   5.932  19.909  0.00  0.00    +0.000 C 
ATOM      7  C   UNL     1       1.832   7.344  19.923  0.00  0.00    +0.000 C 
ATOM      8  N   UNL     1       2.552   7.541  18.664  0.00  0.00    +0.000 NA
ATOM      9  C   UNL     1       2.863   6.222  18.096  0.00  0.00    +0.000 C 
ATOM     10  C   UNL     1       3.351   4.475  19.722  0.00  0.00    +0.000 C 
ATOM     11  O   UNL     1       3.753   4.891  20.805  0.00  0.00    +0.000 OA
ENDROOT
BRANCH   1  12
ATOM     12  C   UNL     1       5.493   3.470  19.026  0.00  0.00    +0.000 C 
BRANCH  12  17
ATOM     13  C   UNL     1       7.112   5.580  16.298  0.00  0.00    +0.000 A 
ATOM     14  C   UNL     1       7.700   6.587  17.066  0.00  0.00    +0.000 A 
ATOM     15  C   UNL     1       7.567   6.597  18.449  0.00  0.00    +0.000 A 
ATOM     16  C   UNL     1       6.848   5.586  19.079  0.00  0.00    +0.000 A 
ATOM     17  C   UNL     1       6.259   4.557  18.327  0.00  0.00    +0.000 A 
ATOM     18  C   UNL     1       6.385   4.568  16.931  0.00  0.00    +0.000 A 
BRANCH  13  20
ATOM     19  C   UNL     1       6.764   4.686  14.122  0.00  0.00    +0.000 C 
ATOM     20  O   UNL     1       7.333   5.689  14.952  0.00  0.00    +0.000 OA
ENDBRANCH  13  20
ENDBRANCH  12  17
ENDBRANCH   1  12
BRANCH   8  21
ATOM     21  C   UNL     1       1.881   8.423  17.704  0.00  0.00    +0.000 C 
BRANCH  21  22
ATOM     22  C   UNL     1       1.526   9.750  18.283  0.00  0.00    +0.000 A 
ATOM     23  C   UNL     1       2.166  10.973  18.325  0.00  0.00    +0.000 A 
ATOM     24  C   UNL     1       1.306  11.854  19.019  0.00  0.00    +0.000 A 
ATOM     25  C   UNL     1       0.180  11.123  19.339  0.00  0.00    +0.000 A 
ATOM     26  C   UNL     1      -1.078  11.454  20.033  0.00  0.00    +0.000 C 
ATOM     27  O   UNL     1       0.308   9.842  18.892  0.00  0.00    +0.000 OA
ENDBRANCH  21  22
ENDBRANCH   8  21
TORSDOF 5
ENDMDL
MODEL 9
REMARK VINA RESULT:      -6.7      1.080      1.249
REMARK  Name = 
REMARK  7 active torsions:
REMARK  status: ('A' for Active; 'I' for Inactive)
REMARK    1  A    between atoms: C_1  and  O_2
REMARK    2  A    between atoms: O_2  and  C_3
REMARK    3  A    between atoms: C_7  and  C_8
REMARK    4  A    between atoms: C_8  and  N_9
REMARK    5  A    between atoms: N_16  and  C_17
REMARK    6  A    between atoms: C_17  and  C_18
REMARK    7  A    between atoms: C_21  and  C_22
REMARK                            x       y       z     vdW  Elec       q    Type
REMARK                         _______ _______ _______ _____ _____    ______ ____
ROOT
ATOM      1  N   UNL     1       1.845   8.125  19.047  0.00  0.00    +0.000 N 
ATOM      2  C   UNL     1       1.973   7.578  20.384  0.00  0.00    +0.000 C 
ATOM      3  C   UNL     1       0.915   8.166  21.304  0.00  0.00    +0.000 C 
ATOM      4  C   UNL     1       0.913   9.690  21.232  0.00  0.00    +0.000 C 
ATOM      5  C   UNL     1       0.915  10.246  19.795  0.00  0.00    +0.000 C 
ATOM      6  C   UNL     1       1.168  11.754  19.826  0.00  0.00    +0.000 C 
ATOM      7  C   UNL     1       0.304  12.332  18.721  0.00  0.00    +0.000 C 
ATOM      8  N   UNL     1      -0.812  11.407  18.512  0.00  0.00    +0.000 NA
ATOM      9  C   UNL     1      -0.445  10.103  19.080  0.00  0.00    +0.000 C 
ATOM     10  C   UNL     1       1.909   9.509  18.895  0.00  0.00    +0.000 C 
ATOM     11  O   UNL     1       2.502  10.072  17.980  0.00  0.00    +0.000 OA
ENDROOT
BRANCH   1  12
ATOM     12  C   UNL     1       1.971   7.258  17.887  0.00  0.00    +0.000 C 
BRANCH  12  17
ATOM     13  C   UNL     1       5.623   6.441  17.172  0.00  0.00    +0.000 A 
ATOM     14  C   UNL     1       5.669   5.101  17.565  0.00  0.00    +0.000 A 
ATOM     15  C   UNL     1       4.539   4.468  18.068  0.00  0.00    +0.000 A 
ATOM     16  C   UNL     1       3.344   5.173  18.173  0.00  0.00    +0.000 A 
ATOM     17  C   UNL     1       3.272   6.516  17.773  0.00  0.00    +0.000 A 
ATOM     18  C   UNL     1       4.424   7.150  17.284  0.00  0.00    +0.000 A 
BRANCH  13  20
ATOM     19  C   UNL     1       7.631   7.641  17.600  0.00  0.00    +0.000 C 
ATOM     20  O   UNL     1       6.804   6.932  16.687  0.00  0.00    +0.000 OA
ENDBRANCH  13  20
ENDBRANCH  12  17
ENDBRANCH   1  12
BRANCH   8  21
ATOM     21  C   UNL     1      -2.108  11.890  18.999  0.00  0.00    +0.000 C 
BRANCH  21  22
ATOM     22  C   UNL     1      -3.223  11.626  18.045  0.00  0.00    +0.000 A 
ATOM     23  C   UNL     1      -4.590  11.817  18.101  0.00  0.00    +0.000 A 
ATOM     24  C   UNL     1      -5.110  11.370  16.865  0.00  0.00    +0.000 A 
ATOM     25  C   UNL     1      -4.028  10.955  16.118  0.00  0.00    +0.000 A 
ATOM     26  C   UNL     1      -3.888  10.408  14.755  0.00  0.00    +0.000 C 
ATOM     27  O   UNL     1      -2.876  11.110  16.830  0.00  0.00    +0.000 OA
ENDBRANCH  21  22
ENDBRANCH   8  21
TORSDOF 5
ENDMDL
