MODEL 1
REMARK VINA RESULT:      -7.9      0.000      0.000
REMARK  Name = 
REMARK  3 active torsions:
REMARK  status: ('A' for Active; 'I' for Inactive)
REMARK    1  A    between atoms: C_1  and  C_2
REMARK    2  A    between atoms: C_5  and  C_6
REMARK    3  A    between atoms: C_6  and  N_7
REMARK                            x       y       z     vdW  Elec       q    Type
REMARK                         _______ _______ _______ _____ _____    ______ ____
ROOT
ATOM      1  N   UNL     1       5.257   4.662  18.456  0.00  0.00    +0.000 NA
ATOM      2  C   UNL     1       6.301   5.418  19.204  0.00  0.00    +0.000 C 
ATOM      3  C   UNL     1       7.342   5.918  18.201  0.00  0.00    +0.000 C 
ATOM      4  C   UNL     1       6.684   5.656  16.866  0.00  0.00    +0.000 C 
ATOM      5  N   UNL     1       7.568   5.493  15.751  0.00  0.00    +0.000 N 
ATOM      6  C   UNL     1       7.038   5.062  14.564  0.00  0.00    +0.000 C 
ATOM      7  O   UNL     1       7.558   5.399  13.504  0.00  0.00    +0.000 OA
ATOM      8  C   UNL     1       5.860   4.096  14.619  0.00  0.00    +0.000 C 
ATOM      9  C   UNL     1       5.065   4.005  15.931  0.00  0.00    +0.000 C 
ATOM     10  C   UNL     1       5.894   4.387  17.152  0.00  0.00    +0.000 C 
ATOM     11  H   UNL     1       8.311   6.169  15.621  0.00  0.00    +0.000 HD
ENDROOT
BRANCH   1  12
ATOM     12  C   UNL     1       3.985   5.416  18.366  0.00  0.00    +0.000 C 
BRANCH  12  17
ATOM     13  C   UNL     1       1.435   2.748  21.461  0.00  0.00    +0.000 C 
ATOM     14  C   UNL     1       1.654   3.347  20.129  0.00  0.00    +0.000 A 
ATOM     15  C   UNL     1       1.069   3.173  18.894  0.00  0.00    +0.000 A 
ATOM     16  C   UNL     1       1.798   3.983  17.989  0.00  0.00    +0.000 A 
ATOM     17  C   UNL     1       2.805   4.574  18.724  0.00  0.00    +0.000 A 
ATOM     18  O   UNL     1       2.666   4.249  20.042  0.00  0.00    +0.000 OA
ENDBRANCH  12  17
ENDBRANCH   1  12
TORSDOF 2
ENDMDL
MODEL 2
REMARK VINA RESULT:      -7.8      0.774      1.156
REMARK  Name = 
REMARK  3 active torsions:
REMARK  status: ('A' for Active; 'I' for Inactive)
REMARK    1  A    between atoms: C_1  and  C_2
REMARK    2  A    between atoms: C_5  and  C_6
REMARK    3  A    between atoms: C_6  and  N_7
REMARK                            x       y       z     vdW  Elec       q    Type
REMARK                         _______ _______ _______ _____ _____    ______ ____
ROOT
ATOM      1  N   UNL     1       5.388   4.793  18.681  0.00  0.00    +0.000 NA
ATOM      2  C   UNL     1       6.533   5.473  19.351  0.00  0.00    +0.000 C 
ATOM      3  C   UNL     1       7.540   5.887  18.275  0.00  0.00    +0.000 C 
ATOM      4  C   UNL     1       6.777   5.667  16.990  0.00  0.00    +0.000 C 
ATOM      5  N   UNL     1       7.570   5.431  15.821  0.00  0.00    +0.000 N 
ATOM      6  C   UNL     1       6.933   5.034  14.676  0.00  0.00    +0.000 C 
ATOM      7  O   UNL     1       7.404   5.323  13.580  0.00  0.00    +0.000 OA
ATOM      8  C   UNL     1       5.692   4.159  14.819  0.00  0.00    +0.000 C 
ATOM      9  C   UNL     1       4.980   4.137  16.182  0.00  0.00    +0.000 C 
ATOM     10  C   UNL     1       5.916   4.462  17.341  0.00  0.00    +0.000 C 
ATOM     11  H   UNL     1       8.352   6.048  15.634  0.00  0.00    +0.000 HD
ENDROOT
BRANCH   1  12
ATOM     12  C   UNL     1       4.173   5.640  18.667  0.00  0.00    +0.000 C 
BRANCH  12  17
ATOM     13  C   UNL     1       0.708   2.300  18.840  0.00  0.00    +0.000 C 
ATOM     14  C   UNL     1       1.427   3.462  19.399  0.00  0.00    +0.000 A 
ATOM     15  C   UNL     1       1.175   4.336  20.433  0.00  0.00    +0.000 A 
ATOM     16  C   UNL     1       2.213   5.300  20.404  0.00  0.00    +0.000 A 
ATOM     17  C   UNL     1       3.014   4.973  19.329  0.00  0.00    +0.000 A 
ATOM     18  O   UNL     1       2.581   3.806  18.769  0.00  0.00    +0.000 OA
ENDBRANCH  12  17
ENDBRANCH   1  12
TORSDOF 2
ENDMDL
MODEL 3
REMARK VINA RESULT:      -7.5      0.884      1.113
REMARK  Name = 
REMARK  3 active torsions:
REMARK  status: ('A' for Active; 'I' for Inactive)
REMARK    1  A    between atoms: C_1  and  C_2
REMARK    2  A    between atoms: C_5  and  C_6
REMARK    3  A    between atoms: C_6  and  N_7
REMARK                            x       y       z     vdW  Elec       q    Type
REMARK                         _______ _______ _______ _____ _____    ______ ____
ROOT
ATOM      1  N   UNL     1       5.180   4.415  18.007  0.00  0.00    +0.000 NA
ATOM      2  C   UNL     1       6.094   5.245  18.842  0.00  0.00    +0.000 C 
ATOM      3  C   UNL     1       7.149   5.867  17.925  0.00  0.00    +0.000 C 
ATOM      4  C   UNL     1       6.612   5.579  16.542  0.00  0.00    +0.000 C 
ATOM      5  N   UNL     1       7.582   5.529  15.489  0.00  0.00    +0.000 N 
ATOM      6  C   UNL     1       7.178   5.082  14.260  0.00  0.00    +0.000 C 
ATOM      7  O   UNL     1       7.735   5.493  13.245  0.00  0.00    +0.000 OA
ATOM      8  C   UNL     1       6.096   4.009  14.212  0.00  0.00    +0.000 C 
ATOM      9  C   UNL     1       5.225   3.809  15.462  0.00  0.00    +0.000 C 
ATOM     10  C   UNL     1       5.929   4.235  16.746  0.00  0.00    +0.000 C 
ATOM     11  H   UNL     1       8.264   6.275  15.425  0.00  0.00    +0.000 HD
ENDROOT
BRANCH   1  12
ATOM     12  C   UNL     1       3.852   5.049  17.843  0.00  0.00    +0.000 C 
BRANCH  12  17
ATOM     13  C   UNL     1       1.632   2.833  21.497  0.00  0.00    +0.000 C 
ATOM     14  C   UNL     1       2.048   4.048  20.770  0.00  0.00    +0.000 A 
ATOM     15  C   UNL     1       1.716   5.382  20.865  0.00  0.00    +0.000 A 
ATOM     16  C   UNL     1       2.395   6.040  19.811  0.00  0.00    +0.000 A 
ATOM     17  C   UNL     1       3.072   5.059  19.115  0.00  0.00    +0.000 A 
ATOM     18  O   UNL     1       2.925   3.859  19.749  0.00  0.00    +0.000 OA
ENDBRANCH  12  17
ENDBRANCH   1  12
TORSDOF 2
ENDMDL
MODEL 4
REMARK VINA RESULT:      -7.1      3.201      4.187
REMARK  Name = 
REMARK  3 active torsions:
REMARK  status: ('A' for Active; 'I' for Inactive)
REMARK    1  A    between atoms: C_1  and  C_2
REMARK    2  A    between atoms: C_5  and  C_6
REMARK    3  A    between atoms: C_6  and  N_7
REMARK                            x       y       z     vdW  Elec       q    Type
REMARK                         _______ _______ _______ _____ _____    ______ ____
ROOT
ATOM      1  N   UNL     1       2.911   5.708  17.743  0.00  0.00    +0.000 NA
ATOM      2  C   UNL     1       2.399   4.319  17.918  0.00  0.00    +0.000 C 
ATOM      3  C   UNL     1       3.588   3.357  17.848  0.00  0.00    +0.000 C 
ATOM      4  C   UNL     1       4.780   4.283  17.915  0.00  0.00    +0.000 C 
ATOM      5  N   UNL     1       5.993   3.788  17.336  0.00  0.00    +0.000 N 
ATOM      6  C   UNL     1       7.044   4.655  17.196  0.00  0.00    +0.000 C 
ATOM      7  O   UNL     1       8.196   4.233  17.230  0.00  0.00    +0.000 OA
ATOM      8  C   UNL     1       6.725   6.119  16.911  0.00  0.00    +0.000 C 
ATOM      9  C   UNL     1       5.308   6.622  17.227  0.00  0.00    +0.000 C 
ATOM     10  C   UNL     1       4.264   5.512  17.181  0.00  0.00    +0.000 C 
ATOM     11  H   UNL     1       6.295   2.851  17.574  0.00  0.00    +0.000 HD
ENDROOT
BRANCH   1  12
ATOM     12  C   UNL     1       2.883   6.471  19.012  0.00  0.00    +0.000 C 
BRANCH  12  17
ATOM     13  C   UNL     1       0.138  10.119  20.546  0.00  0.00    +0.000 C 
ATOM     14  C   UNL     1       0.999   9.471  19.537  0.00  0.00    +0.000 A 
ATOM     15  C   UNL     1       1.288   9.732  18.217  0.00  0.00    +0.000 A 
ATOM     16  C   UNL     1       2.123   8.677  17.774  0.00  0.00    +0.000 A 
ATOM     17  C   UNL     1       2.262   7.818  18.844  0.00  0.00    +0.000 A 
ATOM     18  O   UNL     1       1.644   8.345  19.941  0.00  0.00    +0.000 OA
ENDBRANCH  12  17
ENDBRANCH   1  12
TORSDOF 2
ENDMDL
MODEL 5
REMARK VINA RESULT:      -7.0      1.922      6.273
REMARK  Name = 
REMARK  3 active torsions:
REMARK  status: ('A' for Active; 'I' for Inactive)
REMARK    1  A    between atoms: C_1  and  C_2
REMARK    2  A    between atoms: C_5  and  C_6
REMARK    3  A    between atoms: C_6  and  N_7
REMARK                            x       y       z     vdW  Elec       q    Type
REMARK                         _______ _______ _______ _____ _____    ______ ____
ROOT
ATOM      1  N   UNL     1       3.590   4.823  17.577  0.00  0.00    +0.000 NA
ATOM      2  C   UNL     1       3.548   6.231  18.062  0.00  0.00    +0.000 C 
ATOM      3  C   UNL     1       2.909   6.241  19.452  0.00  0.00    +0.000 C 
ATOM      4  C   UNL     1       2.868   4.776  19.820  0.00  0.00    +0.000 C 
ATOM      5  N   UNL     1       1.867   4.395  20.770  0.00  0.00    +0.000 N 
ATOM      6  C   UNL     1       1.659   3.059  20.990  0.00  0.00    +0.000 C 
ATOM      7  O   UNL     1       1.261   2.673  22.085  0.00  0.00    +0.000 OA
ATOM      8  C   UNL     1       1.850   2.107  19.814  0.00  0.00    +0.000 C 
ATOM      9  C   UNL     1       2.666   2.604  18.611  0.00  0.00    +0.000 C 
ATOM     10  C   UNL     1       2.639   4.121  18.465  0.00  0.00    +0.000 C 
ATOM     11  H   UNL     1       1.768   4.945  21.615  0.00  0.00    +0.000 HD
ENDROOT
BRANCH   1  12
ATOM     12  C   UNL     1       4.964   4.271  17.596  0.00  0.00    +0.000 C 
BRANCH  12  17
ATOM     13  C   UNL     1       5.630   3.574  12.877  0.00  0.00    +0.000 C 
ATOM     14  C   UNL     1       5.999   4.186  14.169  0.00  0.00    +0.000 A 
ATOM     15  C   UNL     1       7.094   4.891  14.615  0.00  0.00    +0.000 A 
ATOM     16  C   UNL     1       6.884   5.126  15.996  0.00  0.00    +0.000 A 
ATOM     17  C   UNL     1       5.687   4.517  16.314  0.00  0.00    +0.000 A 
ATOM     18  O   UNL     1       5.110   4.016  15.183  0.00  0.00    +0.000 OA
ENDBRANCH  12  17
ENDBRANCH   1  12
TORSDOF 2
ENDMDL
MODEL 6
REMARK VINA RESULT:      -6.9      1.585      1.918
REMARK  Name = 
REMARK  3 active torsions:
REMARK  status: ('A' for Active; 'I' for Inactive)
REMARK    1  A    between atoms: C_1  and  C_2
REMARK    2  A    between atoms: C_5  and  C_6
REMARK    3  A    between atoms: C_6  and  N_7
REMARK                            x       y       z     vdW  Elec       q    Type
REMARK                         _______ _______ _______ _____ _____    ______ ____
ROOT
ATOM      1  N   UNL     1       4.861   4.467  17.946  0.00  0.00    +0.000 NA
ATOM      2  C   UNL     1       5.651   5.299  18.898  0.00  0.00    +0.000 C 
ATOM      3  C   UNL     1       6.811   5.936  18.130  0.00  0.00    +0.000 C 
ATOM      4  C   UNL     1       6.462   5.655  16.687  0.00  0.00    +0.000 C 
ATOM      5  N   UNL     1       7.561   5.620  15.770  0.00  0.00    +0.000 N 
ATOM      6  C   UNL     1       7.326   5.179  14.496  0.00  0.00    +0.000 C 
ATOM      7  O   UNL     1       8.006   5.602  13.565  0.00  0.00    +0.000 OA
ATOM      8  C   UNL     1       6.269   4.098  14.300  0.00  0.00    +0.000 C 
ATOM      9  C   UNL     1       5.244   3.881  15.425  0.00  0.00    +0.000 C 
ATOM     10  C   UNL     1       5.770   4.303  16.792  0.00  0.00    +0.000 C 
ATOM     11  H   UNL     1       8.239   6.372  15.800  0.00  0.00    +0.000 HD
ENDROOT
BRANCH   1  12
ATOM     12  C   UNL     1       3.560   5.092  17.613  0.00  0.00    +0.000 C 
BRANCH  12  17
ATOM     13  C   UNL     1       1.535   8.017  20.859  0.00  0.00    +0.000 C 
ATOM     14  C   UNL     1       1.822   6.675  20.313  0.00  0.00    +0.000 A 
ATOM     15  C   UNL     1       1.652   5.393  20.787  0.00  0.00    +0.000 A 
ATOM     16  C   UNL     1       2.218   4.530  19.817  0.00  0.00    +0.000 A 
ATOM     17  C   UNL     1       2.730   5.343  18.827  0.00  0.00    +0.000 A 
ATOM     18  O   UNL     1       2.415   6.645  19.091  0.00  0.00    +0.000 OA
ENDBRANCH  12  17
ENDBRANCH   1  12
TORSDOF 2
ENDMDL
MODEL 7
REMARK VINA RESULT:      -6.8      2.281      5.989
REMARK  Name = 
REMARK  3 active torsions:
REMARK  status: ('A' for Active; 'I' for Inactive)
REMARK    1  A    between atoms: C_1  and  C_2
REMARK    2  A    between atoms: C_5  and  C_6
REMARK    3  A    between atoms: C_6  and  N_7
REMARK                            x       y       z     vdW  Elec       q    Type
REMARK                         _______ _______ _______ _____ _____    ______ ____
ROOT
ATOM      1  N   UNL     1       2.785   4.910  17.555  0.00  0.00    +0.000 NA
ATOM      2  C   UNL     1       3.217   6.198  18.167  0.00  0.00    +0.000 C 
ATOM      3  C   UNL     1       3.023   6.099  19.682  0.00  0.00    +0.000 C 
ATOM      4  C   UNL     1       2.745   4.629  19.895  0.00  0.00    +0.000 C 
ATOM      5  N   UNL     1       1.997   4.296  21.069  0.00  0.00    +0.000 N 
ATOM      6  C   UNL     1       1.551   3.008  21.208  0.00  0.00    +0.000 C 
ATOM      7  O   UNL     1       1.404   2.528  22.329  0.00  0.00    +0.000 OA
ATOM      8  C   UNL     1       1.168   2.247  19.944  0.00  0.00    +0.000 C 
ATOM      9  C   UNL     1       1.699   2.771  18.600  0.00  0.00    +0.000 C 
ATOM     10  C   UNL     1       1.991   4.267  18.623  0.00  0.00    +0.000 C 
ATOM     11  H   UNL     1       2.277   4.705  21.953  0.00  0.00    +0.000 HD
ENDROOT
BRANCH   1  12
ATOM     12  C   UNL     1       3.936   4.106  17.084  0.00  0.00    +0.000 C 
BRANCH  12  17
ATOM     13  C   UNL     1       7.886   5.783  19.272  0.00  0.00    +0.000 C 
ATOM     14  C   UNL     1       6.998   5.662  18.098  0.00  0.00    +0.000 A 
ATOM     15  C   UNL     1       6.923   6.309  16.885  0.00  0.00    +0.000 A 
ATOM     16  C   UNL     1       5.780   5.792  16.226  0.00  0.00    +0.000 A 
ATOM     17  C   UNL     1       5.209   4.887  17.096  0.00  0.00    +0.000 A 
ATOM     18  O   UNL     1       5.998   4.749  18.202  0.00  0.00    +0.000 OA
ENDBRANCH  12  17
ENDBRANCH   1  12
TORSDOF 2
ENDMDL
MODEL 8
REMARK VINA RESULT:      -6.7      3.063      4.165
REMARK  Name = 
REMARK  3 active torsions:
REMARK  status: ('A' for Active; 'I' for Inactive)
REMARK    1  A    between atoms: C_1  and  C_2
REMARK    2  A    between atoms: C_5  and  C_6
REMARK    3  A    between atoms: C_6  and  N_7
REMARK                            x       y       z     vdW  Elec       q    Type
REMARK                         _______ _______ _______ _____ _____    ______ ____
ROOT
ATOM      1  N   UNL     1       2.829   5.634  18.031  0.00  0.00    +0.000 NA
ATOM      2  C   UNL     1       2.299   4.249  17.885  0.00  0.00    +0.000 C 
ATOM      3  C   UNL     1       3.450   3.338  17.451  0.00  0.00    +0.000 C 
ATOM      4  C   UNL     1       4.668   4.212  17.642  0.00  0.00    +0.000 C 
ATOM      5  N   UNL     1       5.808   3.886  16.839  0.00  0.00    +0.000 N 
ATOM      6  C   UNL     1       6.863   4.758  16.830  0.00  0.00    +0.000 C 
ATOM      7  O   UNL     1       8.002   4.340  16.640  0.00  0.00    +0.000 OA
ATOM      8  C   UNL     1       6.559   6.245  16.970  0.00  0.00    +0.000 C 
ATOM      9  C   UNL     1       5.191   6.649  17.542  0.00  0.00    +0.000 C 
ATOM     10  C   UNL     1       4.118   5.591  17.308  0.00  0.00    +0.000 C 
ATOM     11  H   UNL     1       6.105   2.918  16.793  0.00  0.00    +0.000 HD
ENDROOT
BRANCH   1  12
ATOM     12  C   UNL     1       2.940   6.037  19.452  0.00  0.00    +0.000 C 
BRANCH  12  17
ATOM     13  C   UNL     1       1.267  10.436  18.425  0.00  0.00    +0.000 C 
ATOM     14  C   UNL     1       1.366   9.250  19.299  0.00  0.00    +0.000 A 
ATOM     15  C   UNL     1       0.985   8.984  20.596  0.00  0.00    +0.000 A 
ATOM     16  C   UNL     1       1.448   7.677  20.888  0.00  0.00    +0.000 A 
ATOM     17  C   UNL     1       2.114   7.242  19.761  0.00  0.00    +0.000 A 
ATOM     18  O   UNL     1       1.992   8.169  18.766  0.00  0.00    +0.000 OA
ENDBRANCH  12  17
ENDBRANCH   1  12
TORSDOF 2
ENDMDL
MODEL 9
REMARK VINA RESULT:      -6.5      1.619      2.311
REMARK  Name = 
REMARK  3 active torsions:
REMARK  status: ('A' for Active; 'I' for Inactive)
REMARK    1  A    between atoms: C_1  and  C_2
REMARK    2  A    between atoms: C_5  and  C_6
REMARK    3  A    between atoms: C_6  and  N_7
REMARK                            x       y       z     vdW  Elec       q    Type
REMARK                         _______ _______ _______ _____ _____    ______ ____
ROOT
ATOM      1  N   UNL     1       2.964   5.986  18.546  0.00  0.00    +0.000 NA
ATOM      2  C   UNL     1       2.685   7.421  18.258  0.00  0.00    +0.000 C 
ATOM      3  C   UNL     1       3.799   7.954  17.353  0.00  0.00    +0.000 C 
ATOM      4  C   UNL     1       4.527   6.698  16.933  0.00  0.00    +0.000 C 
ATOM      5  N   UNL     1       5.898   6.865  16.555  0.00  0.00    +0.000 N 
ATOM      6  C   UNL     1       6.655   5.742  16.355  0.00  0.00    +0.000 C 
ATOM      7  O   UNL     1       7.590   5.766  15.560  0.00  0.00    +0.000 OA
ATOM      8  C   UNL     1       6.351   4.517  17.211  0.00  0.00    +0.000 C 
ATOM      9  C   UNL     1       4.983   4.448  17.908  0.00  0.00    +0.000 C 
ATOM     10  C   UNL     1       4.385   5.826  18.172  0.00  0.00    +0.000 C 
ATOM     11  H   UNL     1       6.135   7.610  15.910  0.00  0.00    +0.000 HD
ENDROOT
BRANCH   1  12
ATOM     12  C   UNL     1       2.038   5.085  17.822  0.00  0.00    +0.000 C 
BRANCH  12  17
ATOM     13  C   UNL     1       1.560   2.621  21.932  0.00  0.00    +0.000 C 
ATOM     14  C   UNL     1       1.555   2.711  20.459  0.00  0.00    +0.000 A 
ATOM     15  C   UNL     1       1.526   1.781  19.444  0.00  0.00    +0.000 A 
ATOM     16  C   UNL     1       1.633   2.507  18.232  0.00  0.00    +0.000 A 
ATOM     17  C   UNL     1       1.756   3.835  18.587  0.00  0.00    +0.000 A 
ATOM     18  O   UNL     1       1.625   3.965  19.940  0.00  0.00    +0.000 OA
ENDBRANCH  12  17
ENDBRANCH   1  12
TORSDOF 2
ENDMDL
