MODEL 1
REMARK VINA RESULT:      -9.0      0.000      0.000
REMARK  Name = 
REMARK  6 active torsions:
REMARK  status: ('A' for Active; 'I' for Inactive)
REMARK    1  A    between atoms: C_2  and  C_3
REMARK    2  A    between atoms: C_3  and  C_4
REMARK    3  A    between atoms: C_4  and  C_5
REMARK    4  A    between atoms: C_12  and  C_13
REMARK    5  A    between atoms: C_15  and  C_16
REMARK    6  A    between atoms: C_20  and  C_21
REMARK                            x       y       z     vdW  Elec       q    Type
REMARK                         _______ _______ _______ _____ _____    ______ ____
ROOT
ATOM      1  C   UNL     1       7.492   7.206  17.437  0.00  0.00    +0.000 A 
ATOM      2  N   UNL     1       7.547   8.493  17.193  0.00  0.00    +0.000 NA
ATOM      3  C   UNL     1       8.333   8.965  18.216  0.00  0.00    +0.000 A 
ATOM      4  N   UNL     1       8.735   8.012  19.073  0.00  0.00    +0.000 NA
ATOM      5  O   UNL     1       8.177   6.842  18.556  0.00  0.00    +0.000 OA
ENDROOT
BRANCH   1  11
ATOM      6  O   UNL     1       4.480   2.560  19.121  0.00  0.00    +0.000 OA
ATOM      7  C   UNL     1       4.112   3.650  18.687  0.00  0.00    +0.000 C 
ATOM      8  N   UNL     1       5.004   4.650  18.322  0.00  0.00    +0.000 N 
ATOM      9  C   UNL     1       4.632   5.996  17.884  0.00  0.00    +0.000 C 
ATOM     10  C   UNL     1       5.330   6.337  16.568  0.00  0.00    +0.000 C 
ATOM     11  C   UNL     1       6.851   6.125  16.637  0.00  0.00    +0.000 C 
ATOM     12  C   UNL     1       7.188   4.736  17.197  0.00  0.00    +0.000 C 
ATOM     13  C   UNL     1       6.437   4.424  18.492  0.00  0.00    +0.000 C 
BRANCH   7  14
ATOM     14  C   UNL     1       2.639   3.961  18.507  0.00  0.00    +0.000 C 
BRANCH  14  15
ATOM     15  C   UNL     1       1.922   4.152  19.837  0.00  0.00    +0.000 C 
BRANCH  15  16
ATOM     16  C   UNL     1       1.112   2.930  20.214  0.00  0.00    +0.000 C 
ATOM     17  F   UNL     1       0.906   2.842  21.547  0.00  0.00    +0.000 F 
ATOM     18  F   UNL     1      -0.099   2.952  19.618  0.00  0.00    +0.000 F 
ATOM     19  F   UNL     1       1.739   1.798  19.826  0.00  0.00    +0.000 F 
ENDBRANCH  15  16
ENDBRANCH  14  15
ENDBRANCH   7  14
ENDBRANCH   1  11
BRANCH   3  20
ATOM     20  C   UNL     1       8.704  10.373  18.304  0.00  0.00    +0.000 A 
ATOM     21  C   UNL     1       8.095  11.312  17.458  0.00  0.00    +0.000 A 
ATOM     22  C   UNL     1       8.454  12.659  17.512  0.00  0.00    +0.000 A 
ATOM     23  C   UNL     1       9.430  13.083  18.412  0.00  0.00    +0.000 A 
ATOM     24  C   UNL     1      10.056  12.164  19.268  0.00  0.00    +0.000 A 
ATOM     25  C   UNL     1       9.682  10.810  19.208  0.00  0.00    +0.000 A 
BRANCH  24  26
ATOM     26  C   UNL     1      11.122  12.602  20.242  0.00  0.00    +0.000 C 
ATOM     27  F   UNL     1      11.738  13.765  19.889  0.00  0.00    +0.000 F 
ATOM     28  F   UNL     1      10.630  12.805  21.495  0.00  0.00    +0.000 F 
ATOM     29  F   UNL     1      12.115  11.680  20.373  0.00  0.00    +0.000 F 
ENDBRANCH  24  26
ENDBRANCH   3  20
TORSDOF 6
ENDMDL
MODEL 2
REMARK VINA RESULT:      -8.8      5.773      8.489
REMARK  Name = 
REMARK  6 active torsions:
REMARK  status: ('A' for Active; 'I' for Inactive)
REMARK    1  A    between atoms: C_2  and  C_3
REMARK    2  A    between atoms: C_3  and  C_4
REMARK    3  A    between atoms: C_4  and  C_5
REMARK    4  A    between atoms: C_12  and  C_13
REMARK    5  A    between atoms: C_15  and  C_16
REMARK    6  A    between atoms: C_20  and  C_21
REMARK                            x       y       z     vdW  Elec       q    Type
REMARK                         _______ _______ _______ _____ _____    ______ ____
ROOT
ATOM      1  C   UNL     1       6.511   4.844  16.228  0.00  0.00    +0.000 A 
ATOM      2  N   UNL     1       5.921   4.014  15.402  0.00  0.00    +0.000 NA
ATOM      3  C   UNL     1       6.487   4.333  14.191  0.00  0.00    +0.000 A 
ATOM      4  N   UNL     1       7.378   5.336  14.258  0.00  0.00    +0.000 NA
ATOM      5  O   UNL     1       7.397   5.676  15.612  0.00  0.00    +0.000 OA
ENDROOT
BRANCH   1  11
ATOM      6  O   UNL     1       2.334   7.150  19.504  0.00  0.00    +0.000 OA
ATOM      7  C   UNL     1       2.574   5.981  19.200  0.00  0.00    +0.000 C 
ATOM      8  N   UNL     1       3.648   5.624  18.397  0.00  0.00    +0.000 N 
ATOM      9  C   UNL     1       3.938   4.268  17.927  0.00  0.00    +0.000 C 
ATOM     10  C   UNL     1       5.388   3.898  18.234  0.00  0.00    +0.000 C 
ATOM     11  C   UNL     1       6.386   4.943  17.709  0.00  0.00    +0.000 C 
ATOM     12  C   UNL     1       5.980   6.358  18.146  0.00  0.00    +0.000 C 
ATOM     13  C   UNL     1       4.512   6.669  17.853  0.00  0.00    +0.000 C 
BRANCH   7  14
ATOM     14  C   UNL     1       1.705   4.849  19.709  0.00  0.00    +0.000 C 
BRANCH  14  15
ATOM     15  C   UNL     1       2.093   4.409  21.115  0.00  0.00    +0.000 C 
BRANCH  15  16
ATOM     16  C   UNL     1       2.050   2.904  21.260  0.00  0.00    +0.000 C 
ATOM     17  F   UNL     1       1.191   2.504  22.225  0.00  0.00    +0.000 F 
ATOM     18  F   UNL     1       1.662   2.319  20.106  0.00  0.00    +0.000 F 
ATOM     19  F   UNL     1       3.268   2.415  21.578  0.00  0.00    +0.000 F 
ENDBRANCH  15  16
ENDBRANCH  14  15
ENDBRANCH   7  14
ENDBRANCH   1  11
BRANCH   3  20
ATOM     20  C   UNL     1       6.149   3.601  12.976  0.00  0.00    +0.000 A 
ATOM     21  C   UNL     1       7.074   2.704  12.419  0.00  0.00    +0.000 A 
ATOM     22  C   UNL     1       6.776   2.012  11.245  0.00  0.00    +0.000 A 
ATOM     23  C   UNL     1       5.551   2.210  10.611  0.00  0.00    +0.000 A 
ATOM     24  C   UNL     1       4.609   3.101  11.147  0.00  0.00    +0.000 A 
ATOM     25  C   UNL     1       4.918   3.790  12.333  0.00  0.00    +0.000 A 
BRANCH  24  26
ATOM     26  C   UNL     1       3.281   3.337  10.470  0.00  0.00    +0.000 C 
ATOM     27  F   UNL     1       2.964   4.656  10.339  0.00  0.00    +0.000 F 
ATOM     28  F   UNL     1       3.238   2.816   9.214  0.00  0.00    +0.000 F 
ATOM     29  F   UNL     1       2.246   2.771  11.149  0.00  0.00    +0.000 F 
ENDBRANCH  24  26
ENDBRANCH   3  20
TORSDOF 6
ENDMDL
MODEL 3
REMARK VINA RESULT:      -8.7      0.748      1.092
REMARK  Name = 
REMARK  6 active torsions:
REMARK  status: ('A' for Active; 'I' for Inactive)
REMARK    1  A    between atoms: C_2  and  C_3
REMARK    2  A    between atoms: C_3  and  C_4
REMARK    3  A    between atoms: C_4  and  C_5
REMARK    4  A    between atoms: C_12  and  C_13
REMARK    5  A    between atoms: C_15  and  C_16
REMARK    6  A    between atoms: C_20  and  C_21
REMARK                            x       y       z     vdW  Elec       q    Type
REMARK                         _______ _______ _______ _____ _____    ______ ____
ROOT
ATOM      1  C   UNL     1       7.664   7.527  17.615  0.00  0.00    +0.000 A 
ATOM      2  N   UNL     1       7.648   8.798  17.294  0.00  0.00    +0.000 NA
ATOM      3  C   UNL     1       8.436   9.368  18.264  0.00  0.00    +0.000 A 
ATOM      4  N   UNL     1       8.907   8.490  19.164  0.00  0.00    +0.000 NA
ATOM      5  O   UNL     1       8.396   7.264  18.733  0.00  0.00    +0.000 OA
ENDROOT
BRANCH   1  11
ATOM      6  O   UNL     1       4.310   3.233  19.568  0.00  0.00    +0.000 OA
ATOM      7  C   UNL     1       4.032   4.267  18.962  0.00  0.00    +0.000 C 
ATOM      8  N   UNL     1       4.997   5.183  18.565  0.00  0.00    +0.000 N 
ATOM      9  C   UNL     1       4.726   6.471  17.923  0.00  0.00    +0.000 C 
ATOM     10  C   UNL     1       5.561   6.615  16.651  0.00  0.00    +0.000 C 
ATOM     11  C   UNL     1       7.058   6.369  16.899  0.00  0.00    +0.000 C 
ATOM     12  C   UNL     1       7.280   5.056  17.663  0.00  0.00    +0.000 C 
ATOM     13  C   UNL     1       6.396   4.939  18.906  0.00  0.00    +0.000 C 
BRANCH   7  14
ATOM     14  C   UNL     1       2.598   4.595  18.597  0.00  0.00    +0.000 C 
BRANCH  14  15
ATOM     15  C   UNL     1       1.883   3.417  17.947  0.00  0.00    +0.000 C 
BRANCH  15  16
ATOM     16  C   UNL     1       1.079   2.627  18.955  0.00  0.00    +0.000 C 
ATOM     17  F   UNL     1      -0.050   2.110  18.421  0.00  0.00    +0.000 F 
ATOM     18  F   UNL     1       1.801   1.598  19.448  0.00  0.00    +0.000 F 
ATOM     19  F   UNL     1       0.712   3.406  19.996  0.00  0.00    +0.000 F 
ENDBRANCH  15  16
ENDBRANCH  14  15
ENDBRANCH   7  14
ENDBRANCH   1  11
BRANCH   3  20
ATOM     20  C   UNL     1       8.738  10.795  18.257  0.00  0.00    +0.000 A 
ATOM     21  C   UNL     1       8.064  11.650  17.371  0.00  0.00    +0.000 A 
ATOM     22  C   UNL     1       8.356  13.013  17.335  0.00  0.00    +0.000 A 
ATOM     23  C   UNL     1       9.329  13.539  18.183  0.00  0.00    +0.000 A 
ATOM     24  C   UNL     1      10.019  12.706  19.078  0.00  0.00    +0.000 A 
ATOM     25  C   UNL     1       9.712  11.335  19.109  0.00  0.00    +0.000 A 
BRANCH  24  26
ATOM     26  C   UNL     1      11.083  13.255  19.996  0.00  0.00    +0.000 C 
ATOM     27  F   UNL     1      11.282  14.596  19.860  0.00  0.00    +0.000 F 
ATOM     28  F   UNL     1      10.790  13.052  21.310  0.00  0.00    +0.000 F 
ATOM     29  F   UNL     1      12.296  12.675  19.788  0.00  0.00    +0.000 F 
ENDBRANCH  24  26
ENDBRANCH   3  20
TORSDOF 6
ENDMDL
MODEL 4
REMARK VINA RESULT:      -8.6      1.937      2.401
REMARK  Name = 
REMARK  6 active torsions:
REMARK  status: ('A' for Active; 'I' for Inactive)
REMARK    1  A    between atoms: C_2  and  C_3
REMARK    2  A    between atoms: C_3  and  C_4
REMARK    3  A    between atoms: C_4  and  C_5
REMARK    4  A    between atoms: C_12  and  C_13
REMARK    5  A    between atoms: C_15  and  C_16
REMARK    6  A    between atoms: C_20  and  C_21
REMARK                            x       y       z     vdW  Elec       q    Type
REMARK                         _______ _______ _______ _____ _____    ______ ____
ROOT
ATOM      1  C   UNL     1       7.714   7.580  17.570  0.00  0.00    +0.000 A 
ATOM      2  N   UNL     1       7.801   8.811  17.126  0.00  0.00    +0.000 NA
ATOM      3  C   UNL     1       8.545   9.435  18.100  0.00  0.00    +0.000 A 
ATOM      4  N   UNL     1       8.889   8.628  19.117  0.00  0.00    +0.000 NA
ATOM      5  O   UNL     1       8.338   7.394  18.766  0.00  0.00    +0.000 OA
ENDROOT
BRANCH   1  11
ATOM      6  O   UNL     1       4.374   3.403  19.781  0.00  0.00    +0.000 OA
ATOM      7  C   UNL     1       4.091   4.406  19.127  0.00  0.00    +0.000 C 
ATOM      8  N   UNL     1       5.052   5.297  18.672  0.00  0.00    +0.000 N 
ATOM      9  C   UNL     1       4.777   6.551  17.968  0.00  0.00    +0.000 C 
ATOM     10  C   UNL     1       5.596   6.628  16.680  0.00  0.00    +0.000 C 
ATOM     11  C   UNL     1       7.096   6.390  16.922  0.00  0.00    +0.000 C 
ATOM     12  C   UNL     1       7.323   5.117  17.749  0.00  0.00    +0.000 C 
ATOM     13  C   UNL     1       6.455   5.066  19.007  0.00  0.00    +0.000 C 
BRANCH   7  14
ATOM     14  C   UNL     1       2.653   4.720  18.764  0.00  0.00    +0.000 C 
BRANCH  14  15
ATOM     15  C   UNL     1       1.942   3.528  18.136  0.00  0.00    +0.000 C 
BRANCH  15  16
ATOM     16  C   UNL     1       1.044   2.826  19.132  0.00  0.00    +0.000 C 
ATOM     17  F   UNL     1       1.720   1.945  19.902  0.00  0.00    +0.000 F 
ATOM     18  F   UNL     1       0.453   3.715  19.958  0.00  0.00    +0.000 F 
ATOM     19  F   UNL     1       0.066   2.142  18.500  0.00  0.00    +0.000 F 
ENDBRANCH  15  16
ENDBRANCH  14  15
ENDBRANCH   7  14
ENDBRANCH   1  11
BRANCH   3  20
ATOM     20  C   UNL     1       8.934  10.835  17.979  0.00  0.00    +0.000 A 
ATOM     21  C   UNL     1      10.290  11.179  17.876  0.00  0.00    +0.000 A 
ATOM     22  C   UNL     1      10.681  12.515  17.784  0.00  0.00    +0.000 A 
ATOM     23  C   UNL     1       9.721  13.524  17.796  0.00  0.00    +0.000 A 
ATOM     24  C   UNL     1       8.358  13.207  17.899  0.00  0.00    +0.000 A 
ATOM     25  C   UNL     1       7.975  11.858  17.987  0.00  0.00    +0.000 A 
BRANCH  24  26
ATOM     26  C   UNL     1       7.303  14.286  17.925  0.00  0.00    +0.000 C 
ATOM     27  F   UNL     1       7.627  15.383  17.184  0.00  0.00    +0.000 F 
ATOM     28  F   UNL     1       6.105  13.853  17.446  0.00  0.00    +0.000 F 
ATOM     29  F   UNL     1       7.061  14.745  19.183  0.00  0.00    +0.000 F 
ENDBRANCH  24  26
ENDBRANCH   3  20
TORSDOF 6
ENDMDL
MODEL 5
REMARK VINA RESULT:      -8.6      0.991      1.347
REMARK  Name = 
REMARK  6 active torsions:
REMARK  status: ('A' for Active; 'I' for Inactive)
REMARK    1  A    between atoms: C_2  and  C_3
REMARK    2  A    between atoms: C_3  and  C_4
REMARK    3  A    between atoms: C_4  and  C_5
REMARK    4  A    between atoms: C_12  and  C_13
REMARK    5  A    between atoms: C_15  and  C_16
REMARK    6  A    between atoms: C_20  and  C_21
REMARK                            x       y       z     vdW  Elec       q    Type
REMARK                         _______ _______ _______ _____ _____    ______ ____
ROOT
ATOM      1  C   UNL     1       6.921   7.360  17.526  0.00  0.00    +0.000 A 
ATOM      2  N   UNL     1       6.987   8.663  17.398  0.00  0.00    +0.000 NA
ATOM      3  C   UNL     1       8.114   8.985  18.115  0.00  0.00    +0.000 A 
ATOM      4  N   UNL     1       8.714   7.926  18.683  0.00  0.00    +0.000 NA
ATOM      5  O   UNL     1       7.923   6.845  18.292  0.00  0.00    +0.000 OA
ENDROOT
BRANCH   1  11
ATOM      6  O   UNL     1       4.747   2.389  19.540  0.00  0.00    +0.000 OA
ATOM      7  C   UNL     1       4.269   3.522  19.491  0.00  0.00    +0.000 C 
ATOM      8  N   UNL     1       4.957   4.601  18.952  0.00  0.00    +0.000 N 
ATOM      9  C   UNL     1       4.483   5.986  18.943  0.00  0.00    +0.000 C 
ATOM     10  C   UNL     1       4.565   6.566  17.532  0.00  0.00    +0.000 C 
ATOM     11  C   UNL     1       5.961   6.403  16.909  0.00  0.00    +0.000 C 
ATOM     12  C   UNL     1       6.453   4.954  17.034  0.00  0.00    +0.000 C 
ATOM     13  C   UNL     1       6.316   4.404  18.454  0.00  0.00    +0.000 C 
BRANCH   7  14
ATOM     14  C   UNL     1       2.873   3.802  20.011  0.00  0.00    +0.000 C 
BRANCH  14  15
ATOM     15  C   UNL     1       1.941   2.611  19.836  0.00  0.00    +0.000 C 
BRANCH  15  16
ATOM     16  C   UNL     1       1.363   2.555  18.439  0.00  0.00    +0.000 C 
ATOM     17  F   UNL     1       0.153   1.953  18.406  0.00  0.00    +0.000 F 
ATOM     18  F   UNL     1       1.210   3.797  17.930  0.00  0.00    +0.000 F 
ATOM     19  F   UNL     1       2.177   1.870  17.607  0.00  0.00    +0.000 F 
ENDBRANCH  15  16
ENDBRANCH  14  15
ENDBRANCH   7  14
ENDBRANCH   1  11
BRANCH   3  20
ATOM     20  C   UNL     1       8.600  10.358  18.194  0.00  0.00    +0.000 A 
ATOM     21  C   UNL     1       8.036  11.349  17.376  0.00  0.00    +0.000 A 
ATOM     22  C   UNL     1       8.504  12.662  17.423  0.00  0.00    +0.000 A 
ATOM     23  C   UNL     1       9.544  13.001  18.286  0.00  0.00    +0.000 A 
ATOM     24  C   UNL     1      10.126  12.029  19.113  0.00  0.00    +0.000 A 
ATOM     25  C   UNL     1       9.644  10.709  19.062  0.00  0.00    +0.000 A 
BRANCH  24  26
ATOM     26  C   UNL     1      11.261  12.373  20.047  0.00  0.00    +0.000 C 
ATOM     27  F   UNL     1      10.904  12.369  21.362  0.00  0.00    +0.000 F 
ATOM     28  F   UNL     1      12.303  11.504  19.941  0.00  0.00    +0.000 F 
ATOM     29  F   UNL     1      11.775  13.609  19.804  0.00  0.00    +0.000 F 
ENDBRANCH  24  26
ENDBRANCH   3  20
TORSDOF 6
ENDMDL
MODEL 6
REMARK VINA RESULT:      -8.5      1.480      2.052
REMARK  Name = 
REMARK  6 active torsions:
REMARK  status: ('A' for Active; 'I' for Inactive)
REMARK    1  A    between atoms: C_2  and  C_3
REMARK    2  A    between atoms: C_3  and  C_4
REMARK    3  A    between atoms: C_4  and  C_5
REMARK    4  A    between atoms: C_12  and  C_13
REMARK    5  A    between atoms: C_15  and  C_16
REMARK    6  A    between atoms: C_20  and  C_21
REMARK                            x       y       z     vdW  Elec       q    Type
REMARK                         _______ _______ _______ _____ _____    ______ ____
ROOT
ATOM      1  C   UNL     1       7.172   7.377  17.303  0.00  0.00    +0.000 A 
ATOM      2  N   UNL     1       7.473   8.648  17.423  0.00  0.00    +0.000 NA
ATOM      3  C   UNL     1       8.364   8.654  18.470  0.00  0.00    +0.000 A 
ATOM      4  N   UNL     1       8.593   7.438  18.992  0.00  0.00    +0.000 NA
ATOM      5  O   UNL     1       7.802   6.587  18.217  0.00  0.00    +0.000 OA
ENDROOT
BRANCH   1  11
ATOM      6  O   UNL     1       3.883   2.633  17.705  0.00  0.00    +0.000 OA
ATOM      7  C   UNL     1       3.591   3.827  17.751  0.00  0.00    +0.000 C 
ATOM      8  N   UNL     1       4.539   4.834  17.623  0.00  0.00    +0.000 N 
ATOM      9  C   UNL     1       4.274   6.267  17.757  0.00  0.00    +0.000 C 
ATOM     10  C   UNL     1       4.829   7.024  16.551  0.00  0.00    +0.000 C 
ATOM     11  C   UNL     1       6.310   6.708  16.289  0.00  0.00    +0.000 C 
ATOM     12  C   UNL     1       6.551   5.192  16.258  0.00  0.00    +0.000 C 
ATOM     13  C   UNL     1       5.946   4.473  17.464  0.00  0.00    +0.000 C 
BRANCH   7  14
ATOM     14  C   UNL     1       2.154   4.272  17.938  0.00  0.00    +0.000 C 
BRANCH  14  15
ATOM     15  C   UNL     1       1.339   3.271  18.745  0.00  0.00    +0.000 C 
BRANCH  15  16
ATOM     16  C   UNL     1       1.298   3.638  20.212  0.00  0.00    +0.000 C 
ATOM     17  F   UNL     1       0.945   2.593  20.994  0.00  0.00    +0.000 F 
ATOM     18  F   UNL     1       2.505   4.070  20.635  0.00  0.00    +0.000 F 
ATOM     19  F   UNL     1       0.408   4.629  20.436  0.00  0.00    +0.000 F 
ENDBRANCH  15  16
ENDBRANCH  14  15
ENDBRANCH   7  14
ENDBRANCH   1  11
BRANCH   3  20
ATOM     20  C   UNL     1       9.007   9.884  18.914  0.00  0.00    +0.000 A 
ATOM     21  C   UNL     1       9.135  10.152  20.286  0.00  0.00    +0.000 A 
ATOM     22  C   UNL     1       9.727  11.335  20.729  0.00  0.00    +0.000 A 
ATOM     23  C   UNL     1      10.197  12.267  19.805  0.00  0.00    +0.000 A 
ATOM     24  C   UNL     1      10.080  12.025  18.429  0.00  0.00    +0.000 A 
ATOM     25  C   UNL     1       9.486  10.827  17.993  0.00  0.00    +0.000 A 
BRANCH  24  26
ATOM     26  C   UNL     1      10.573  13.026  17.413  0.00  0.00    +0.000 C 
ATOM     27  F   UNL     1      11.487  12.513  16.542  0.00  0.00    +0.000 F 
ATOM     28  F   UNL     1       9.566  13.526  16.645  0.00  0.00    +0.000 F 
ATOM     29  F   UNL     1      11.173  14.101  17.993  0.00  0.00    +0.000 F 
ENDBRANCH  24  26
ENDBRANCH   3  20
TORSDOF 6
ENDMDL
MODEL 7
REMARK VINA RESULT:      -8.5      1.444      1.939
REMARK  Name = 
REMARK  6 active torsions:
REMARK  status: ('A' for Active; 'I' for Inactive)
REMARK    1  A    between atoms: C_2  and  C_3
REMARK    2  A    between atoms: C_3  and  C_4
REMARK    3  A    between atoms: C_4  and  C_5
REMARK    4  A    between atoms: C_12  and  C_13
REMARK    5  A    between atoms: C_15  and  C_16
REMARK    6  A    between atoms: C_20  and  C_21
REMARK                            x       y       z     vdW  Elec       q    Type
REMARK                         _______ _______ _______ _____ _____    ______ ____
ROOT
ATOM      1  C   UNL     1       7.289   7.444  17.354  0.00  0.00    +0.000 A 
ATOM      2  N   UNL     1       7.582   8.718  17.464  0.00  0.00    +0.000 NA
ATOM      3  C   UNL     1       8.442   8.742  18.536  0.00  0.00    +0.000 A 
ATOM      4  N   UNL     1       8.658   7.535  19.083  0.00  0.00    +0.000 NA
ATOM      5  O   UNL     1       7.894   6.670  18.298  0.00  0.00    +0.000 OA
ENDROOT
BRANCH   1  11
ATOM      6  O   UNL     1       4.048   2.663  17.713  0.00  0.00    +0.000 OA
ATOM      7  C   UNL     1       3.742   3.854  17.743  0.00  0.00    +0.000 C 
ATOM      8  N   UNL     1       4.680   4.871  17.630  0.00  0.00    +0.000 N 
ATOM      9  C   UNL     1       4.394   6.302  17.746  0.00  0.00    +0.000 C 
ATOM     10  C   UNL     1       4.969   7.057  16.548  0.00  0.00    +0.000 C 
ATOM     11  C   UNL     1       6.460   6.757  16.324  0.00  0.00    +0.000 C 
ATOM     12  C   UNL     1       6.720   5.244  16.311  0.00  0.00    +0.000 C 
ATOM     13  C   UNL     1       6.094   4.526  17.507  0.00  0.00    +0.000 C 
BRANCH   7  14
ATOM     14  C   UNL     1       2.295   4.283  17.891  0.00  0.00    +0.000 C 
BRANCH  14  15
ATOM     15  C   UNL     1       1.462   3.257  18.648  0.00  0.00    +0.000 C 
BRANCH  15  16
ATOM     16  C   UNL     1       1.349   3.603  20.116  0.00  0.00    +0.000 C 
ATOM     17  F   UNL     1       0.351   4.482  20.362  0.00  0.00    +0.000 F 
ATOM     18  F   UNL     1       1.106   2.499  20.855  0.00  0.00    +0.000 F 
ATOM     19  F   UNL     1       2.494   4.156  20.571  0.00  0.00    +0.000 F 
ENDBRANCH  15  16
ENDBRANCH  14  15
ENDBRANCH   7  14
ENDBRANCH   1  11
BRANCH   3  20
ATOM     20  C   UNL     1       9.067   9.982  18.981  0.00  0.00    +0.000 A 
ATOM     21  C   UNL     1       9.147  10.274  20.352  0.00  0.00    +0.000 A 
ATOM     22  C   UNL     1       9.722  11.465  20.794  0.00  0.00    +0.000 A 
ATOM     23  C   UNL     1      10.222  12.382  19.871  0.00  0.00    +0.000 A 
ATOM     24  C   UNL     1      10.153  12.115  18.496  0.00  0.00    +0.000 A 
ATOM     25  C   UNL     1       9.577  10.909  18.061  0.00  0.00    +0.000 A 
BRANCH  24  26
ATOM     26  C   UNL     1      10.679  13.099  17.480  0.00  0.00    +0.000 C 
ATOM     27  F   UNL     1       9.728  13.949  17.001  0.00  0.00    +0.000 F 
ATOM     28  F   UNL     1      11.666  13.890  17.985  0.00  0.00    +0.000 F 
ATOM     29  F   UNL     1      11.212  12.484  16.390  0.00  0.00    +0.000 F 
ENDBRANCH  24  26
ENDBRANCH   3  20
TORSDOF 6
ENDMDL
MODEL 8
REMARK VINA RESULT:      -8.5      5.739      8.580
REMARK  Name = 
REMARK  6 active torsions:
REMARK  status: ('A' for Active; 'I' for Inactive)
REMARK    1  A    between atoms: C_2  and  C_3
REMARK    2  A    between atoms: C_3  and  C_4
REMARK    3  A    between atoms: C_4  and  C_5
REMARK    4  A    between atoms: C_12  and  C_13
REMARK    5  A    between atoms: C_15  and  C_16
REMARK    6  A    between atoms: C_20  and  C_21
REMARK                            x       y       z     vdW  Elec       q    Type
REMARK                         _______ _______ _______ _____ _____    ______ ____
ROOT
ATOM      1  C   UNL     1       7.089   5.308  15.597  0.00  0.00    +0.000 A 
ATOM      2  N   UNL     1       6.311   4.439  14.999  0.00  0.00    +0.000 NA
ATOM      3  C   UNL     1       6.780   4.447  13.707  0.00  0.00    +0.000 A 
ATOM      4  N   UNL     1       7.795   5.303  13.505  0.00  0.00    +0.000 NA
ATOM      5  O   UNL     1       8.003   5.875  14.762  0.00  0.00    +0.000 OA
ENDROOT
BRANCH   1  11
ATOM      6  O   UNL     1       2.841   6.752  19.253  0.00  0.00    +0.000 OA
ATOM      7  C   UNL     1       3.454   5.696  19.098  0.00  0.00    +0.000 C 
ATOM      8  N   UNL     1       4.464   5.549  18.158  0.00  0.00    +0.000 N 
ATOM      9  C   UNL     1       5.169   4.300  17.864  0.00  0.00    +0.000 C 
ATOM     10  C   UNL     1       6.681   4.518  17.919  0.00  0.00    +0.000 C 
ATOM     11  C   UNL     1       7.138   5.691  17.036  0.00  0.00    +0.000 C 
ATOM     12  C   UNL     1       6.301   6.947  17.313  0.00  0.00    +0.000 C 
ATOM     13  C   UNL     1       4.797   6.672  17.286  0.00  0.00    +0.000 C 
BRANCH   7  14
ATOM     14  C   UNL     1       3.144   4.484  19.953  0.00  0.00    +0.000 C 
BRANCH  14  15
ATOM     15  C   UNL     1       2.258   3.477  19.230  0.00  0.00    +0.000 C 
BRANCH  15  16
ATOM     16  C   UNL     1       0.996   3.183  20.010  0.00  0.00    +0.000 C 
ATOM     17  F   UNL     1       0.093   2.486  19.284  0.00  0.00    +0.000 F 
ATOM     18  F   UNL     1       1.270   2.460  21.117  0.00  0.00    +0.000 F 
ATOM     19  F   UNL     1       0.397   4.327  20.407  0.00  0.00    +0.000 F 
ENDBRANCH  15  16
ENDBRANCH  14  15
ENDBRANCH   7  14
ENDBRANCH   1  11
BRANCH   3  20
ATOM     20  C   UNL     1       6.221   3.565  12.689  0.00  0.00    +0.000 A 
ATOM     21  C   UNL     1       6.930   2.421  12.287  0.00  0.00    +0.000 A 
ATOM     22  C   UNL     1       6.421   1.579  11.299  0.00  0.00    +0.000 A 
ATOM     23  C   UNL     1       5.198   1.870  10.697  0.00  0.00    +0.000 A 
ATOM     24  C   UNL     1       4.470   3.007  11.080  0.00  0.00    +0.000 A 
ATOM     25  C   UNL     1       4.990   3.847  12.080  0.00  0.00    +0.000 A 
BRANCH  24  26
ATOM     26  C   UNL     1       3.150   3.345  10.433  0.00  0.00    +0.000 C 
ATOM     27  F   UNL     1       2.924   4.685  10.324  0.00  0.00    +0.000 F 
ATOM     28  F   UNL     1       3.045   2.845   9.172  0.00  0.00    +0.000 F 
ATOM     29  F   UNL     1       2.091   2.845  11.126  0.00  0.00    +0.000 F 
ENDBRANCH  24  26
ENDBRANCH   3  20
TORSDOF 6
ENDMDL
MODEL 9
REMARK VINA RESULT:      -8.4      1.201      1.601
REMARK  Name = 
REMARK  6 active torsions:
REMARK  status: ('A' for Active; 'I' for Inactive)
REMARK    1  A    between atoms: C_2  and  C_3
REMARK    2  A    between atoms: C_3  and  C_4
REMARK    3  A    between atoms: C_4  and  C_5
REMARK    4  A    between atoms: C_12  and  C_13
REMARK    5  A    between atoms: C_15  and  C_16
REMARK    6  A    between atoms: C_20  and  C_21
REMARK                            x       y       z     vdW  Elec       q    Type
REMARK                         _______ _______ _______ _____ _____    ______ ____
ROOT
ATOM      1  C   UNL     1       7.291   7.157  17.381  0.00  0.00    +0.000 A 
ATOM      2  N   UNL     1       7.531   8.444  17.309  0.00  0.00    +0.000 NA
ATOM      3  C   UNL     1       8.381   8.656  18.367  0.00  0.00    +0.000 A 
ATOM      4  N   UNL     1       8.643   7.549  19.081  0.00  0.00    +0.000 NA
ATOM      5  O   UNL     1       7.920   6.551  18.426  0.00  0.00    +0.000 OA
ENDROOT
BRANCH   1  11
ATOM      6  O   UNL     1       4.000   2.520  18.462  0.00  0.00    +0.000 OA
ATOM      7  C   UNL     1       3.702   3.697  18.265  0.00  0.00    +0.000 C 
ATOM      8  N   UNL     1       4.652   4.676  18.009  0.00  0.00    +0.000 N 
ATOM      9  C   UNL     1       4.373   6.105  17.855  0.00  0.00    +0.000 C 
ATOM     10  C   UNL     1       5.001   6.632  16.565  0.00  0.00    +0.000 C 
ATOM     11  C   UNL     1       6.497   6.296  16.459  0.00  0.00    +0.000 C 
ATOM     12  C   UNL     1       6.746   4.805  16.728  0.00  0.00    +0.000 C 
ATOM     13  C   UNL     1       6.068   4.314  18.007  0.00  0.00    +0.000 C 
BRANCH   7  14
ATOM     14  C   UNL     1       2.255   4.147  18.276  0.00  0.00    +0.000 C 
BRANCH  14  15
ATOM     15  C   UNL     1       1.377   3.251  19.140  0.00  0.00    +0.000 C 
BRANCH  15  16
ATOM     16  C   UNL     1       1.277   3.769  20.558  0.00  0.00    +0.000 C 
ATOM     17  F   UNL     1       0.825   2.830  21.419  0.00  0.00    +0.000 F 
ATOM     18  F   UNL     1       2.481   4.182  21.007  0.00  0.00    +0.000 F 
ATOM     19  F   UNL     1       0.431   4.821  20.628  0.00  0.00    +0.000 F 
ENDBRANCH  15  16
ENDBRANCH  14  15
ENDBRANCH   7  14
ENDBRANCH   1  11
BRANCH   3  20
ATOM     20  C   UNL     1       8.952   9.971  18.632  0.00  0.00    +0.000 A 
ATOM     21  C   UNL     1       9.723  10.612  17.649  0.00  0.00    +0.000 A 
ATOM     22  C   UNL     1      10.296  11.860  17.894  0.00  0.00    +0.000 A 
ATOM     23  C   UNL     1      10.108  12.483  19.127  0.00  0.00    +0.000 A 
ATOM     24  C   UNL     1       9.343  11.863  20.127  0.00  0.00    +0.000 A 
ATOM     25  C   UNL     1       8.766  10.608  19.867  0.00  0.00    +0.000 A 
BRANCH  24  26
ATOM     26  C   UNL     1       9.137  12.516  21.471  0.00  0.00    +0.000 C 
ATOM     27  F   UNL     1       8.069  13.362  21.508  0.00  0.00    +0.000 F 
ATOM     28  F   UNL     1       8.928  11.608  22.464  0.00  0.00    +0.000 F 
ATOM     29  F   UNL     1      10.211  13.257  21.858  0.00  0.00    +0.000 F 
ENDBRANCH  24  26
ENDBRANCH   3  20
TORSDOF 6
ENDMDL
