MODEL 1
REMARK VINA RESULT:      -6.8      0.000      0.000
REMARK  Name = 
REMARK  6 active torsions:
REMARK  status: ('A' for Active; 'I' for Inactive)
REMARK    1  A    between atoms: C_1  and  C_2
REMARK    2  A    between atoms: C_7  and  C_8
REMARK    3  A    between atoms: N_10  and  C_11
REMARK    4  A    between atoms: C_11  and  C_12
REMARK    5  A    between atoms: C_15  and  C_16
REMARK    6  A    between atoms: N_17  and  C_18
REMARK                            x       y       z     vdW  Elec       q    Type
REMARK                         _______ _______ _______ _____ _____    ______ ____
ROOT
ATOM      1  C   UNL     1       1.916   4.861  20.109  0.00  0.00    +0.000 C 
ATOM      2  O   UNL     1       0.862   4.548  20.650  0.00  0.00    +0.000 OA
ATOM      3  N   UNL     1       2.487   6.115  20.191  0.00  0.00    +0.000 N 
ATOM      4  H   UNL     1       3.313   6.256  19.621  0.00  0.00    +0.000 HD
ENDROOT
BRANCH   1  11
ATOM      5  C   UNL     1       6.805   4.368  15.312  0.00  0.00    +0.000 C 
ATOM      6  C   UNL     1       5.808   4.587  16.420  0.00  0.00    +0.000 C 
ATOM      7  O   UNL     1       5.702   5.683  16.960  0.00  0.00    +0.000 OA
ATOM      8  N   UNL     1       5.083   3.450  16.698  0.00  0.00    +0.000 N 
ATOM      9  C   UNL     1       4.119   3.433  17.664  0.00  0.00    +0.000 A 
ATOM     10  N   UNL     1       3.585   4.436  18.309  0.00  0.00    +0.000 NA
ATOM     11  C   UNL     1       2.674   3.951  19.252  0.00  0.00    +0.000 A 
ATOM     12  C   UNL     1       2.562   2.573  19.282  0.00  0.00    +0.000 A 
ATOM     13  S   UNL     1       3.555   1.876  18.069  0.00  0.00    +0.000 S 
ATOM     14  H   UNL     1       5.316   2.567  16.270  0.00  0.00    +0.000 HD
ENDBRANCH   1  11
BRANCH   3  15
ATOM     15  C   UNL     1       1.794   7.228  20.780  0.00  0.00    +0.000 C 
BRANCH  15  16
ATOM     16  C   UNL     1       1.549   8.298  19.769  0.00  0.00    +0.000 A 
ATOM     17  C   UNL     1       2.098   8.384  18.502  0.00  0.00    +0.000 A 
ATOM     18  C   UNL     1       1.668   9.591  17.917  0.00  0.00    +0.000 A 
ATOM     19  C   UNL     1       0.853  10.232  18.828  0.00  0.00    +0.000 A 
ATOM     20  C   UNL     1       0.152  11.537  18.677  0.00  0.00    +0.000 C 
ATOM     21  N   UNL     1       0.784   9.438  19.958  0.00  0.00    +0.000 N 
ATOM     22  C   UNL     1       0.053   9.772  21.164  0.00  0.00    +0.000 C 
ENDBRANCH  15  16
ENDBRANCH   3  15
TORSDOF 3
ENDMDL
MODEL 2
REMARK VINA RESULT:      -6.7      2.190      2.681
REMARK  Name = 
REMARK  6 active torsions:
REMARK  status: ('A' for Active; 'I' for Inactive)
REMARK    1  A    between atoms: C_1  and  C_2
REMARK    2  A    between atoms: C_7  and  C_8
REMARK    3  A    between atoms: N_10  and  C_11
REMARK    4  A    between atoms: C_11  and  C_12
REMARK    5  A    between atoms: C_15  and  C_16
REMARK    6  A    between atoms: N_17  and  C_18
REMARK                            x       y       z     vdW  Elec       q    Type
REMARK                         _______ _______ _______ _____ _____    ______ ____
ROOT
ATOM      1  C   UNL     1       3.561   4.922  18.038  0.00  0.00    +0.000 C 
ATOM      2  O   UNL     1       2.540   4.365  17.652  0.00  0.00    +0.000 OA
ATOM      3  N   UNL     1       3.608   5.813  19.091  0.00  0.00    +0.000 N 
ATOM      4  H   UNL     1       4.503   6.263  19.241  0.00  0.00    +0.000 HD
ENDROOT
BRANCH   1  11
ATOM      5  C   UNL     1       6.773   3.403  12.162  0.00  0.00    +0.000 C 
ATOM      6  C   UNL     1       5.965   3.799  13.370  0.00  0.00    +0.000 C 
ATOM      7  O   UNL     1       4.757   3.988  13.282  0.00  0.00    +0.000 OA
ATOM      8  N   UNL     1       6.741   3.895  14.504  0.00  0.00    +0.000 N 
ATOM      9  C   UNL     1       6.204   4.234  15.712  0.00  0.00    +0.000 A 
ATOM     10  N   UNL     1       4.948   4.316  16.059  0.00  0.00    +0.000 NA
ATOM     11  C   UNL     1       4.857   4.753  17.384  0.00  0.00    +0.000 A 
ATOM     12  C   UNL     1       6.077   4.992  17.990  0.00  0.00    +0.000 A 
ATOM     13  S   UNL     1       7.355   4.599  16.916  0.00  0.00    +0.000 S 
ATOM     14  H   UNL     1       7.746   3.822  14.455  0.00  0.00    +0.000 HD
ENDBRANCH   1  11
BRANCH   3  15
ATOM     15  C   UNL     1       2.414   6.307  19.721  0.00  0.00    +0.000 C 
BRANCH  15  16
ATOM     16  C   UNL     1       2.046   7.650  19.185  0.00  0.00    +0.000 A 
ATOM     17  C   UNL     1       2.345   8.154  17.930  0.00  0.00    +0.000 A 
ATOM     18  C   UNL     1       1.887   9.484  17.870  0.00  0.00    +0.000 A 
ATOM     19  C   UNL     1       1.305   9.784  19.085  0.00  0.00    +0.000 A 
ATOM     20  C   UNL     1       0.672  11.062  19.513  0.00  0.00    +0.000 C 
ATOM     21  N   UNL     1       1.406   8.660  19.885  0.00  0.00    +0.000 N 
ATOM     22  C   UNL     1       0.944   8.572  21.256  0.00  0.00    +0.000 C 
ENDBRANCH  15  16
ENDBRANCH   3  15
TORSDOF 3
ENDMDL
MODEL 3
REMARK VINA RESULT:      -6.7      2.328      3.556
REMARK  Name = 
REMARK  6 active torsions:
REMARK  status: ('A' for Active; 'I' for Inactive)
REMARK    1  A    between atoms: C_1  and  C_2
REMARK    2  A    between atoms: C_7  and  C_8
REMARK    3  A    between atoms: N_10  and  C_11
REMARK    4  A    between atoms: C_11  and  C_12
REMARK    5  A    between atoms: C_15  and  C_16
REMARK    6  A    between atoms: N_17  and  C_18
REMARK                            x       y       z     vdW  Elec       q    Type
REMARK                         _______ _______ _______ _____ _____    ______ ____
ROOT
ATOM      1  C   UNL     1       2.047   8.611  18.311  0.00  0.00    +0.000 C 
ATOM      2  O   UNL     1       2.089   9.313  17.307  0.00  0.00    +0.000 OA
ATOM      3  N   UNL     1       1.383   8.956  19.471  0.00  0.00    +0.000 N 
ATOM      4  H   UNL     1       1.508   8.320  20.250  0.00  0.00    +0.000 HD
ENDROOT
BRANCH   1  11
ATOM      5  C   UNL     1       6.432   4.290  15.268  0.00  0.00    +0.000 C 
ATOM      6  C   UNL     1       5.545   5.347  15.875  0.00  0.00    +0.000 C 
ATOM      7  O   UNL     1       5.443   6.453  15.356  0.00  0.00    +0.000 OA
ATOM      8  N   UNL     1       4.908   4.899  17.010  0.00  0.00    +0.000 N 
ATOM      9  C   UNL     1       4.051   5.696  17.712  0.00  0.00    +0.000 A 
ATOM     10  N   UNL     1       3.539   6.850  17.375  0.00  0.00    +0.000 NA
ATOM     11  C   UNL     1       2.755   7.337  18.424  0.00  0.00    +0.000 A 
ATOM     12  C   UNL     1       2.712   6.514  19.535  0.00  0.00    +0.000 A 
ATOM     13  S   UNL     1       3.607   5.081  19.239  0.00  0.00    +0.000 S 
ATOM     14  H   UNL     1       5.137   4.005  17.418  0.00  0.00    +0.000 HD
ENDBRANCH   1  11
BRANCH   3  15
ATOM     15  C   UNL     1       0.824  10.266  19.665  0.00  0.00    +0.000 C 
BRANCH  15  16
ATOM     16  C   UNL     1       0.179  10.376  21.006  0.00  0.00    +0.000 A 
ATOM     17  C   UNL     1       0.395   9.557  22.101  0.00  0.00    +0.000 A 
ATOM     18  C   UNL     1      -0.478   9.959  23.130  0.00  0.00    +0.000 A 
ATOM     19  C   UNL     1      -1.218  11.026  22.661  0.00  0.00    +0.000 A 
ATOM     20  C   UNL     1      -2.270  11.801  23.374  0.00  0.00    +0.000 C 
ATOM     21  N   UNL     1      -0.813  11.276  21.362  0.00  0.00    +0.000 N 
ATOM     22  C   UNL     1      -1.372  12.298  20.500  0.00  0.00    +0.000 C 
ENDBRANCH  15  16
ENDBRANCH   3  15
TORSDOF 3
ENDMDL
MODEL 4
REMARK VINA RESULT:      -6.7      3.728      7.666
REMARK  Name = 
REMARK  6 active torsions:
REMARK  status: ('A' for Active; 'I' for Inactive)
REMARK    1  A    between atoms: C_1  and  C_2
REMARK    2  A    between atoms: C_7  and  C_8
REMARK    3  A    between atoms: N_10  and  C_11
REMARK    4  A    between atoms: C_11  and  C_12
REMARK    5  A    between atoms: C_15  and  C_16
REMARK    6  A    between atoms: N_17  and  C_18
REMARK                            x       y       z     vdW  Elec       q    Type
REMARK                         _______ _______ _______ _____ _____    ______ ____
ROOT
ATOM      1  C   UNL     1       1.847   8.764  18.412  0.00  0.00    +0.000 C 
ATOM      2  O   UNL     1       2.403   8.768  17.319  0.00  0.00    +0.000 OA
ATOM      3  N   UNL     1       2.093   7.836  19.403  0.00  0.00    +0.000 N 
ATOM      4  H   UNL     1       1.497   7.903  20.219  0.00  0.00    +0.000 HD
ENDROOT
BRANCH   1  11
ATOM      5  C   UNL     1      -4.240  11.421  16.667  0.00  0.00    +0.000 C 
ATOM      6  C   UNL     1      -2.951  10.712  16.994  0.00  0.00    +0.000 C 
ATOM      7  O   UNL     1      -2.601   9.724  16.359  0.00  0.00    +0.000 OA
ATOM      8  N   UNL     1      -2.276  11.316  18.031  0.00  0.00    +0.000 N 
ATOM      9  C   UNL     1      -1.080  10.837  18.482  0.00  0.00    +0.000 A 
ATOM     10  N   UNL     1      -0.299   9.939  17.943  0.00  0.00    +0.000 NA
ATOM     11  C   UNL     1       0.800   9.716  18.777  0.00  0.00    +0.000 A 
ATOM     12  C   UNL     1       0.799  10.470  19.937  0.00  0.00    +0.000 A 
ATOM     13  S   UNL     1      -0.557  11.521  19.953  0.00  0.00    +0.000 S 
ATOM     14  H   UNL     1      -2.697  12.065  18.560  0.00  0.00    +0.000 HD
ENDBRANCH   1  11
BRANCH   3  15
ATOM     15  C   UNL     1       2.905   6.673  19.170  0.00  0.00    +0.000 C 
BRANCH  15  16
ATOM     16  C   UNL     1       2.189   5.432  19.586  0.00  0.00    +0.000 A 
ATOM     17  C   UNL     1       1.807   5.085  20.871  0.00  0.00    +0.000 A 
ATOM     18  C   UNL     1       1.238   3.798  20.827  0.00  0.00    +0.000 A 
ATOM     19  C   UNL     1       1.268   3.368  19.516  0.00  0.00    +0.000 A 
ATOM     20  C   UNL     1       0.781   2.077  18.958  0.00  0.00    +0.000 C 
ATOM     21  N   UNL     1       1.852   4.371  18.762  0.00  0.00    +0.000 N 
ATOM     22  C   UNL     1       2.102   4.298  17.336  0.00  0.00    +0.000 C 
ENDBRANCH  15  16
ENDBRANCH   3  15
TORSDOF 3
ENDMDL
MODEL 5
REMARK VINA RESULT:      -6.6      2.454      4.480
REMARK  Name = 
REMARK  6 active torsions:
REMARK  status: ('A' for Active; 'I' for Inactive)
REMARK    1  A    between atoms: C_1  and  C_2
REMARK    2  A    between atoms: C_7  and  C_8
REMARK    3  A    between atoms: N_10  and  C_11
REMARK    4  A    between atoms: C_11  and  C_12
REMARK    5  A    between atoms: C_15  and  C_16
REMARK    6  A    between atoms: N_17  and  C_18
REMARK                            x       y       z     vdW  Elec       q    Type
REMARK                         _______ _______ _______ _____ _____    ______ ____
ROOT
ATOM      1  C   UNL     1       2.118   8.650  18.232  0.00  0.00    +0.000 C 
ATOM      2  O   UNL     1       2.159   9.356  17.230  0.00  0.00    +0.000 OA
ATOM      3  N   UNL     1       1.440   8.982  19.387  0.00  0.00    +0.000 N 
ATOM      4  H   UNL     1       1.567   8.345  20.165  0.00  0.00    +0.000 HD
ENDROOT
BRANCH   1  11
ATOM      5  C   UNL     1       2.420   2.577  21.423  0.00  0.00    +0.000 C 
ATOM      6  C   UNL     1       2.209   3.900  20.733  0.00  0.00    +0.000 C 
ATOM      7  O   UNL     1       1.188   4.550  20.924  0.00  0.00    +0.000 OA
ATOM      8  N   UNL     1       3.273   4.240  19.927  0.00  0.00    +0.000 N 
ATOM      9  C   UNL     1       3.289   5.406  19.217  0.00  0.00    +0.000 A 
ATOM     10  N   UNL     1       2.490   6.435  19.308  0.00  0.00    +0.000 NA
ATOM     11  C   UNL     1       2.842   7.385  18.346  0.00  0.00    +0.000 A 
ATOM     12  C   UNL     1       3.912   7.022  17.549  0.00  0.00    +0.000 A 
ATOM     13  S   UNL     1       4.532   5.504  18.054  0.00  0.00    +0.000 S 
ATOM     14  H   UNL     1       4.024   3.589  19.754  0.00  0.00    +0.000 HD
ENDBRANCH   1  11
BRANCH   3  15
ATOM     15  C   UNL     1       0.862  10.284  19.581  0.00  0.00    +0.000 C 
BRANCH  15  16
ATOM     16  C   UNL     1       0.214  10.384  20.922  0.00  0.00    +0.000 A 
ATOM     17  C   UNL     1       0.416   9.546  22.006  0.00  0.00    +0.000 A 
ATOM     18  C   UNL     1      -0.454   9.947  23.038  0.00  0.00    +0.000 A 
ATOM     19  C   UNL     1      -1.177  11.031  22.582  0.00  0.00    +0.000 A 
ATOM     20  C   UNL     1      -2.220  11.812  23.303  0.00  0.00    +0.000 C 
ATOM     21  N   UNL     1      -0.765  11.293  21.288  0.00  0.00    +0.000 N 
ATOM     22  C   UNL     1      -1.306  12.337  20.440  0.00  0.00    +0.000 C 
ENDBRANCH  15  16
ENDBRANCH   3  15
TORSDOF 3
ENDMDL
MODEL 6
REMARK VINA RESULT:      -6.6      2.988      4.094
REMARK  Name = 
REMARK  6 active torsions:
REMARK  status: ('A' for Active; 'I' for Inactive)
REMARK    1  A    between atoms: C_1  and  C_2
REMARK    2  A    between atoms: C_7  and  C_8
REMARK    3  A    between atoms: N_10  and  C_11
REMARK    4  A    between atoms: C_11  and  C_12
REMARK    5  A    between atoms: C_15  and  C_16
REMARK    6  A    between atoms: N_17  and  C_18
REMARK                            x       y       z     vdW  Elec       q    Type
REMARK                         _______ _______ _______ _____ _____    ______ ____
ROOT
ATOM      1  C   UNL     1       1.780   9.355  18.159  0.00  0.00    +0.000 C 
ATOM      2  O   UNL     1       2.298  10.259  17.513  0.00  0.00    +0.000 OA
ATOM      3  N   UNL     1       0.565   9.461  18.805  0.00  0.00    +0.000 N 
ATOM      4  H   UNL     1       0.304   8.664  19.373  0.00  0.00    +0.000 HD
ENDROOT
BRANCH   1  11
ATOM      5  C   UNL     1       6.047   4.654  15.543  0.00  0.00    +0.000 C 
ATOM      6  C   UNL     1       5.193   5.786  16.052  0.00  0.00    +0.000 C 
ATOM      7  O   UNL     1       5.159   6.860  15.461  0.00  0.00    +0.000 OA
ATOM      8  N   UNL     1       4.502   5.442  17.191  0.00  0.00    +0.000 N 
ATOM      9  C   UNL     1       3.662   6.321  17.813  0.00  0.00    +0.000 A 
ATOM     10  N   UNL     1       3.215   7.472  17.385  0.00  0.00    +0.000 NA
ATOM     11  C   UNL     1       2.423   8.061  18.375  0.00  0.00    +0.000 A 
ATOM     12  C   UNL     1       2.309   7.314  19.534  0.00  0.00    +0.000 A 
ATOM     13  S   UNL     1       3.143   5.826  19.359  0.00  0.00    +0.000 S 
ATOM     14  H   UNL     1       4.676   4.567  17.662  0.00  0.00    +0.000 HD
ENDBRANCH   1  11
BRANCH   3  15
ATOM     15  C   UNL     1      -0.124  10.717  18.925  0.00  0.00    +0.000 C 
BRANCH  15  16
ATOM     16  C   UNL     1      -1.463  10.654  18.269  0.00  0.00    +0.000 A 
ATOM     17  C   UNL     1      -1.810   9.899  17.162  0.00  0.00    +0.000 A 
ATOM     18  C   UNL     1      -3.143  10.200  16.825  0.00  0.00    +0.000 A 
ATOM     19  C   UNL     1      -3.607  11.132  17.732  0.00  0.00    +0.000 A 
ATOM     20  C   UNL     1      -4.954  11.761  17.800  0.00  0.00    +0.000 C 
ATOM     21  N   UNL     1      -2.575  11.406  18.612  0.00  0.00    +0.000 N 
ATOM     22  C   UNL     1      -2.643  12.362  19.699  0.00  0.00    +0.000 C 
ENDBRANCH  15  16
ENDBRANCH   3  15
TORSDOF 3
ENDMDL
MODEL 7
REMARK VINA RESULT:      -6.5      4.078      7.589
REMARK  Name = 
REMARK  6 active torsions:
REMARK  status: ('A' for Active; 'I' for Inactive)
REMARK    1  A    between atoms: C_1  and  C_2
REMARK    2  A    between atoms: C_7  and  C_8
REMARK    3  A    between atoms: N_10  and  C_11
REMARK    4  A    between atoms: C_11  and  C_12
REMARK    5  A    between atoms: C_15  and  C_16
REMARK    6  A    between atoms: N_17  and  C_18
REMARK                            x       y       z     vdW  Elec       q    Type
REMARK                         _______ _______ _______ _____ _____    ______ ____
ROOT
ATOM      1  C   UNL     1       0.754  10.064  20.786  0.00  0.00    +0.000 C 
ATOM      2  O   UNL     1       1.124  10.316  21.927  0.00  0.00    +0.000 OA
ATOM      3  N   UNL     1       0.938   8.847  20.162  0.00  0.00    +0.000 N 
ATOM      4  H   UNL     1       0.661   8.811  19.188  0.00  0.00    +0.000 HD
ENDROOT
BRANCH   1  11
ATOM      5  C   UNL     1      -3.293  11.026  15.321  0.00  0.00    +0.000 C 
ATOM      6  C   UNL     1      -2.485  10.698  16.551  0.00  0.00    +0.000 C 
ATOM      7  O   UNL     1      -2.438   9.551  16.982  0.00  0.00    +0.000 OA
ATOM      8  N   UNL     1      -1.848  11.805  17.064  0.00  0.00    +0.000 N 
ATOM      9  C   UNL     1      -1.057  11.727  18.173  0.00  0.00    +0.000 A 
ATOM     10  N   UNL     1      -0.607  10.666  18.788  0.00  0.00    +0.000 NA
ATOM     11  C   UNL     1       0.122  11.054  19.915  0.00  0.00    +0.000 A 
ATOM     12  C   UNL     1       0.189  12.422  20.109  0.00  0.00    +0.000 A 
ATOM     13  S   UNL     1      -0.611  13.237  18.828  0.00  0.00    +0.000 S 
ATOM     14  H   UNL     1      -2.033  12.728  16.699  0.00  0.00    +0.000 HD
ENDBRANCH   1  11
BRANCH   3  15
ATOM     15  C   UNL     1       1.747   7.811  20.743  0.00  0.00    +0.000 C 
BRANCH  15  16
ATOM     16  C   UNL     1       2.265   6.887  19.691  0.00  0.00    +0.000 A 
ATOM     17  C   UNL     1       2.863   7.244  18.495  0.00  0.00    +0.000 A 
ATOM     18  C   UNL     1       3.122   6.068  17.765  0.00  0.00    +0.000 A 
ATOM     19  C   UNL     1       2.687   4.999  18.522  0.00  0.00    +0.000 A 
ATOM     20  C   UNL     1       2.743   3.550  18.186  0.00  0.00    +0.000 C 
ATOM     21  N   UNL     1       2.163   5.506  19.698  0.00  0.00    +0.000 N 
ATOM     22  C   UNL     1       1.567   4.709  20.752  0.00  0.00    +0.000 C 
ENDBRANCH  15  16
ENDBRANCH   3  15
TORSDOF 3
ENDMDL
MODEL 8
REMARK VINA RESULT:      -6.5      2.672      7.377
REMARK  Name = 
REMARK  6 active torsions:
REMARK  status: ('A' for Active; 'I' for Inactive)
REMARK    1  A    between atoms: C_1  and  C_2
REMARK    2  A    between atoms: C_7  and  C_8
REMARK    3  A    between atoms: N_10  and  C_11
REMARK    4  A    between atoms: C_11  and  C_12
REMARK    5  A    between atoms: C_15  and  C_16
REMARK    6  A    between atoms: N_17  and  C_18
REMARK                            x       y       z     vdW  Elec       q    Type
REMARK                         _______ _______ _______ _____ _____    ______ ____
ROOT
ATOM      1  C   UNL     1       2.457   6.323  19.909  0.00  0.00    +0.000 C 
ATOM      2  O   UNL     1       1.877   5.402  20.473  0.00  0.00    +0.000 OA
ATOM      3  N   UNL     1       3.737   6.237  19.398  0.00  0.00    +0.000 N 
ATOM      4  H   UNL     1       4.120   7.103  19.039  0.00  0.00    +0.000 HD
ENDROOT
BRANCH   1  11
ATOM      5  C   UNL     1      -1.115  11.309  22.997  0.00  0.00    +0.000 C 
ATOM      6  C   UNL     1      -0.273  10.186  22.449  0.00  0.00    +0.000 C 
ATOM      7  O   UNL     1       0.116   9.281  23.179  0.00  0.00    +0.000 OA
ATOM      8  N   UNL     1      -0.039  10.324  21.099  0.00  0.00    +0.000 N 
ATOM      9  C   UNL     1       0.696   9.409  20.402  0.00  0.00    +0.000 A 
ATOM     10  N   UNL     1       1.106   8.227  20.778  0.00  0.00    +0.000 NA
ATOM     11  C   UNL     1       1.879   7.657  19.762  0.00  0.00    +0.000 A 
ATOM     12  C   UNL     1       2.027   8.455  18.641  0.00  0.00    +0.000 A 
ATOM     13  S   UNL     1       1.131   9.905  18.830  0.00  0.00    +0.000 S 
ATOM     14  H   UNL     1      -0.314  11.160  20.606  0.00  0.00    +0.000 HD
ENDBRANCH   1  11
BRANCH   3  15
ATOM     15  C   UNL     1       4.577   5.098  19.644  0.00  0.00    +0.000 C 
BRANCH  15  16
ATOM     16  C   UNL     1       5.492   4.852  18.490  0.00  0.00    +0.000 A 
ATOM     17  C   UNL     1       6.831   5.191  18.406  0.00  0.00    +0.000 A 
ATOM     18  C   UNL     1       7.289   4.857  17.117  0.00  0.00    +0.000 A 
ATOM     19  C   UNL     1       6.229   4.310  16.423  0.00  0.00    +0.000 A 
ATOM     20  C   UNL     1       6.208   3.799  15.025  0.00  0.00    +0.000 C 
ATOM     21  N   UNL     1       5.132   4.311  17.267  0.00  0.00    +0.000 N 
ATOM     22  C   UNL     1       3.806   3.849  16.906  0.00  0.00    +0.000 C 
ENDBRANCH  15  16
ENDBRANCH   3  15
TORSDOF 3
ENDMDL
MODEL 9
REMARK VINA RESULT:      -6.5      3.369      7.781
REMARK  Name = 
REMARK  6 active torsions:
REMARK  status: ('A' for Active; 'I' for Inactive)
REMARK    1  A    between atoms: C_1  and  C_2
REMARK    2  A    between atoms: C_7  and  C_8
REMARK    3  A    between atoms: N_10  and  C_11
REMARK    4  A    between atoms: C_11  and  C_12
REMARK    5  A    between atoms: C_15  and  C_16
REMARK    6  A    between atoms: N_17  and  C_18
REMARK                            x       y       z     vdW  Elec       q    Type
REMARK                         _______ _______ _______ _____ _____    ______ ____
ROOT
ATOM      1  C   UNL     1       2.070   8.512  18.505  0.00  0.00    +0.000 C 
ATOM      2  O   UNL     1       2.131   9.063  17.412  0.00  0.00    +0.000 OA
ATOM      3  N   UNL     1       2.711   7.330  18.816  0.00  0.00    +0.000 N 
ATOM      4  H   UNL     1       2.499   6.947  19.729  0.00  0.00    +0.000 HD
ENDROOT
BRANCH   1  11
ATOM      5  C   UNL     1      -2.706  13.081  20.370  0.00  0.00    +0.000 C 
ATOM      6  C   UNL     1      -1.724  12.073  19.831  0.00  0.00    +0.000 C 
ATOM      7  O   UNL     1      -1.525  11.975  18.625  0.00  0.00    +0.000 OA
ATOM      8  N   UNL     1      -1.124  11.347  20.835  0.00  0.00    +0.000 N 
ATOM      9  C   UNL     1      -0.194  10.385  20.565  0.00  0.00    +0.000 A 
ATOM     10  N   UNL     1       0.419  10.127  19.440  0.00  0.00    +0.000 NA
ATOM     11  C   UNL     1       1.250   9.015  19.606  0.00  0.00    +0.000 A 
ATOM     12  C   UNL     1       1.224   8.467  20.876  0.00  0.00    +0.000 A 
ATOM     13  S   UNL     1       0.201   9.394  21.895  0.00  0.00    +0.000 S 
ATOM     14  H   UNL     1      -1.431  11.429  21.792  0.00  0.00    +0.000 HD
ENDBRANCH   1  11
BRANCH   3  15
ATOM     15  C   UNL     1       3.374   6.540  17.814  0.00  0.00    +0.000 C 
BRANCH  15  16
ATOM     16  C   UNL     1       2.949   5.112  17.897  0.00  0.00    +0.000 A 
ATOM     17  C   UNL     1       1.657   4.623  17.806  0.00  0.00    +0.000 A 
ATOM     18  C   UNL     1       1.697   3.232  18.021  0.00  0.00    +0.000 A 
ATOM     19  C   UNL     1       3.014   2.877  18.235  0.00  0.00    +0.000 A 
ATOM     20  C   UNL     1       3.571   1.523  18.505  0.00  0.00    +0.000 C 
ATOM     21  N   UNL     1       3.775   4.030  18.159  0.00  0.00    +0.000 N 
ATOM     22  C   UNL     1       5.209   4.094  18.361  0.00  0.00    +0.000 C 
ENDBRANCH  15  16
ENDBRANCH   3  15
TORSDOF 3
ENDMDL
