MODEL 1
REMARK VINA RESULT:      -7.3      0.000      0.000
REMARK  Name = 
REMARK  11 active torsions:
REMARK  status: ('A' for Active; 'I' for Inactive)
REMARK    1  A    between atoms: C_1  and  C_2
REMARK    2  A    between atoms: C_2  and  C_3
REMARK    3  A    between atoms: C_5  and  C_6
REMARK    4  A    between atoms: C_6  and  C_7
REMARK    5  A    between atoms: C_7  and  C_8
REMARK    6  A    between atoms: C_8  and  C_9
REMARK    7  A    between atoms: C_8  and  C_10
REMARK    8  A    between atoms: C_13  and  C_14
REMARK    9  A    between atoms: C_16  and  O_17
REMARK   10  A    between atoms: C_19  and  C_20
REMARK   11  A    between atoms: C_20  and  O_22
REMARK                            x       y       z     vdW  Elec       q    Type
REMARK                         _______ _______ _______ _____ _____    ______ ____
ROOT
ATOM      1  C   UNL     1       4.887   5.432  15.948  0.00  0.00    +0.000 C 
ATOM      2  C   UNL     1       4.778   6.950  15.697  0.00  0.00    +0.000 C 
ATOM      3  C   UNL     1       4.992   7.793  16.949  0.00  0.00    +0.000 C 
ATOM      4  C   UNL     1       4.015   7.433  18.071  0.00  0.00    +0.000 C 
ATOM      5  C   UNL     1       2.701   8.193  17.846  0.00  0.00    +0.000 C 
ATOM      6  C   UNL     1       3.778   5.938  18.232  0.00  0.00    +0.000 A 
ATOM      7  C   UNL     1       3.174   5.418  19.398  0.00  0.00    +0.000 A 
ATOM      8  C   UNL     1       2.872   4.060  19.543  0.00  0.00    +0.000 A 
ATOM      9  C   UNL     1       3.129   3.185  18.493  0.00  0.00    +0.000 A 
ATOM     10  C   UNL     1       3.718   3.681  17.329  0.00  0.00    +0.000 A 
ATOM     11  C   UNL     1       4.112   5.030  17.201  0.00  0.00    +0.000 A 
ENDROOT
BRANCH   1  12
ATOM     12  C   UNL     1       6.381   4.913  15.869  0.00  0.00    +0.000 C 
ATOM     13  C   UNL     1       7.011   4.653  17.241  0.00  0.00    +0.000 C 
BRANCH  12  14
ATOM     14  C   UNL     1       6.556   3.681  14.943  0.00  0.00    +0.000 C 
BRANCH  14  15
ATOM     15  C   UNL     1       6.691   4.019  13.454  0.00  0.00    +0.000 C 
BRANCH  15  18
ATOM     16  C   UNL     1       6.093   1.850  11.421  0.00  0.00    +0.000 C 
ATOM     17  C   UNL     1       5.145   2.958  11.781  0.00  0.00    +0.000 C 
ATOM     18  C   UNL     1       5.388   3.898  12.715  0.00  0.00    +0.000 C 
BRANCH  17  19
ATOM     19  C   UNL     1       3.847   3.023  11.055  0.00  0.00    +0.000 C 
ATOM     20  O   UNL     1       3.490   3.997  10.412  0.00  0.00    +0.000 OA
ENDBRANCH  17  19
ENDBRANCH  15  18
ENDBRANCH  14  15
ENDBRANCH  12  14
ENDBRANCH   1  12
BRANCH   7  21
ATOM     21  O   UNL     1       2.845   6.187  20.481  0.00  0.00    +0.000 OA
ATOM     22  H   UNL     1       3.618   6.683  20.788  0.00  0.00    +0.000 HD
ENDBRANCH   7  21
BRANCH   9  23
ATOM     23  C   UNL     1       2.882   1.723  18.575  0.00  0.00    +0.000 C 
ATOM     24  O   UNL     1       3.773   0.896  18.450  0.00  0.00    +0.000 OA
BRANCH  23  25
ATOM     25  O   UNL     1       1.590   1.391  18.748  0.00  0.00    +0.000 OA
ATOM     26  H   UNL     1       1.428   0.651  19.362  0.00  0.00    +0.000 HD
ENDBRANCH  23  25
ENDBRANCH   9  23
TORSDOF 8
ENDMDL
MODEL 2
REMARK VINA RESULT:      -7.2      3.881      7.577
REMARK  Name = 
REMARK  11 active torsions:
REMARK  status: ('A' for Active; 'I' for Inactive)
REMARK    1  A    between atoms: C_1  and  C_2
REMARK    2  A    between atoms: C_2  and  C_3
REMARK    3  A    between atoms: C_5  and  C_6
REMARK    4  A    between atoms: C_6  and  C_7
REMARK    5  A    between atoms: C_7  and  C_8
REMARK    6  A    between atoms: C_8  and  C_9
REMARK    7  A    between atoms: C_8  and  C_10
REMARK    8  A    between atoms: C_13  and  C_14
REMARK    9  A    between atoms: C_16  and  O_17
REMARK   10  A    between atoms: C_19  and  C_20
REMARK   11  A    between atoms: C_20  and  O_22
REMARK                            x       y       z     vdW  Elec       q    Type
REMARK                         _______ _______ _______ _____ _____    ______ ____
ROOT
ATOM      1  C   UNL     1       2.404   5.998  17.648  0.00  0.00    +0.000 C 
ATOM      2  C   UNL     1       1.331   4.896  17.542  0.00  0.00    +0.000 C 
ATOM      3  C   UNL     1       1.353   3.906  18.700  0.00  0.00    +0.000 C 
ATOM      4  C   UNL     1       2.712   3.221  18.860  0.00  0.00    +0.000 C 
ATOM      5  C   UNL     1       2.778   2.023  17.903  0.00  0.00    +0.000 C 
ATOM      6  C   UNL     1       3.902   4.152  18.674  0.00  0.00    +0.000 A 
ATOM      7  C   UNL     1       5.197   3.772  19.095  0.00  0.00    +0.000 A 
ATOM      8  C   UNL     1       6.321   4.571  18.869  0.00  0.00    +0.000 A 
ATOM      9  C   UNL     1       6.185   5.764  18.167  0.00  0.00    +0.000 A 
ATOM     10  C   UNL     1       4.917   6.153  17.736  0.00  0.00    +0.000 A 
ATOM     11  C   UNL     1       3.759   5.404  18.034  0.00  0.00    +0.000 A 
ENDROOT
BRANCH   1  12
ATOM     12  C   UNL     1       1.922   7.228  18.520  0.00  0.00    +0.000 C 
ATOM     13  C   UNL     1       2.326   7.129  19.995  0.00  0.00    +0.000 C 
BRANCH  12  14
ATOM     14  C   UNL     1       2.334   8.601  17.930  0.00  0.00    +0.000 C 
BRANCH  14  15
ATOM     15  C   UNL     1       1.201   9.631  17.862  0.00  0.00    +0.000 C 
BRANCH  15  18
ATOM     16  C   UNL     1      -0.565  10.041  20.292  0.00  0.00    +0.000 C 
ATOM     17  C   UNL     1       0.564  10.951  19.902  0.00  0.00    +0.000 C 
ATOM     18  C   UNL     1       1.379  10.750  18.849  0.00  0.00    +0.000 C 
BRANCH  17  19
ATOM     19  C   UNL     1       0.799  12.162  20.736  0.00  0.00    +0.000 C 
ATOM     20  O   UNL     1       1.911  12.549  21.054  0.00  0.00    +0.000 OA
ENDBRANCH  17  19
ENDBRANCH  15  18
ENDBRANCH  14  15
ENDBRANCH  12  14
ENDBRANCH   1  12
BRANCH   7  21
ATOM     21  O   UNL     1       5.458   2.607  19.764  0.00  0.00    +0.000 OA
ATOM     22  H   UNL     1       5.127   2.661  20.673  0.00  0.00    +0.000 HD
ENDBRANCH   7  21
BRANCH   9  23
ATOM     23  C   UNL     1       7.315   6.696  17.920  0.00  0.00    +0.000 C 
ATOM     24  O   UNL     1       7.447   7.309  16.871  0.00  0.00    +0.000 OA
BRANCH  23  25
ATOM     25  O   UNL     1       8.202   6.766  18.930  0.00  0.00    +0.000 OA
ATOM     26  H   UNL     1       7.816   6.899  19.816  0.00  0.00    +0.000 HD
ENDBRANCH  23  25
ENDBRANCH   9  23
TORSDOF 8
ENDMDL
MODEL 3
REMARK VINA RESULT:      -7.2      3.892      7.227
REMARK  Name = 
REMARK  11 active torsions:
REMARK  status: ('A' for Active; 'I' for Inactive)
REMARK    1  A    between atoms: C_1  and  C_2
REMARK    2  A    between atoms: C_2  and  C_3
REMARK    3  A    between atoms: C_5  and  C_6
REMARK    4  A    between atoms: C_6  and  C_7
REMARK    5  A    between atoms: C_7  and  C_8
REMARK    6  A    between atoms: C_8  and  C_9
REMARK    7  A    between atoms: C_8  and  C_10
REMARK    8  A    between atoms: C_13  and  C_14
REMARK    9  A    between atoms: C_16  and  O_17
REMARK   10  A    between atoms: C_19  and  C_20
REMARK   11  A    between atoms: C_20  and  O_22
REMARK                            x       y       z     vdW  Elec       q    Type
REMARK                         _______ _______ _______ _____ _____    ______ ____
ROOT
ATOM      1  C   UNL     1       2.393   5.891  17.589  0.00  0.00    +0.000 C 
ATOM      2  C   UNL     1       1.313   4.793  17.521  0.00  0.00    +0.000 C 
ATOM      3  C   UNL     1       1.309   3.863  18.729  0.00  0.00    +0.000 C 
ATOM      4  C   UNL     1       2.660   3.177  18.945  0.00  0.00    +0.000 C 
ATOM      5  C   UNL     1       2.731   1.932  18.051  0.00  0.00    +0.000 C 
ATOM      6  C   UNL     1       3.860   4.090  18.731  0.00  0.00    +0.000 A 
ATOM      7  C   UNL     1       5.144   3.722  19.192  0.00  0.00    +0.000 A 
ATOM      8  C   UNL     1       6.279   4.501  18.943  0.00  0.00    +0.000 A 
ATOM      9  C   UNL     1       6.163   5.657  18.180  0.00  0.00    +0.000 A 
ATOM     10  C   UNL     1       4.905   6.032  17.709  0.00  0.00    +0.000 A 
ATOM     11  C   UNL     1       3.736   5.308  18.026  0.00  0.00    +0.000 A 
ENDROOT
BRANCH   1  12
ATOM     12  C   UNL     1       1.907   7.168  18.389  0.00  0.00    +0.000 C 
ATOM     13  C   UNL     1       2.294   7.145  19.871  0.00  0.00    +0.000 C 
BRANCH  12  14
ATOM     14  C   UNL     1       2.333   8.506  17.732  0.00  0.00    +0.000 C 
BRANCH  14  15
ATOM     15  C   UNL     1       1.714   9.754  18.371  0.00  0.00    +0.000 C 
BRANCH  15  18
ATOM     16  C   UNL     1      -0.564  10.445  20.249  0.00  0.00    +0.000 C 
ATOM     17  C   UNL     1      -0.716  10.255  18.767  0.00  0.00    +0.000 C 
ATOM     18  C   UNL     1       0.299   9.991  17.922  0.00  0.00    +0.000 C 
BRANCH  17  19
ATOM     19  C   UNL     1      -2.084  10.364  18.190  0.00  0.00    +0.000 C 
ATOM     20  O   UNL     1      -2.415  11.247  17.416  0.00  0.00    +0.000 OA
ENDBRANCH  17  19
ENDBRANCH  15  18
ENDBRANCH  14  15
ENDBRANCH  12  14
ENDBRANCH   1  12
BRANCH   7  21
ATOM     21  O   UNL     1       5.386   2.591  19.923  0.00  0.00    +0.000 OA
ATOM     22  H   UNL     1       4.911   1.838  19.541  0.00  0.00    +0.000 HD
ENDBRANCH   7  21
BRANCH   9  23
ATOM     23  C   UNL     1       7.305   6.567  17.904  0.00  0.00    +0.000 C 
ATOM     24  O   UNL     1       7.453   7.132  16.831  0.00  0.00    +0.000 OA
BRANCH  23  25
ATOM     25  O   UNL     1       8.183   6.673  18.918  0.00  0.00    +0.000 OA
ATOM     26  H   UNL     1       8.403   7.585  19.185  0.00  0.00    +0.000 HD
ENDBRANCH  23  25
ENDBRANCH   9  23
TORSDOF 8
ENDMDL
MODEL 4
REMARK VINA RESULT:      -7.2      2.685      6.058
REMARK  Name = 
REMARK  11 active torsions:
REMARK  status: ('A' for Active; 'I' for Inactive)
REMARK    1  A    between atoms: C_1  and  C_2
REMARK    2  A    between atoms: C_2  and  C_3
REMARK    3  A    between atoms: C_5  and  C_6
REMARK    4  A    between atoms: C_6  and  C_7
REMARK    5  A    between atoms: C_7  and  C_8
REMARK    6  A    between atoms: C_8  and  C_9
REMARK    7  A    between atoms: C_8  and  C_10
REMARK    8  A    between atoms: C_13  and  C_14
REMARK    9  A    between atoms: C_16  and  O_17
REMARK   10  A    between atoms: C_19  and  C_20
REMARK   11  A    between atoms: C_20  and  O_22
REMARK                            x       y       z     vdW  Elec       q    Type
REMARK                         _______ _______ _______ _____ _____    ______ ____
ROOT
ATOM      1  C   UNL     1       4.419   2.863  17.897  0.00  0.00    +0.000 C 
ATOM      2  C   UNL     1       4.761   3.183  19.366  0.00  0.00    +0.000 C 
ATOM      3  C   UNL     1       4.694   4.668  19.700  0.00  0.00    +0.000 C 
ATOM      4  C   UNL     1       5.612   5.511  18.812  0.00  0.00    +0.000 C 
ATOM      5  C   UNL     1       7.026   5.495  19.406  0.00  0.00    +0.000 C 
ATOM      6  C   UNL     1       5.614   5.093  17.347  0.00  0.00    +0.000 A 
ATOM      7  C   UNL     1       6.140   5.942  16.348  0.00  0.00    +0.000 A 
ATOM      8  C   UNL     1       6.227   5.555  15.008  0.00  0.00    +0.000 A 
ATOM      9  C   UNL     1       5.827   4.277  14.635  0.00  0.00    +0.000 A 
ATOM     10  C   UNL     1       5.313   3.420  15.609  0.00  0.00    +0.000 A 
ATOM     11  C   UNL     1       5.133   3.825  16.948  0.00  0.00    +0.000 A 
ENDROOT
BRANCH   1  12
ATOM     12  C   UNL     1       2.862   2.698  17.662  0.00  0.00    +0.000 C 
ATOM     13  C   UNL     1       2.109   2.185  18.894  0.00  0.00    +0.000 C 
BRANCH  12  14
ATOM     14  C   UNL     1       2.186   3.974  17.097  0.00  0.00    +0.000 C 
BRANCH  14  15
ATOM     15  C   UNL     1       1.812   5.017  18.156  0.00  0.00    +0.000 C 
BRANCH  15  18
ATOM     16  C   UNL     1       2.047   7.325  20.108  0.00  0.00    +0.000 C 
ATOM     17  C   UNL     1       2.279   7.440  18.628  0.00  0.00    +0.000 C 
ATOM     18  C   UNL     1       2.218   6.410  17.763  0.00  0.00    +0.000 C 
BRANCH  17  19
ATOM     19  C   UNL     1       2.596   8.786  18.078  0.00  0.00    +0.000 C 
ATOM     20  O   UNL     1       1.830   9.414  17.365  0.00  0.00    +0.000 OA
ENDBRANCH  17  19
ENDBRANCH  15  18
ENDBRANCH  14  15
ENDBRANCH  12  14
ENDBRANCH   1  12
BRANCH   7  21
ATOM     21  O   UNL     1       6.595   7.208  16.601  0.00  0.00    +0.000 OA
ATOM     22  H   UNL     1       6.267   7.823  15.928  0.00  0.00    +0.000 HD
ENDBRANCH   7  21
BRANCH   9  23
ATOM     23  C   UNL     1       5.843   3.797  13.230  0.00  0.00    +0.000 C 
ATOM     24  O   UNL     1       6.871   3.707  12.575  0.00  0.00    +0.000 OA
BRANCH  23  25
ATOM     25  O   UNL     1       4.625   3.517  12.729  0.00  0.00    +0.000 OA
ATOM     26  H   UNL     1       4.592   2.767  12.107  0.00  0.00    +0.000 HD
ENDBRANCH  23  25
ENDBRANCH   9  23
TORSDOF 8
ENDMDL
MODEL 5
REMARK VINA RESULT:      -7.1      2.476      6.700
REMARK  Name = 
REMARK  11 active torsions:
REMARK  status: ('A' for Active; 'I' for Inactive)
REMARK    1  A    between atoms: C_1  and  C_2
REMARK    2  A    between atoms: C_2  and  C_3
REMARK    3  A    between atoms: C_5  and  C_6
REMARK    4  A    between atoms: C_6  and  C_7
REMARK    5  A    between atoms: C_7  and  C_8
REMARK    6  A    between atoms: C_8  and  C_9
REMARK    7  A    between atoms: C_8  and  C_10
REMARK    8  A    between atoms: C_13  and  C_14
REMARK    9  A    between atoms: C_16  and  O_17
REMARK   10  A    between atoms: C_19  and  C_20
REMARK   11  A    between atoms: C_20  and  O_22
REMARK                            x       y       z     vdW  Elec       q    Type
REMARK                         _______ _______ _______ _____ _____    ______ ____
ROOT
ATOM      1  C   UNL     1       4.696   3.225  17.574  0.00  0.00    +0.000 C 
ATOM      2  C   UNL     1       4.879   3.496  19.081  0.00  0.00    +0.000 C 
ATOM      3  C   UNL     1       4.931   4.977  19.435  0.00  0.00    +0.000 C 
ATOM      4  C   UNL     1       6.043   5.718  18.689  0.00  0.00    +0.000 C 
ATOM      5  C   UNL     1       7.359   5.541  19.459  0.00  0.00    +0.000 C 
ATOM      6  C   UNL     1       6.189   5.312  17.229  0.00  0.00    +0.000 A 
ATOM      7  C   UNL     1       6.929   6.104  16.323  0.00  0.00    +0.000 A 
ATOM      8  C   UNL     1       7.147   5.719  14.997  0.00  0.00    +0.000 A 
ATOM      9  C   UNL     1       6.661   4.495  14.550  0.00  0.00    +0.000 A 
ATOM     10  C   UNL     1       5.934   3.695  15.432  0.00  0.00    +0.000 A 
ATOM     11  C   UNL     1       5.628   4.108  16.745  0.00  0.00    +0.000 A 
ENDROOT
BRANCH   1  12
ATOM     12  C   UNL     1       3.174   3.236  17.139  0.00  0.00    +0.000 C 
ATOM     13  C   UNL     1       2.412   1.972  17.550  0.00  0.00    +0.000 C 
BRANCH  12  14
ATOM     14  C   UNL     1       2.413   4.507  17.594  0.00  0.00    +0.000 C 
BRANCH  14  15
ATOM     15  C   UNL     1       1.109   4.232  18.351  0.00  0.00    +0.000 C 
BRANCH  15  18
ATOM     16  C   UNL     1       1.700   5.679  20.949  0.00  0.00    +0.000 C 
ATOM     17  C   UNL     1       1.645   4.185  20.806  0.00  0.00    +0.000 C 
ATOM     18  C   UNL     1       1.341   3.538  19.664  0.00  0.00    +0.000 C 
BRANCH  17  19
ATOM     19  C   UNL     1       1.950   3.361  22.007  0.00  0.00    +0.000 C 
ATOM     20  O   UNL     1       2.734   2.426  21.995  0.00  0.00    +0.000 OA
ENDBRANCH  17  19
ENDBRANCH  15  18
ENDBRANCH  14  15
ENDBRANCH  12  14
ENDBRANCH   1  12
BRANCH   7  21
ATOM     21  O   UNL     1       7.483   7.310  16.658  0.00  0.00    +0.000 OA
ATOM     22  H   UNL     1       7.111   7.630  17.493  0.00  0.00    +0.000 HD
ENDBRANCH   7  21
BRANCH   9  23
ATOM     23  C   UNL     1       6.806   4.025  13.148  0.00  0.00    +0.000 C 
ATOM     24  O   UNL     1       7.441   4.644  12.308  0.00  0.00    +0.000 OA
BRANCH  23  25
ATOM     25  O   UNL     1       6.138   2.889  12.876  0.00  0.00    +0.000 OA
ATOM     26  H   UNL     1       6.568   2.069  13.183  0.00  0.00    +0.000 HD
ENDBRANCH  23  25
ENDBRANCH   9  23
TORSDOF 8
ENDMDL
MODEL 6
REMARK VINA RESULT:      -7.0      3.174      4.699
REMARK  Name = 
REMARK  11 active torsions:
REMARK  status: ('A' for Active; 'I' for Inactive)
REMARK    1  A    between atoms: C_1  and  C_2
REMARK    2  A    between atoms: C_2  and  C_3
REMARK    3  A    between atoms: C_5  and  C_6
REMARK    4  A    between atoms: C_6  and  C_7
REMARK    5  A    between atoms: C_7  and  C_8
REMARK    6  A    between atoms: C_8  and  C_9
REMARK    7  A    between atoms: C_8  and  C_10
REMARK    8  A    between atoms: C_13  and  C_14
REMARK    9  A    between atoms: C_16  and  O_17
REMARK   10  A    between atoms: C_19  and  C_20
REMARK   11  A    between atoms: C_20  and  O_22
REMARK                            x       y       z     vdW  Elec       q    Type
REMARK                         _______ _______ _______ _____ _____    ______ ____
ROOT
ATOM      1  C   UNL     1       4.087   4.875  17.186  0.00  0.00    +0.000 C 
ATOM      2  C   UNL     1       4.191   6.178  16.369  0.00  0.00    +0.000 C 
ATOM      3  C   UNL     1       4.427   7.419  17.222  0.00  0.00    +0.000 C 
ATOM      4  C   UNL     1       3.340   7.617  18.281  0.00  0.00    +0.000 C 
ATOM      5  C   UNL     1       2.152   8.347  17.641  0.00  0.00    +0.000 C 
ATOM      6  C   UNL     1       2.903   6.331  18.970  0.00  0.00    +0.000 A 
ATOM      7  C   UNL     1       2.161   6.365  20.172  0.00  0.00    +0.000 A 
ATOM      8  C   UNL     1       1.679   5.205  20.786  0.00  0.00    +0.000 A 
ATOM      9  C   UNL     1       1.891   3.971  20.182  0.00  0.00    +0.000 A 
ATOM     10  C   UNL     1       2.614   3.917  18.990  0.00  0.00    +0.000 A 
ATOM     11  C   UNL     1       3.185   5.067  18.405  0.00  0.00    +0.000 A 
ENDROOT
BRANCH   1  12
ATOM     12  C   UNL     1       5.504   4.230  17.476  0.00  0.00    +0.000 C 
ATOM     13  C   UNL     1       6.441   4.244  16.264  0.00  0.00    +0.000 C 
BRANCH  12  14
ATOM     14  C   UNL     1       6.208   4.827  18.721  0.00  0.00    +0.000 C 
BRANCH  14  15
ATOM     15  C   UNL     1       7.699   5.125  18.527  0.00  0.00    +0.000 C 
BRANCH  15  18
ATOM     16  C   UNL     1       7.631   7.567  16.731  0.00  0.00    +0.000 C 
ATOM     17  C   UNL     1       8.083   7.582  18.163  0.00  0.00    +0.000 C 
ATOM     18  C   UNL     1       8.075   6.509  18.978  0.00  0.00    +0.000 C 
BRANCH  17  19
ATOM     19  C   UNL     1       8.578   8.870  18.722  0.00  0.00    +0.000 C 
ATOM     20  O   UNL     1       8.544   9.922  18.106  0.00  0.00    +0.000 OA
ENDBRANCH  17  19
ENDBRANCH  15  18
ENDBRANCH  14  15
ENDBRANCH  12  14
ENDBRANCH   1  12
BRANCH   7  21
ATOM     21  O   UNL     1       1.862   7.522  20.838  0.00  0.00    +0.000 OA
ATOM     22  H   UNL     1       0.933   7.758  20.701  0.00  0.00    +0.000 HD
ENDBRANCH   7  21
BRANCH   9  23
ATOM     23  C   UNL     1       1.454   2.685  20.785  0.00  0.00    +0.000 C 
ATOM     24  O   UNL     1       1.307   2.537  21.988  0.00  0.00    +0.000 OA
BRANCH  23  25
ATOM     25  O   UNL     1       1.282   1.690  19.895  0.00  0.00    +0.000 OA
ATOM     26  H   UNL     1       1.531   1.905  18.976  0.00  0.00    +0.000 HD
ENDBRANCH  23  25
ENDBRANCH   9  23
TORSDOF 8
ENDMDL
MODEL 7
REMARK VINA RESULT:      -6.9      3.772      7.591
REMARK  Name = 
REMARK  11 active torsions:
REMARK  status: ('A' for Active; 'I' for Inactive)
REMARK    1  A    between atoms: C_1  and  C_2
REMARK    2  A    between atoms: C_2  and  C_3
REMARK    3  A    between atoms: C_5  and  C_6
REMARK    4  A    between atoms: C_6  and  C_7
REMARK    5  A    between atoms: C_7  and  C_8
REMARK    6  A    between atoms: C_8  and  C_9
REMARK    7  A    between atoms: C_8  and  C_10
REMARK    8  A    between atoms: C_13  and  C_14
REMARK    9  A    between atoms: C_16  and  O_17
REMARK   10  A    between atoms: C_19  and  C_20
REMARK   11  A    between atoms: C_20  and  O_22
REMARK                            x       y       z     vdW  Elec       q    Type
REMARK                         _______ _______ _______ _____ _____    ______ ____
ROOT
ATOM      1  C   UNL     1       2.352   6.001  17.643  0.00  0.00    +0.000 C 
ATOM      2  C   UNL     1       1.226   4.949  17.597  0.00  0.00    +0.000 C 
ATOM      3  C   UNL     1       1.268   3.957  18.753  0.00  0.00    +0.000 C 
ATOM      4  C   UNL     1       2.602   3.210  18.835  0.00  0.00    +0.000 C 
ATOM      5  C   UNL     1       2.559   2.013  17.877  0.00  0.00    +0.000 C 
ATOM      6  C   UNL     1       3.820   4.088  18.583  0.00  0.00    +0.000 A 
ATOM      7  C   UNL     1       5.118   3.649  18.931  0.00  0.00    +0.000 A 
ATOM      8  C   UNL     1       6.263   4.396  18.641  0.00  0.00    +0.000 A 
ATOM      9  C   UNL     1       6.142   5.596  17.948  0.00  0.00    +0.000 A 
ATOM     10  C   UNL     1       4.870   6.042  17.588  0.00  0.00    +0.000 A 
ATOM     11  C   UNL     1       3.698   5.346  17.952  0.00  0.00    +0.000 A 
ENDROOT
BRANCH   1  12
ATOM     12  C   UNL     1       1.976   7.250  18.540  0.00  0.00    +0.000 C 
ATOM     13  C   UNL     1       2.317   7.064  20.022  0.00  0.00    +0.000 C 
BRANCH  12  14
ATOM     14  C   UNL     1       2.554   8.587  18.009  0.00  0.00    +0.000 C 
BRANCH  14  15
ATOM     15  C   UNL     1       1.520   9.706  17.842  0.00  0.00    +0.000 C 
BRANCH  15  18
ATOM     16  C   UNL     1       1.565  12.609  18.719  0.00  0.00    +0.000 C 
ATOM     17  C   UNL     1       1.043  11.479  19.559  0.00  0.00    +0.000 C 
ATOM     18  C   UNL     1       0.980  10.194  19.158  0.00  0.00    +0.000 C 
BRANCH  17  19
ATOM     19  C   UNL     1       0.563  11.798  20.931  0.00  0.00    +0.000 C 
ATOM     20  O   UNL     1       0.903  12.799  21.541  0.00  0.00    +0.000 OA
ENDBRANCH  17  19
ENDBRANCH  15  18
ENDBRANCH  14  15
ENDBRANCH  12  14
ENDBRANCH   1  12
BRANCH   7  21
ATOM     21  O   UNL     1       5.363   2.472  19.584  0.00  0.00    +0.000 OA
ATOM     22  H   UNL     1       4.552   1.945  19.642  0.00  0.00    +0.000 HD
ENDBRANCH   7  21
BRANCH   9  23
ATOM     23  C   UNL     1       7.297   6.476  17.637  0.00  0.00    +0.000 C 
ATOM     24  O   UNL     1       7.952   7.036  18.503  0.00  0.00    +0.000 OA
BRANCH  23  25
ATOM     25  O   UNL     1       7.527   6.639  16.321  0.00  0.00    +0.000 OA
ATOM     26  H   UNL     1       8.464   6.598  16.053  0.00  0.00    +0.000 HD
ENDBRANCH  23  25
ENDBRANCH   9  23
TORSDOF 8
ENDMDL
MODEL 8
REMARK VINA RESULT:      -6.9      1.089      1.286
REMARK  Name = 
REMARK  11 active torsions:
REMARK  status: ('A' for Active; 'I' for Inactive)
REMARK    1  A    between atoms: C_1  and  C_2
REMARK    2  A    between atoms: C_2  and  C_3
REMARK    3  A    between atoms: C_5  and  C_6
REMARK    4  A    between atoms: C_6  and  C_7
REMARK    5  A    between atoms: C_7  and  C_8
REMARK    6  A    between atoms: C_8  and  C_9
REMARK    7  A    between atoms: C_8  and  C_10
REMARK    8  A    between atoms: C_13  and  C_14
REMARK    9  A    between atoms: C_16  and  O_17
REMARK   10  A    between atoms: C_19  and  C_20
REMARK   11  A    between atoms: C_20  and  O_22
REMARK                            x       y       z     vdW  Elec       q    Type
REMARK                         _______ _______ _______ _____ _____    ______ ____
ROOT
ATOM      1  C   UNL     1       4.809   5.765  16.695  0.00  0.00    +0.000 C 
ATOM      2  C   UNL     1       4.542   7.251  16.381  0.00  0.00    +0.000 C 
ATOM      3  C   UNL     1       4.267   8.098  17.618  0.00  0.00    +0.000 C 
ATOM      4  C   UNL     1       3.085   7.573  18.436  0.00  0.00    +0.000 C 
ATOM      5  C   UNL     1       1.784   8.122  17.835  0.00  0.00    +0.000 C 
ATOM      6  C   UNL     1       3.046   6.057  18.568  0.00  0.00    +0.000 A 
ATOM      7  C   UNL     1       2.229   5.431  19.537  0.00  0.00    +0.000 A 
ATOM      8  C   UNL     1       2.112   4.041  19.631  0.00  0.00    +0.000 A 
ATOM      9  C   UNL     1       2.782   3.233  18.719  0.00  0.00    +0.000 A 
ATOM     10  C   UNL     1       3.587   3.832  17.750  0.00  0.00    +0.000 A 
ATOM     11  C   UNL     1       3.788   5.228  17.697  0.00  0.00    +0.000 A 
ENDROOT
BRANCH   1  12
ATOM     12  C   UNL     1       6.328   5.486  17.047  0.00  0.00    +0.000 C 
ATOM     13  C   UNL     1       6.564   5.166  18.526  0.00  0.00    +0.000 C 
BRANCH  12  14
ATOM     14  C   UNL     1       6.982   4.410  16.142  0.00  0.00    +0.000 C 
BRANCH  14  15
ATOM     15  C   UNL     1       6.974   4.746  14.647  0.00  0.00    +0.000 C 
BRANCH  15  18
ATOM     16  C   UNL     1       7.371   4.071  11.717  0.00  0.00    +0.000 C 
ATOM     17  C   UNL     1       6.214   3.594  12.547  0.00  0.00    +0.000 C 
ATOM     18  C   UNL     1       6.055   3.855  13.859  0.00  0.00    +0.000 C 
BRANCH  17  19
ATOM     19  C   UNL     1       5.167   2.777  11.874  0.00  0.00    +0.000 C 
ATOM     20  O   UNL     1       5.412   1.750  11.263  0.00  0.00    +0.000 OA
ENDBRANCH  17  19
ENDBRANCH  15  18
ENDBRANCH  14  15
ENDBRANCH  12  14
ENDBRANCH   1  12
BRANCH   7  21
ATOM     21  O   UNL     1       1.498   6.123  20.464  0.00  0.00    +0.000 OA
ATOM     22  H   UNL     1       1.257   6.995  20.118  0.00  0.00    +0.000 HD
ENDBRANCH   7  21
BRANCH   9  23
ATOM     23  C   UNL     1       2.751   1.749  18.771  0.00  0.00    +0.000 C 
ATOM     24  O   UNL     1       3.746   1.062  18.599  0.00  0.00    +0.000 OA
BRANCH  23  25
ATOM     25  O   UNL     1       1.526   1.231  18.975  0.00  0.00    +0.000 OA
ATOM     26  H   UNL     1       0.823   1.882  19.158  0.00  0.00    +0.000 HD
ENDBRANCH  23  25
ENDBRANCH   9  23
TORSDOF 8
ENDMDL
MODEL 9
REMARK VINA RESULT:      -6.9      3.728      5.774
REMARK  Name = 
REMARK  11 active torsions:
REMARK  status: ('A' for Active; 'I' for Inactive)
REMARK    1  A    between atoms: C_1  and  C_2
REMARK    2  A    between atoms: C_2  and  C_3
REMARK    3  A    between atoms: C_5  and  C_6
REMARK    4  A    between atoms: C_6  and  C_7
REMARK    5  A    between atoms: C_7  and  C_8
REMARK    6  A    between atoms: C_8  and  C_9
REMARK    7  A    between atoms: C_8  and  C_10
REMARK    8  A    between atoms: C_13  and  C_14
REMARK    9  A    between atoms: C_16  and  O_17
REMARK   10  A    between atoms: C_19  and  C_20
REMARK   11  A    between atoms: C_20  and  O_22
REMARK                            x       y       z     vdW  Elec       q    Type
REMARK                         _______ _______ _______ _____ _____    ______ ____
ROOT
ATOM      1  C   UNL     1       5.420   5.655  17.519  0.00  0.00    +0.000 C 
ATOM      2  C   UNL     1       4.652   6.800  16.829  0.00  0.00    +0.000 C 
ATOM      3  C   UNL     1       3.811   7.637  17.786  0.00  0.00    +0.000 C 
ATOM      4  C   UNL     1       2.796   6.794  18.563  0.00  0.00    +0.000 C 
ATOM      5  C   UNL     1       1.540   6.612  17.701  0.00  0.00    +0.000 C 
ATOM      6  C   UNL     1       3.341   5.458  19.049  0.00  0.00    +0.000 A 
ATOM      7  C   UNL     1       2.662   4.711  20.037  0.00  0.00    +0.000 A 
ATOM      8  C   UNL     1       3.094   3.446  20.447  0.00  0.00    +0.000 A 
ATOM      9  C   UNL     1       4.205   2.871  19.840  0.00  0.00    +0.000 A 
ATOM     10  C   UNL     1       4.885   3.589  18.856  0.00  0.00    +0.000 A 
ATOM     11  C   UNL     1       4.517   4.903  18.494  0.00  0.00    +0.000 A 
ENDROOT
BRANCH   1  12
ATOM     12  C   UNL     1       6.814   6.129  18.102  0.00  0.00    +0.000 C 
ATOM     13  C   UNL     1       7.858   5.010  18.176  0.00  0.00    +0.000 C 
BRANCH  12  14
ATOM     14  C   UNL     1       7.393   7.372  17.379  0.00  0.00    +0.000 C 
BRANCH  14  15
ATOM     15  C   UNL     1       8.259   8.277  18.262  0.00  0.00    +0.000 C 
BRANCH  15  18
ATOM     16  C   UNL     1       9.663  10.538  19.715  0.00  0.00    +0.000 C 
ATOM     17  C   UNL     1       8.929  10.694  18.414  0.00  0.00    +0.000 C 
ATOM     18  C   UNL     1       8.341   9.685  17.742  0.00  0.00    +0.000 C 
BRANCH  17  19
ATOM     19  C   UNL     1       8.843  12.058  17.825  0.00  0.00    +0.000 C 
ATOM     20  O   UNL     1       9.552  12.985  18.180  0.00  0.00    +0.000 OA
ENDBRANCH  17  19
ENDBRANCH  15  18
ENDBRANCH  14  15
ENDBRANCH  12  14
ENDBRANCH   1  12
BRANCH   7  21
ATOM     21  O   UNL     1       1.540   5.159  20.680  0.00  0.00    +0.000 OA
ATOM     22  H   UNL     1       0.769   4.640  20.408  0.00  0.00    +0.000 HD
ENDBRANCH   7  21
BRANCH   9  23
ATOM     23  C   UNL     1       4.761   1.553  20.242  0.00  0.00    +0.000 C 
ATOM     24  O   UNL     1       5.247   1.351  21.345  0.00  0.00    +0.000 OA
BRANCH  23  25
ATOM     25  O   UNL     1       4.726   0.621  19.272  0.00  0.00    +0.000 OA
ATOM     26  H   UNL     1       4.029  -0.055  19.369  0.00  0.00    +0.000 HD
ENDBRANCH  23  25
ENDBRANCH   9  23
TORSDOF 8
ENDMDL
