MODEL 1
REMARK VINA RESULT:      -6.6      0.000      0.000
REMARK  Name = 
REMARK  0 active torsions:
REMARK  status: ('A' for Active; 'I' for Inactive)
REMARK                            x       y       z     vdW  Elec       q    Type
REMARK                         _______ _______ _______ _____ _____    ______ ____
ROOT
ATOM      1  O   UNL     1       0.933   4.165  17.118  0.00  0.00    +0.000 OA
ATOM      2  C   UNL     1       1.610   3.852  18.093  0.00  0.00    +0.000 C 
ATOM      3  C   UNL     1       1.086   2.977  19.205  0.00  0.00    +0.000 C 
ATOM      4  C   UNL     1       1.009   3.678  20.552  0.00  0.00    +0.000 C 
ATOM      5  C   UNL     1       2.379   4.084  21.077  0.00  0.00    +0.000 C 
ATOM      6  O   UNL     1       2.901   5.193  20.345  0.00  0.00    +0.000 OA
ATOM      7  C   UNL     1       3.620   4.801  19.252  0.00  0.00    +0.000 A 
ATOM      8  C   UNL     1       4.978   5.122  19.245  0.00  0.00    +0.000 A 
ATOM      9  C   UNL     1       5.764   4.800  18.136  0.00  0.00    +0.000 A 
ATOM     10  C   UNL     1       5.181   4.197  17.021  0.00  0.00    +0.000 A 
ATOM     11 CL   UNL     1       6.156   3.795  15.664  0.00  0.00    +0.000 Cl
ATOM     12  C   UNL     1       3.817   3.914  17.002  0.00  0.00    +0.000 A 
ATOM     13  C   UNL     1       3.042   4.206  18.130  0.00  0.00    +0.000 A 
ENDROOT
TORSDOF 0
ENDMDL
MODEL 2
REMARK VINA RESULT:      -6.4      2.932      4.652
REMARK  Name = 
REMARK  0 active torsions:
REMARK  status: ('A' for Active; 'I' for Inactive)
REMARK                            x       y       z     vdW  Elec       q    Type
REMARK                         _______ _______ _______ _____ _____    ______ ____
ROOT
ATOM      1  O   UNL     1       5.691   6.340  15.469  0.00  0.00    +0.000 OA
ATOM      2  C   UNL     1       5.838   6.313  16.687  0.00  0.00    +0.000 C 
ATOM      3  C   UNL     1       6.637   7.351  17.438  0.00  0.00    +0.000 C 
ATOM      4  C   UNL     1       7.868   6.792  18.133  0.00  0.00    +0.000 C 
ATOM      5  C   UNL     1       7.518   5.797  19.230  0.00  0.00    +0.000 C 
ATOM      6  O   UNL     1       7.067   4.560  18.676  0.00  0.00    +0.000 OA
ATOM      7  C   UNL     1       5.717   4.548  18.464  0.00  0.00    +0.000 A 
ATOM      8  C   UNL     1       4.974   3.625  19.199  0.00  0.00    +0.000 A 
ATOM      9  C   UNL     1       3.597   3.518  18.995  0.00  0.00    +0.000 A 
ATOM     10  C   UNL     1       2.974   4.306  18.026  0.00  0.00    +0.000 A 
ATOM     11 CL   UNL     1       1.277   4.177  17.786  0.00  0.00    +0.000 Cl
ATOM     12  C   UNL     1       3.717   5.199  17.256  0.00  0.00    +0.000 A 
ATOM     13  C   UNL     1       5.090   5.326  17.490  0.00  0.00    +0.000 A 
ENDROOT
TORSDOF 0
ENDMDL
MODEL 3
REMARK VINA RESULT:      -6.3      1.910      2.622
REMARK  Name = 
REMARK  0 active torsions:
REMARK  status: ('A' for Active; 'I' for Inactive)
REMARK                            x       y       z     vdW  Elec       q    Type
REMARK                         _______ _______ _______ _____ _____    ______ ____
ROOT
ATOM      1  O   UNL     1       4.411   1.777  19.870  0.00  0.00    +0.000 OA
ATOM      2  C   UNL     1       3.683   2.733  20.123  0.00  0.00    +0.000 C 
ATOM      3  C   UNL     1       2.810   2.793  21.353  0.00  0.00    +0.000 C 
ATOM      4  C   UNL     1       1.321   2.831  21.046  0.00  0.00    +0.000 C 
ATOM      5  C   UNL     1       0.912   4.092  20.296  0.00  0.00    +0.000 C 
ATOM      6  O   UNL     1       1.358   4.049  18.940  0.00  0.00    +0.000 OA
ATOM      7  C   UNL     1       2.613   4.567  18.790  0.00  0.00    +0.000 A 
ATOM      8  C   UNL     1       2.730   5.713  18.004  0.00  0.00    +0.000 A 
ATOM      9  C   UNL     1       3.989   6.267  17.762  0.00  0.00    +0.000 A 
ATOM     10  C   UNL     1       5.131   5.648  18.271  0.00  0.00    +0.000 A 
ATOM     11 CL   UNL     1       6.677   6.340  17.978  0.00  0.00    +0.000 Cl
ATOM     12  C   UNL     1       5.026   4.477  19.021  0.00  0.00    +0.000 A 
ATOM     13  C   UNL     1       3.760   3.947  19.289  0.00  0.00    +0.000 A 
ENDROOT
TORSDOF 0
ENDMDL
MODEL 4
REMARK VINA RESULT:      -6.2      1.995      3.021
REMARK  Name = 
REMARK  0 active torsions:
REMARK  status: ('A' for Active; 'I' for Inactive)
REMARK                            x       y       z     vdW  Elec       q    Type
REMARK                         _______ _______ _______ _____ _____    ______ ____
ROOT
ATOM      1  O   UNL     1       5.008   1.942  20.402  0.00  0.00    +0.000 OA
ATOM      2  C   UNL     1       4.180   2.699  19.903  0.00  0.00    +0.000 C 
ATOM      3  C   UNL     1       2.765   2.817  20.416  0.00  0.00    +0.000 C 
ATOM      4  C   UNL     1       1.711   2.378  19.413  0.00  0.00    +0.000 C 
ATOM      5  C   UNL     1       1.681   3.264  18.173  0.00  0.00    +0.000 C 
ATOM      6  O   UNL     1       2.814   3.016  17.340  0.00  0.00    +0.000 OA
ATOM      7  C   UNL     1       3.883   3.800  17.671  0.00  0.00    +0.000 A 
ATOM      8  C   UNL     1       4.316   4.711  16.707  0.00  0.00    +0.000 A 
ATOM      9  C   UNL     1       5.436   5.507  16.955  0.00  0.00    +0.000 A 
ATOM     10  C   UNL     1       6.145   5.360  18.148  0.00  0.00    +0.000 A 
ATOM     11 CL   UNL     1       7.517   6.349  18.450  0.00  0.00    +0.000 Cl
ATOM     12  C   UNL     1       5.744   4.421  19.097  0.00  0.00    +0.000 A 
ATOM     13  C   UNL     1       4.601   3.651  18.858  0.00  0.00    +0.000 A 
ENDROOT
TORSDOF 0
ENDMDL
MODEL 5
REMARK VINA RESULT:      -6.2      1.584      1.658
REMARK  Name = 
REMARK  0 active torsions:
REMARK  status: ('A' for Active; 'I' for Inactive)
REMARK                            x       y       z     vdW  Elec       q    Type
REMARK                         _______ _______ _______ _____ _____    ______ ____
ROOT
ATOM      1  O   UNL     1       2.001   2.568  17.437  0.00  0.00    +0.000 OA
ATOM      2  C   UNL     1       2.533   3.414  18.151  0.00  0.00    +0.000 C 
ATOM      3  C   UNL     1       2.419   3.402  19.656  0.00  0.00    +0.000 C 
ATOM      4  C   UNL     1       1.693   4.611  20.225  0.00  0.00    +0.000 C 
ATOM      5  C   UNL     1       2.438   5.914  19.966  0.00  0.00    +0.000 C 
ATOM      6  O   UNL     1       2.342   6.295  18.593  0.00  0.00    +0.000 OA
ATOM      7  C   UNL     1       3.346   5.764  17.835  0.00  0.00    +0.000 A 
ATOM      8  C   UNL     1       4.232   6.666  17.245  0.00  0.00    +0.000 A 
ATOM      9  C   UNL     1       5.251   6.197  16.412  0.00  0.00    +0.000 A 
ATOM     10  C   UNL     1       5.355   4.833  16.139  0.00  0.00    +0.000 A 
ATOM     11 CL   UNL     1       6.616   4.262  15.121  0.00  0.00    +0.000 Cl
ATOM     12  C   UNL     1       4.446   3.930  16.690  0.00  0.00    +0.000 A 
ATOM     13  C   UNL     1       3.450   4.402  17.551  0.00  0.00    +0.000 A 
ENDROOT
TORSDOF 0
ENDMDL
MODEL 6
REMARK VINA RESULT:      -6.1      2.816      4.917
REMARK  Name = 
REMARK  0 active torsions:
REMARK  status: ('A' for Active; 'I' for Inactive)
REMARK                            x       y       z     vdW  Elec       q    Type
REMARK                         _______ _______ _______ _____ _____    ______ ____
ROOT
ATOM      1  O   UNL     1       6.894   5.303  19.893  0.00  0.00    +0.000 OA
ATOM      2  C   UNL     1       6.319   5.102  18.827  0.00  0.00    +0.000 C 
ATOM      3  C   UNL     1       7.057   4.797  17.546  0.00  0.00    +0.000 C 
ATOM      4  C   UNL     1       6.875   5.852  16.467  0.00  0.00    +0.000 C 
ATOM      5  C   UNL     1       5.431   5.958  15.993  0.00  0.00    +0.000 C 
ATOM      6  O   UNL     1       4.613   6.588  16.980  0.00  0.00    +0.000 OA
ATOM      7  C   UNL     1       4.082   5.691  17.863  0.00  0.00    +0.000 A 
ATOM      8  C   UNL     1       2.692   5.567  17.873  0.00  0.00    +0.000 A 
ATOM      9  C   UNL     1       2.077   4.709  18.788  0.00  0.00    +0.000 A 
ATOM     10  C   UNL     1       2.850   4.011  19.716  0.00  0.00    +0.000 A 
ATOM     11 CL   UNL     1       2.087   2.950  20.833  0.00  0.00    +0.000 Cl
ATOM     12  C   UNL     1       4.235   4.164  19.742  0.00  0.00    +0.000 A 
ATOM     13  C   UNL     1       4.848   4.998  18.800  0.00  0.00    +0.000 A 
ENDROOT
TORSDOF 0
ENDMDL
MODEL 7
REMARK VINA RESULT:      -6.1      3.121      4.166
REMARK  Name = 
REMARK  0 active torsions:
REMARK  status: ('A' for Active; 'I' for Inactive)
REMARK                            x       y       z     vdW  Elec       q    Type
REMARK                         _______ _______ _______ _____ _____    ______ ____
ROOT
ATOM      1  O   UNL     1       2.206   3.561  22.020  0.00  0.00    +0.000 OA
ATOM      2  C   UNL     1       1.869   3.703  20.849  0.00  0.00    +0.000 C 
ATOM      3  C   UNL     1       1.098   2.652  20.086  0.00  0.00    +0.000 C 
ATOM      4  C   UNL     1       1.860   2.069  18.907  0.00  0.00    +0.000 C 
ATOM      5  C   UNL     1       2.149   3.106  17.829  0.00  0.00    +0.000 C 
ATOM      6  O   UNL     1       3.168   4.013  18.250  0.00  0.00    +0.000 OA
ATOM      7  C   UNL     1       2.659   5.091  18.917  0.00  0.00    +0.000 A 
ATOM      8  C   UNL     1       2.841   6.341  18.323  0.00  0.00    +0.000 A 
ATOM      9  C   UNL     1       2.395   7.493  18.974  0.00  0.00    +0.000 A 
ATOM     10  C   UNL     1       1.807   7.396  20.235  0.00  0.00    +0.000 A 
ATOM     11 CL   UNL     1       1.252   8.817  21.026  0.00  0.00    +0.000 Cl
ATOM     12  C   UNL     1       1.662   6.156  20.855  0.00  0.00    +0.000 A 
ATOM     13  C   UNL     1       2.078   5.002  20.182  0.00  0.00    +0.000 A 
ENDROOT
TORSDOF 0
ENDMDL
MODEL 8
REMARK VINA RESULT:      -6.0      3.392      4.912
REMARK  Name = 
REMARK  0 active torsions:
REMARK  status: ('A' for Active; 'I' for Inactive)
REMARK                            x       y       z     vdW  Elec       q    Type
REMARK                         _______ _______ _______ _____ _____    ______ ____
ROOT
ATOM      1  O   UNL     1       5.517   6.617  15.476  0.00  0.00    +0.000 OA
ATOM      2  C   UNL     1       5.708   6.616  16.689  0.00  0.00    +0.000 C 
ATOM      3  C   UNL     1       7.084   6.720  17.300  0.00  0.00    +0.000 C 
ATOM      4  C   UNL     1       7.497   5.490  18.093  0.00  0.00    +0.000 C 
ATOM      5  C   UNL     1       6.616   5.261  19.314  0.00  0.00    +0.000 C 
ATOM      6  O   UNL     1       5.325   4.785  18.933  0.00  0.00    +0.000 OA
ATOM      7  C   UNL     1       4.445   5.803  18.696  0.00  0.00    +0.000 A 
ATOM      8  C   UNL     1       3.337   5.885  19.540  0.00  0.00    +0.000 A 
ATOM      9  C   UNL     1       2.369   6.867  19.323  0.00  0.00    +0.000 A 
ATOM     10  C   UNL     1       2.489   7.737  18.239  0.00  0.00    +0.000 A 
ATOM     11 CL   UNL     1       1.298   8.949  17.984  0.00  0.00    +0.000 Cl
ATOM     12  C   UNL     1       3.570   7.632  17.365  0.00  0.00    +0.000 A 
ATOM     13  C   UNL     1       4.555   6.669  17.608  0.00  0.00    +0.000 A 
ENDROOT
TORSDOF 0
ENDMDL
MODEL 9
REMARK VINA RESULT:      -6.0      2.746      4.464
REMARK  Name = 
REMARK  0 active torsions:
REMARK  status: ('A' for Active; 'I' for Inactive)
REMARK                            x       y       z     vdW  Elec       q    Type
REMARK                         _______ _______ _______ _____ _____    ______ ____
ROOT
ATOM      1  O   UNL     1       2.350   6.899  18.086  0.00  0.00    +0.000 OA
ATOM      2  C   UNL     1       3.243   6.060  18.010  0.00  0.00    +0.000 C 
ATOM      3  C   UNL     1       4.681   6.421  17.724  0.00  0.00    +0.000 C 
ATOM      4  C   UNL     1       5.205   5.856  16.414  0.00  0.00    +0.000 C 
ATOM      5  C   UNL     1       5.246   4.334  16.410  0.00  0.00    +0.000 C 
ATOM      6  O   UNL     1       3.931   3.786  16.311  0.00  0.00    +0.000 OA
ATOM      7  C   UNL     1       3.352   3.602  17.534  0.00  0.00    +0.000 A 
ATOM      8  C   UNL     1       3.059   2.287  17.899  0.00  0.00    +0.000 A 
ATOM      9  C   UNL     1       2.417   2.028  19.112  0.00  0.00    +0.000 A 
ATOM     10  C   UNL     1       2.032   3.086  19.936  0.00  0.00    +0.000 A 
ATOM     11 CL   UNL     1       1.251   2.760  21.431  0.00  0.00    +0.000 Cl
ATOM     12  C   UNL     1       2.281   4.404  19.557  0.00  0.00    +0.000 A 
ATOM     13  C   UNL     1       2.956   4.656  18.358  0.00  0.00    +0.000 A 
ENDROOT
TORSDOF 0
ENDMDL
