MODEL 1
REMARK VINA RESULT:      -8.3      0.000      0.000
REMARK  Name = 
REMARK  7 active torsions:
REMARK  status: ('A' for Active; 'I' for Inactive)
REMARK    1  A    between atoms: C_1  and  C_2
REMARK    2  A    between atoms: C_2  and  S_3
REMARK    3  A    between atoms: C_2  and  C_12
REMARK    4  A    between atoms: S_3  and  C_4
REMARK    5  A    between atoms: C_9  and  O_10
REMARK    6  A    between atoms: N_14  and  N_15
REMARK    7  A    between atoms: C_16  and  C_18
REMARK                            x       y       z     vdW  Elec       q    Type
REMARK                         _______ _______ _______ _____ _____    ______ ____
ROOT
ATOM      1  C   UNL     1       2.052   4.769  19.958  0.00  0.00    +0.000 C 
ATOM      2  O   UNL     1       0.931   4.590  20.441  0.00  0.00    +0.000 OA
ATOM      3  N   UNL     1       2.729   5.961  20.150  0.00  0.00    +0.000 N 
ATOM      4  H   UNL     1       3.496   6.258  19.547  0.00  0.00    +0.000 HD
ENDROOT
BRANCH   3   5
ATOM      5  N   UNL     1       2.050   6.966  20.862  0.00  0.00    +0.000 N 
ATOM      6  C   UNL     1       1.648   8.110  20.204  0.00  0.00    +0.000 C 
ATOM      7  O   UNL     1       1.929   8.356  19.033  0.00  0.00    +0.000 OA
ATOM      8  H   UNL     1       1.564   6.636  21.697  0.00  0.00    +0.000 HD
BRANCH   6   9
ATOM      9  C   UNL     1       0.804   9.047  21.000  0.00  0.00    +0.000 A 
ATOM     10  C   UNL     1       0.673   8.909  22.391  0.00  0.00    +0.000 A 
ATOM     11  C   UNL     1      -0.143   9.787  23.109  0.00  0.00    +0.000 A 
ATOM     12  C   UNL     1      -0.828  10.803  22.444  0.00  0.00    +0.000 A 
ATOM     13  C   UNL     1      -0.677  10.954  21.065  0.00  0.00    +0.000 A 
ATOM     14 CL   UNL     1      -1.523  12.214  20.255  0.00  0.00    +0.000 Cl
ATOM     15  C   UNL     1       0.144  10.089  20.341  0.00  0.00    +0.000 A 
ENDBRANCH   6   9
ENDBRANCH   3   5
BRANCH   1  17
ATOM     16  C   UNL     1       2.211   2.291  19.482  0.00  0.00    +0.000 C 
ATOM     17  C   UNL     1       2.852   3.661  19.273  0.00  0.00    +0.000 C 
BRANCH  17  18
ATOM     18  S   UNL     1       3.179   4.003  17.511  0.00  0.00    +0.000 S 
BRANCH  18  19
ATOM     19  C   UNL     1       4.871   4.526  17.595  0.00  0.00    +0.000 A 
ATOM     20  N   UNL     1       5.490   4.735  16.424  0.00  0.00    +0.000 NA
ATOM     21  C   UNL     1       6.743   5.194  16.484  0.00  0.00    +0.000 A 
ATOM     22  N   UNL     1       7.403   5.366  15.268  0.00  0.00    +0.000 N 
ATOM     23  C   UNL     1       7.396   5.430  17.670  0.00  0.00    +0.000 A 
ATOM     24  C   UNL     1       6.663   5.186  18.804  0.00  0.00    +0.000 A 
ATOM     25  N   UNL     1       5.402   4.741  18.805  0.00  0.00    +0.000 NA
ATOM     26  H   UNL     1       6.723   5.213  14.525  0.00  0.00    +0.000 HD
ATOM     27  H   UNL     1       7.853   6.270  15.186  0.00  0.00    +0.000 HD
BRANCH  24  28
ATOM     28  O   UNL     1       7.202   5.390  20.043  0.00  0.00    +0.000 OA
ATOM     29  H   UNL     1       7.124   4.572  20.555  0.00  0.00    +0.000 HD
ENDBRANCH  24  28
ENDBRANCH  18  19
ENDBRANCH  17  18
ENDBRANCH   1  17
TORSDOF 6
ENDMDL
MODEL 2
REMARK VINA RESULT:      -8.2      1.126      1.591
REMARK  Name = 
REMARK  7 active torsions:
REMARK  status: ('A' for Active; 'I' for Inactive)
REMARK    1  A    between atoms: C_1  and  C_2
REMARK    2  A    between atoms: C_2  and  S_3
REMARK    3  A    between atoms: C_2  and  C_12
REMARK    4  A    between atoms: S_3  and  C_4
REMARK    5  A    between atoms: C_9  and  O_10
REMARK    6  A    between atoms: N_14  and  N_15
REMARK    7  A    between atoms: C_16  and  C_18
REMARK                            x       y       z     vdW  Elec       q    Type
REMARK                         _______ _______ _______ _____ _____    ______ ____
ROOT
ATOM      1  C   UNL     1       2.479   5.043  20.247  0.00  0.00    +0.000 C 
ATOM      2  O   UNL     1       1.384   4.961  20.810  0.00  0.00    +0.000 OA
ATOM      3  N   UNL     1       3.051   6.274  19.978  0.00  0.00    +0.000 N 
ATOM      4  H   UNL     1       3.781   6.397  19.276  0.00  0.00    +0.000 HD
ENDROOT
BRANCH   3   5
ATOM      5  N   UNL     1       2.297   7.410  20.320  0.00  0.00    +0.000 N 
ATOM      6  C   UNL     1       1.855   8.258  19.324  0.00  0.00    +0.000 C 
ATOM      7  O   UNL     1       2.162   8.133  18.141  0.00  0.00    +0.000 OA
ATOM      8  H   UNL     1       1.802   7.336  21.210  0.00  0.00    +0.000 HD
BRANCH   6   9
ATOM      9  C   UNL     1       0.937   9.346  19.765  0.00  0.00    +0.000 A 
ATOM     10  C   UNL     1       0.527  10.358  18.883  0.00  0.00    +0.000 A 
ATOM     11  C   UNL     1      -0.316  11.380  19.329  0.00  0.00    +0.000 A 
ATOM     12  C   UNL     1      -0.752  11.393  20.652  0.00  0.00    +0.000 A 
ATOM     13  C   UNL     1      -0.365  10.373  21.522  0.00  0.00    +0.000 A 
ATOM     14 CL   UNL     1      -0.914  10.397  23.152  0.00  0.00    +0.000 Cl
ATOM     15  C   UNL     1       0.468   9.343  21.082  0.00  0.00    +0.000 A 
ENDBRANCH   6   9
ENDBRANCH   3   5
BRANCH   1  17
ATOM     16  C   UNL     1       2.765   2.547  20.534  0.00  0.00    +0.000 C 
ATOM     17  C   UNL     1       3.364   3.830  19.961  0.00  0.00    +0.000 C 
BRANCH  17  18
ATOM     18  S   UNL     1       3.789   3.658  18.195  0.00  0.00    +0.000 S 
BRANCH  18  19
ATOM     19  C   UNL     1       5.359   4.480  18.162  0.00  0.00    +0.000 A 
ATOM     20  N   UNL     1       5.797   4.883  16.960  0.00  0.00    +0.000 NA
ATOM     21  C   UNL     1       6.947   5.562  16.939  0.00  0.00    +0.000 A 
ATOM     22  N   UNL     1       7.426   5.939  15.686  0.00  0.00    +0.000 N 
ATOM     23  C   UNL     1       7.675   5.832  18.074  0.00  0.00    +0.000 A 
ATOM     24  C   UNL     1       7.128   5.377  19.246  0.00  0.00    +0.000 A 
ATOM     25  N   UNL     1       5.974   4.705  19.329  0.00  0.00    +0.000 NA
ATOM     26  H   UNL     1       6.706   5.714  15.002  0.00  0.00    +0.000 HD
ATOM     27  H   UNL     1       7.696   6.915  15.642  0.00  0.00    +0.000 HD
BRANCH  24  28
ATOM     28  O   UNL     1       7.756   5.590  20.441  0.00  0.00    +0.000 OA
ATOM     29  H   UNL     1       8.348   6.351  20.351  0.00  0.00    +0.000 HD
ENDBRANCH  24  28
ENDBRANCH  18  19
ENDBRANCH  17  18
ENDBRANCH   1  17
TORSDOF 6
ENDMDL
MODEL 3
REMARK VINA RESULT:      -8.0      1.131      1.689
REMARK  Name = 
REMARK  7 active torsions:
REMARK  status: ('A' for Active; 'I' for Inactive)
REMARK    1  A    between atoms: C_1  and  C_2
REMARK    2  A    between atoms: C_2  and  S_3
REMARK    3  A    between atoms: C_2  and  C_12
REMARK    4  A    between atoms: S_3  and  C_4
REMARK    5  A    between atoms: C_9  and  O_10
REMARK    6  A    between atoms: N_14  and  N_15
REMARK    7  A    between atoms: C_16  and  C_18
REMARK                            x       y       z     vdW  Elec       q    Type
REMARK                         _______ _______ _______ _____ _____    ______ ____
ROOT
ATOM      1  C   UNL     1       2.183   4.716  19.902  0.00  0.00    +0.000 C 
ATOM      2  O   UNL     1       1.107   4.493  20.461  0.00  0.00    +0.000 OA
ATOM      3  N   UNL     1       2.803   5.949  20.017  0.00  0.00    +0.000 N 
ATOM      4  H   UNL     1       3.513   6.268  19.358  0.00  0.00    +0.000 HD
ENDROOT
BRANCH   3   5
ATOM      5  N   UNL     1       2.116   6.937  20.744  0.00  0.00    +0.000 N 
ATOM      6  C   UNL     1       1.730   8.100  20.110  0.00  0.00    +0.000 C 
ATOM      7  O   UNL     1       2.034   8.377  18.952  0.00  0.00    +0.000 OA
ATOM      8  H   UNL     1       1.613   6.587  21.561  0.00  0.00    +0.000 HD
BRANCH   6   9
ATOM      9  C   UNL     1       0.875   9.019  20.915  0.00  0.00    +0.000 A 
ATOM     10  C   UNL     1       0.785   8.896  22.311  0.00  0.00    +0.000 A 
ATOM     11  C   UNL     1      -0.042   9.756  23.040  0.00  0.00    +0.000 A 
ATOM     12  C   UNL     1      -0.778  10.738  22.380  0.00  0.00    +0.000 A 
ATOM     13  C   UNL     1      -0.668  10.875  20.995  0.00  0.00    +0.000 A 
ATOM     14 CL   UNL     1      -1.579  12.094  20.191  0.00  0.00    +0.000 Cl
ATOM     15  C   UNL     1       0.163  10.028  20.261  0.00  0.00    +0.000 A 
ENDBRANCH   6   9
ENDBRANCH   3   5
BRANCH   1  17
ATOM     16  C   UNL     1       2.436   2.239  19.466  0.00  0.00    +0.000 C 
ATOM     17  C   UNL     1       2.999   3.633  19.198  0.00  0.00    +0.000 C 
BRANCH  17  18
ATOM     18  S   UNL     1       3.219   3.951  17.415  0.00  0.00    +0.000 S 
BRANCH  18  19
ATOM     19  C   UNL     1       4.880   4.570  17.402  0.00  0.00    +0.000 A 
ATOM     20  N   UNL     1       5.460   4.749  18.598  0.00  0.00    +0.000 NA
ATOM     21  C   UNL     1       6.733   5.151  18.591  0.00  0.00    +0.000 A 
ATOM     22  N   UNL     1       7.321   5.383  19.833  0.00  0.00    +0.000 N 
ATOM     23  C   UNL     1       7.433   5.395  17.432  0.00  0.00    +0.000 A 
ATOM     24  C   UNL     1       6.741   5.174  16.269  0.00  0.00    +0.000 A 
ATOM     25  N   UNL     1       5.471   4.757  16.215  0.00  0.00    +0.000 NA
ATOM     26  H   UNL     1       6.666   5.070  20.546  0.00  0.00    +0.000 HD
ATOM     27  H   UNL     1       8.227   4.939  19.932  0.00  0.00    +0.000 HD
BRANCH  24  28
ATOM     28  O   UNL     1       7.332   5.375  15.054  0.00  0.00    +0.000 OA
ATOM     29  H   UNL     1       6.984   6.193  14.670  0.00  0.00    +0.000 HD
ENDBRANCH  24  28
ENDBRANCH  18  19
ENDBRANCH  17  18
ENDBRANCH   1  17
TORSDOF 6
ENDMDL
MODEL 4
REMARK VINA RESULT:      -7.9      1.788      2.252
REMARK  Name = 
REMARK  7 active torsions:
REMARK  status: ('A' for Active; 'I' for Inactive)
REMARK    1  A    between atoms: C_1  and  C_2
REMARK    2  A    between atoms: C_2  and  S_3
REMARK    3  A    between atoms: C_2  and  C_12
REMARK    4  A    between atoms: S_3  and  C_4
REMARK    5  A    between atoms: C_9  and  O_10
REMARK    6  A    between atoms: N_14  and  N_15
REMARK    7  A    between atoms: C_16  and  C_18
REMARK                            x       y       z     vdW  Elec       q    Type
REMARK                         _______ _______ _______ _____ _____    ______ ____
ROOT
ATOM      1  C   UNL     1       3.123   4.717  18.458  0.00  0.00    +0.000 C 
ATOM      2  O   UNL     1       1.957   4.759  18.058  0.00  0.00    +0.000 OA
ATOM      3  N   UNL     1       3.592   5.633  19.386  0.00  0.00    +0.000 N 
ATOM      4  H   UNL     1       4.586   5.818  19.517  0.00  0.00    +0.000 HD
ENDROOT
BRANCH   3   5
ATOM      5  N   UNL     1       2.695   6.637  19.791  0.00  0.00    +0.000 N 
ATOM      6  C   UNL     1       2.526   7.756  19.002  0.00  0.00    +0.000 C 
ATOM      7  O   UNL     1       3.189   7.982  17.992  0.00  0.00    +0.000 OA
ATOM      8  H   UNL     1       1.957   6.314  20.419  0.00  0.00    +0.000 HD
BRANCH   6   9
ATOM      9  C   UNL     1       1.447   8.690  19.432  0.00  0.00    +0.000 A 
ATOM     10  C   UNL     1       0.811   9.542  18.516  0.00  0.00    +0.000 A 
ATOM     11  C   UNL     1      -0.181  10.425  18.950  0.00  0.00    +0.000 A 
ATOM     12  C   UNL     1      -0.543  10.458  20.295  0.00  0.00    +0.000 A 
ATOM     13  C   UNL     1       0.072   9.593  21.201  0.00  0.00    +0.000 A 
ATOM     14 CL   UNL     1      -0.385   9.639  22.859  0.00  0.00    +0.000 Cl
ATOM     15  C   UNL     1       1.057   8.701  20.775  0.00  0.00    +0.000 A 
ENDBRANCH   6   9
ENDBRANCH   3   5
BRANCH   1  17
ATOM     16  C   UNL     1       3.339   2.267  17.873  0.00  0.00    +0.000 C 
ATOM     17  C   UNL     1       4.083   3.579  18.115  0.00  0.00    +0.000 C 
BRANCH  17  18
ATOM     18  S   UNL     1       5.214   3.988  16.743  0.00  0.00    +0.000 S 
BRANCH  18  19
ATOM     19  C   UNL     1       6.351   5.064  17.575  0.00  0.00    +0.000 A 
ATOM     20  N   UNL     1       6.639   6.220  16.958  0.00  0.00    +0.000 NA
ATOM     21  C   UNL     1       7.443   7.062  17.613  0.00  0.00    +0.000 A 
ATOM     22  N   UNL     1       7.781   8.242  16.953  0.00  0.00    +0.000 N 
ATOM     23  C   UNL     1       7.976   6.778  18.848  0.00  0.00    +0.000 A 
ATOM     24  C   UNL     1       7.608   5.570  19.384  0.00  0.00    +0.000 A 
ATOM     25  N   UNL     1       6.796   4.694  18.782  0.00  0.00    +0.000 NA
ATOM     26  H   UNL     1       7.224   8.287  16.101  0.00  0.00    +0.000 HD
ATOM     27  H   UNL     1       7.659   9.067  17.527  0.00  0.00    +0.000 HD
BRANCH  24  28
ATOM     28  O   UNL     1       8.069   5.179  20.610  0.00  0.00    +0.000 OA
ATOM     29  H   UNL     1       9.037   5.189  20.596  0.00  0.00    +0.000 HD
ENDBRANCH  24  28
ENDBRANCH  18  19
ENDBRANCH  17  18
ENDBRANCH   1  17
TORSDOF 6
ENDMDL
MODEL 5
REMARK VINA RESULT:      -7.9      1.546      2.273
REMARK  Name = 
REMARK  7 active torsions:
REMARK  status: ('A' for Active; 'I' for Inactive)
REMARK    1  A    between atoms: C_1  and  C_2
REMARK    2  A    between atoms: C_2  and  S_3
REMARK    3  A    between atoms: C_2  and  C_12
REMARK    4  A    between atoms: S_3  and  C_4
REMARK    5  A    between atoms: C_9  and  O_10
REMARK    6  A    between atoms: N_14  and  N_15
REMARK    7  A    between atoms: C_16  and  C_18
REMARK                            x       y       z     vdW  Elec       q    Type
REMARK                         _______ _______ _______ _____ _____    ______ ____
ROOT
ATOM      1  C   UNL     1       2.439   4.930  20.204  0.00  0.00    +0.000 C 
ATOM      2  O   UNL     1       1.248   4.816  20.506  0.00  0.00    +0.000 OA
ATOM      3  N   UNL     1       3.055   6.169  20.188  0.00  0.00    +0.000 N 
ATOM      4  H   UNL     1       3.920   6.344  19.677  0.00  0.00    +0.000 HD
ENDROOT
BRANCH   3   5
ATOM      5  N   UNL     1       2.242   7.282  20.469  0.00  0.00    +0.000 N 
ATOM      6  C   UNL     1       1.925   8.164  19.455  0.00  0.00    +0.000 C 
ATOM      7  O   UNL     1       2.389   8.089  18.320  0.00  0.00    +0.000 OA
ATOM      8  H   UNL     1       1.634   7.167  21.281  0.00  0.00    +0.000 HD
BRANCH   6   9
ATOM      9  C   UNL     1       0.937   9.223  19.810  0.00  0.00    +0.000 A 
ATOM     10  C   UNL     1       0.426  10.099  18.839  0.00  0.00    +0.000 A 
ATOM     11  C   UNL     1      -0.480  11.098  19.203  0.00  0.00    +0.000 A 
ATOM     12  C   UNL     1      -0.879  11.225  20.532  0.00  0.00    +0.000 A 
ATOM     13  C   UNL     1      -0.390  10.338  21.492  0.00  0.00    +0.000 A 
ATOM     14 CL   UNL     1      -0.893  10.501  23.129  0.00  0.00    +0.000 Cl
ATOM     15  C   UNL     1       0.508   9.331  21.136  0.00  0.00    +0.000 A 
ENDBRANCH   6   9
ENDBRANCH   3   5
BRANCH   1  17
ATOM     16  C   UNL     1       2.875   2.502  20.760  0.00  0.00    +0.000 C 
ATOM     17  C   UNL     1       3.366   3.732  19.999  0.00  0.00    +0.000 C 
BRANCH  17  18
ATOM     18  S   UNL     1       3.683   3.368  18.240  0.00  0.00    +0.000 S 
BRANCH  18  19
ATOM     19  C   UNL     1       5.141   4.338  17.969  0.00  0.00    +0.000 A 
ATOM     20  N   UNL     1       5.903   4.585  19.045  0.00  0.00    +0.000 NA
ATOM     21  C   UNL     1       7.036   5.258  18.834  0.00  0.00    +0.000 A 
ATOM     22  N   UNL     1       7.804   5.556  19.958  0.00  0.00    +0.000 N 
ATOM     23  C   UNL     1       7.420   5.704  17.591  0.00  0.00    +0.000 A 
ATOM     24  C   UNL     1       6.566   5.389  16.564  0.00  0.00    +0.000 A 
ATOM     25  N   UNL     1       5.427   4.705  16.714  0.00  0.00    +0.000 NA
ATOM     26  H   UNL     1       7.387   5.074  20.752  0.00  0.00    +0.000 HD
ATOM     27  H   UNL     1       8.783   5.319  19.844  0.00  0.00    +0.000 HD
BRANCH  24  28
ATOM     28  O   UNL     1       6.843   5.772  15.282  0.00  0.00    +0.000 OA
ATOM     29  H   UNL     1       6.183   6.423  15.001  0.00  0.00    +0.000 HD
ENDBRANCH  24  28
ENDBRANCH  18  19
ENDBRANCH  17  18
ENDBRANCH   1  17
TORSDOF 6
ENDMDL
MODEL 6
REMARK VINA RESULT:      -7.7      1.366      1.445
REMARK  Name = 
REMARK  7 active torsions:
REMARK  status: ('A' for Active; 'I' for Inactive)
REMARK    1  A    between atoms: C_1  and  C_2
REMARK    2  A    between atoms: C_2  and  S_3
REMARK    3  A    between atoms: C_2  and  C_12
REMARK    4  A    between atoms: S_3  and  C_4
REMARK    5  A    between atoms: C_9  and  O_10
REMARK    6  A    between atoms: N_14  and  N_15
REMARK    7  A    between atoms: C_16  and  C_18
REMARK                            x       y       z     vdW  Elec       q    Type
REMARK                         _______ _______ _______ _____ _____    ______ ____
ROOT
ATOM      1  C   UNL     1       3.296   4.423  19.704  0.00  0.00    +0.000 C 
ATOM      2  O   UNL     1       3.064   4.185  20.892  0.00  0.00    +0.000 OA
ATOM      3  N   UNL     1       2.977   5.649  19.146  0.00  0.00    +0.000 N 
ATOM      4  H   UNL     1       2.878   5.783  18.140  0.00  0.00    +0.000 HD
ENDROOT
BRANCH   3   5
ATOM      5  N   UNL     1       2.323   6.572  19.982  0.00  0.00    +0.000 N 
ATOM      6  C   UNL     1       2.048   7.839  19.509  0.00  0.00    +0.000 C 
ATOM      7  O   UNL     1       2.425   8.253  18.415  0.00  0.00    +0.000 OA
ATOM      8  H   UNL     1       1.760   6.147  20.720  0.00  0.00    +0.000 HD
BRANCH   6   9
ATOM      9  C   UNL     1       1.219   8.694  20.406  0.00  0.00    +0.000 A 
ATOM     10  C   UNL     1       1.219   8.507  21.798  0.00  0.00    +0.000 A 
ATOM     11  C   UNL     1       0.416   9.308  22.614  0.00  0.00    +0.000 A 
ATOM     12  C   UNL     1      -0.387  10.295  22.046  0.00  0.00    +0.000 A 
ATOM     13  C   UNL     1      -0.367  10.497  20.665  0.00  0.00    +0.000 A 
ATOM     14 CL   UNL     1      -1.359  11.722  19.974  0.00  0.00    +0.000 Cl
ATOM     15  C   UNL     1       0.440   9.709  19.843  0.00  0.00    +0.000 A 
ENDBRANCH   6   9
ENDBRANCH   3   5
BRANCH   1  17
ATOM     16  C   UNL     1       3.336   2.187  18.524  0.00  0.00    +0.000 C 
ATOM     17  C   UNL     1       4.097   3.481  18.806  0.00  0.00    +0.000 C 
BRANCH  17  18
ATOM     18  S   UNL     1       4.680   4.280  17.273  0.00  0.00    +0.000 S 
BRANCH  18  19
ATOM     19  C   UNL     1       6.058   5.205  17.897  0.00  0.00    +0.000 A 
ATOM     20  N   UNL     1       6.426   6.281  17.186  0.00  0.00    +0.000 NA
ATOM     21  C   UNL     1       7.420   7.017  17.689  0.00  0.00    +0.000 A 
ATOM     22  N   UNL     1       7.834   8.109  16.928  0.00  0.00    +0.000 N 
ATOM     23  C   UNL     1       8.063   6.703  18.862  0.00  0.00    +0.000 A 
ATOM     24  C   UNL     1       7.599   5.584  19.506  0.00  0.00    +0.000 A 
ATOM     25  N   UNL     1       6.599   4.817  19.058  0.00  0.00    +0.000 NA
ATOM     26  H   UNL     1       7.184   8.206  16.150  0.00  0.00    +0.000 HD
ATOM     27  H   UNL     1       7.908   8.964  17.466  0.00  0.00    +0.000 HD
BRANCH  24  28
ATOM     28  O   UNL     1       8.155   5.173  20.685  0.00  0.00    +0.000 OA
ATOM     29  H   UNL     1       8.311   5.949  21.243  0.00  0.00    +0.000 HD
ENDBRANCH  24  28
ENDBRANCH  18  19
ENDBRANCH  17  18
ENDBRANCH   1  17
TORSDOF 6
ENDMDL
MODEL 7
REMARK VINA RESULT:      -7.7      1.619      2.344
REMARK  Name = 
REMARK  7 active torsions:
REMARK  status: ('A' for Active; 'I' for Inactive)
REMARK    1  A    between atoms: C_1  and  C_2
REMARK    2  A    between atoms: C_2  and  S_3
REMARK    3  A    between atoms: C_2  and  C_12
REMARK    4  A    between atoms: S_3  and  C_4
REMARK    5  A    between atoms: C_9  and  O_10
REMARK    6  A    between atoms: N_14  and  N_15
REMARK    7  A    between atoms: C_16  and  C_18
REMARK                            x       y       z     vdW  Elec       q    Type
REMARK                         _______ _______ _______ _____ _____    ______ ____
ROOT
ATOM      1  C   UNL     1       2.136   7.143  19.994  0.00  0.00    +0.000 C 
ATOM      2  O   UNL     1       2.033   7.941  19.059  0.00  0.00    +0.000 OA
ATOM      3  N   UNL     1       1.391   7.300  21.150  0.00  0.00    +0.000 N 
ATOM      4  H   UNL     1       1.651   6.857  22.032  0.00  0.00    +0.000 HD
ENDROOT
BRANCH   3   5
ATOM      5  N   UNL     1       0.570   8.438  21.223  0.00  0.00    +0.000 N 
ATOM      6  C   UNL     1       0.904   9.463  22.085  0.00  0.00    +0.000 C 
ATOM      7  O   UNL     1       1.843   9.407  22.876  0.00  0.00    +0.000 OA
ATOM      8  H   UNL     1       0.012   8.611  20.385  0.00  0.00    +0.000 HD
BRANCH   6   9
ATOM      9  C   UNL     1       0.064  10.690  21.983  0.00  0.00    +0.000 A 
ATOM     10  C   UNL     1       0.373  11.713  21.072  0.00  0.00    +0.000 A 
ATOM     11  C   UNL     1      -0.419  12.863  21.013  0.00  0.00    +0.000 A 
ATOM     12  C   UNL     1      -1.518  12.996  21.860  0.00  0.00    +0.000 A 
ATOM     13  C   UNL     1      -1.838  11.968  22.747  0.00  0.00    +0.000 A 
ATOM     14 CL   UNL     1      -3.200  12.139  23.785  0.00  0.00    +0.000 Cl
ATOM     15  C   UNL     1      -1.060  10.811  22.806  0.00  0.00    +0.000 A 
ENDBRANCH   6   9
ENDBRANCH   3   5
BRANCH   1  17
ATOM     16  C   UNL     1       2.322   4.738  20.750  0.00  0.00    +0.000 C 
ATOM     17  C   UNL     1       2.938   5.846  19.899  0.00  0.00    +0.000 C 
BRANCH  17  18
ATOM     18  S   UNL     1       3.227   5.310  18.179  0.00  0.00    +0.000 S 
BRANCH  18  19
ATOM     19  C   UNL     1       4.996   5.394  18.109  0.00  0.00    +0.000 A 
ATOM     20  N   UNL     1       5.539   5.523  16.890  0.00  0.00    +0.000 NA
ATOM     21  C   UNL     1       6.867   5.655  16.838  0.00  0.00    +0.000 A 
ATOM     22  N   UNL     1       7.437   5.741  15.570  0.00  0.00    +0.000 N 
ATOM     23  C   UNL     1       7.663   5.643  17.960  0.00  0.00    +0.000 A 
ATOM     24  C   UNL     1       6.998   5.510  19.152  0.00  0.00    +0.000 A 
ATOM     25  N   UNL     1       5.671   5.390  19.265  0.00  0.00    +0.000 NA
ATOM     26  H   UNL     1       6.677   5.809  14.895  0.00  0.00    +0.000 HD
ATOM     27  H   UNL     1       8.091   6.510  15.480  0.00  0.00    +0.000 HD
BRANCH  24  28
ATOM     28  O   UNL     1       7.680   5.492  20.336  0.00  0.00    +0.000 OA
ATOM     29  H   UNL     1       8.408   4.858  20.266  0.00  0.00    +0.000 HD
ENDBRANCH  24  28
ENDBRANCH  18  19
ENDBRANCH  17  18
ENDBRANCH   1  17
TORSDOF 6
ENDMDL
MODEL 8
REMARK VINA RESULT:      -7.7      1.533      1.988
REMARK  Name = 
REMARK  7 active torsions:
REMARK  status: ('A' for Active; 'I' for Inactive)
REMARK    1  A    between atoms: C_1  and  C_2
REMARK    2  A    between atoms: C_2  and  S_3
REMARK    3  A    between atoms: C_2  and  C_12
REMARK    4  A    between atoms: S_3  and  C_4
REMARK    5  A    between atoms: C_9  and  O_10
REMARK    6  A    between atoms: N_14  and  N_15
REMARK    7  A    between atoms: C_16  and  C_18
REMARK                            x       y       z     vdW  Elec       q    Type
REMARK                         _______ _______ _______ _____ _____    ______ ____
ROOT
ATOM      1  C   UNL     1       2.267   4.938  20.371  0.00  0.00    +0.000 C 
ATOM      2  O   UNL     1       1.073   4.880  20.675  0.00  0.00    +0.000 OA
ATOM      3  N   UNL     1       2.935   6.150  20.337  0.00  0.00    +0.000 N 
ATOM      4  H   UNL     1       3.806   6.280  19.822  0.00  0.00    +0.000 HD
ENDROOT
BRANCH   3   5
ATOM      5  N   UNL     1       2.172   7.300  20.603  0.00  0.00    +0.000 N 
ATOM      6  C   UNL     1       1.832   8.145  19.566  0.00  0.00    +0.000 C 
ATOM      7  O   UNL     1       2.238   8.005  18.414  0.00  0.00    +0.000 OA
ATOM      8  H   UNL     1       1.600   7.242  21.447  0.00  0.00    +0.000 HD
BRANCH   6   9
ATOM      9  C   UNL     1       0.896   9.251  19.917  0.00  0.00    +0.000 A 
ATOM     10  C   UNL     1       0.607   9.566  21.254  0.00  0.00    +0.000 A 
ATOM     11  C   UNL     1      -0.293  10.593  21.555  0.00  0.00    +0.000 A 
ATOM     12  C   UNL     1      -0.903  11.307  20.525  0.00  0.00    +0.000 A 
ATOM     13  C   UNL     1      -0.596  11.009  19.197  0.00  0.00    +0.000 A 
ATOM     14 CL   UNL     1      -1.352  11.900  17.933  0.00  0.00    +0.000 Cl
ATOM     15  C   UNL     1       0.309   9.993  18.887  0.00  0.00    +0.000 A 
ENDBRANCH   6   9
ENDBRANCH   3   5
BRANCH   1  17
ATOM     16  C   UNL     1       2.544   2.475  20.871  0.00  0.00    +0.000 C 
ATOM     17  C   UNL     1       3.141   3.699  20.181  0.00  0.00    +0.000 C 
BRANCH  17  18
ATOM     18  S   UNL     1       3.544   3.371  18.432  0.00  0.00    +0.000 S 
BRANCH  18  19
ATOM     19  C   UNL     1       4.844   4.547  18.175  0.00  0.00    +0.000 A 
ATOM     20  N   UNL     1       5.792   4.605  19.122  0.00  0.00    +0.000 NA
ATOM     21  C   UNL     1       6.809   5.443  18.900  0.00  0.00    +0.000 A 
ATOM     22  N   UNL     1       7.769   5.539  19.905  0.00  0.00    +0.000 N 
ATOM     23  C   UNL     1       6.896   6.229  17.776  0.00  0.00    +0.000 A 
ATOM     24  C   UNL     1       5.873   6.082  16.874  0.00  0.00    +0.000 A 
ATOM     25  N   UNL     1       4.839   5.250  17.036  0.00  0.00    +0.000 NA
ATOM     26  H   UNL     1       7.558   4.825  20.600  0.00  0.00    +0.000 HD
ATOM     27  H   UNL     1       8.717   5.458  19.557  0.00  0.00    +0.000 HD
BRANCH  24  28
ATOM     28  O   UNL     1       5.853   6.807  15.715  0.00  0.00    +0.000 OA
ATOM     29  H   UNL     1       6.533   7.494  15.765  0.00  0.00    +0.000 HD
ENDBRANCH  24  28
ENDBRANCH  18  19
ENDBRANCH  17  18
ENDBRANCH   1  17
TORSDOF 6
ENDMDL
MODEL 9
REMARK VINA RESULT:      -7.6      2.173      2.291
REMARK  Name = 
REMARK  7 active torsions:
REMARK  status: ('A' for Active; 'I' for Inactive)
REMARK    1  A    between atoms: C_1  and  C_2
REMARK    2  A    between atoms: C_2  and  S_3
REMARK    3  A    between atoms: C_2  and  C_12
REMARK    4  A    between atoms: S_3  and  C_4
REMARK    5  A    between atoms: C_9  and  O_10
REMARK    6  A    between atoms: N_14  and  N_15
REMARK    7  A    between atoms: C_16  and  C_18
REMARK                            x       y       z     vdW  Elec       q    Type
REMARK                         _______ _______ _______ _____ _____    ______ ____
ROOT
ATOM      1  C   UNL     1       2.232   5.838  20.125  0.00  0.00    +0.000 C 
ATOM      2  O   UNL     1       1.112   5.869  20.641  0.00  0.00    +0.000 OA
ATOM      3  N   UNL     1       2.783   6.972  19.551  0.00  0.00    +0.000 N 
ATOM      4  H   UNL     1       3.546   6.927  18.875  0.00  0.00    +0.000 HD
ENDROOT
BRANCH   3   5
ATOM      5  N   UNL     1       1.979   8.125  19.532  0.00  0.00    +0.000 N 
ATOM      6  C   UNL     1       1.841   8.839  18.359  0.00  0.00    +0.000 C 
ATOM      7  O   UNL     1       2.460   8.579  17.330  0.00  0.00    +0.000 OA
ATOM      8  H   UNL     1       1.257   8.148  20.255  0.00  0.00    +0.000 HD
BRANCH   6   9
ATOM      9  C   UNL     1       0.852   9.953  18.396  0.00  0.00    +0.000 A 
ATOM     10  C   UNL     1      -0.486   9.754  18.022  0.00  0.00    +0.000 A 
ATOM     11  C   UNL     1      -1.387  10.822  18.043  0.00  0.00    +0.000 A 
ATOM     12  C   UNL     1      -0.957  12.088  18.438  0.00  0.00    +0.000 A 
ATOM     13  C   UNL     1       0.367  12.279  18.834  0.00  0.00    +0.000 A 
ATOM     14 CL   UNL     1       0.887  13.844  19.324  0.00  0.00    +0.000 Cl
ATOM     15  C   UNL     1       1.272  11.216  18.826  0.00  0.00    +0.000 A 
ENDBRANCH   6   9
ENDBRANCH   3   5
BRANCH   1  17
ATOM     16  C   UNL     1       2.575   3.534  21.106  0.00  0.00    +0.000 C 
ATOM     17  C   UNL     1       3.165   4.632  20.224  0.00  0.00    +0.000 C 
BRANCH  17  18
ATOM     18  S   UNL     1       3.685   3.996  18.595  0.00  0.00    +0.000 S 
BRANCH  18  19
ATOM     19  C   UNL     1       5.314   4.688  18.486  0.00  0.00    +0.000 A 
ATOM     20  N   UNL     1       5.713   5.085  17.269  0.00  0.00    +0.000 NA
ATOM     21  C   UNL     1       6.913   5.668  17.194  0.00  0.00    +0.000 A 
ATOM     22  N   UNL     1       7.349   6.038  15.924  0.00  0.00    +0.000 N 
ATOM     23  C   UNL     1       7.725   5.847  18.289  0.00  0.00    +0.000 A 
ATOM     24  C   UNL     1       7.211   5.406  19.481  0.00  0.00    +0.000 A 
ATOM     25  N   UNL     1       6.012   4.830  19.619  0.00  0.00    +0.000 NA
ATOM     26  H   UNL     1       6.575   5.891  15.278  0.00  0.00    +0.000 HD
ATOM     27  H   UNL     1       7.696   6.989  15.885  0.00  0.00    +0.000 HD
BRANCH  24  28
ATOM     28  O   UNL     1       7.923   5.535  20.641  0.00  0.00    +0.000 OA
ATOM     29  H   UNL     1       8.522   4.778  20.725  0.00  0.00    +0.000 HD
ENDBRANCH  24  28
ENDBRANCH  18  19
ENDBRANCH  17  18
ENDBRANCH   1  17
TORSDOF 6
ENDMDL
