MODEL 1
REMARK VINA RESULT:      -7.1      0.000      0.000
REMARK  Name = 
REMARK  7 active torsions:
REMARK  status: ('A' for Active; 'I' for Inactive)
REMARK    1  A    between atoms: C_1  and  O_2
REMARK    2  A    between atoms: O_2  and  C_3
REMARK    3  A    between atoms: C_6  and  N_7
REMARK    4  A    between atoms: C_11  and  C_13
REMARK    5  A    between atoms: C_14  and  C_15
REMARK    6  A    between atoms: N_17  and  C_18
REMARK    7  A    between atoms: C_25  and  N_26
REMARK                            x       y       z     vdW  Elec       q    Type
REMARK                         _______ _______ _______ _____ _____    ______ ____
ROOT
ATOM      1  C   UNL     1      -0.054  12.590  20.140  0.00  0.00    +0.000 A 
ATOM      2  C   UNL     1       0.196  13.522  21.203  0.00  0.00    +0.000 A 
ATOM      3  C   UNL     1       1.421  14.267  21.597  0.00  0.00    +0.000 C 
ATOM      4  N   UNL     1      -0.888  13.757  21.941  0.00  0.00    +0.000 NA
ATOM      5  N   UNL     1      -1.856  12.965  21.427  0.00  0.00    +0.000 N 
ATOM      6  C   UNL     1      -1.426  12.346  20.262  0.00  0.00    +0.000 A 
ENDROOT
BRANCH   1  11
ATOM      7  N   UNL     1       2.035   8.112  18.574  0.00  0.00    +0.000 N 
ATOM      8  C   UNL     1       0.910   8.416  19.449  0.00  0.00    +0.000 C 
ATOM      9  C   UNL     1       1.054   9.838  19.985  0.00  0.00    +0.000 C 
ATOM     10  N   UNL     1       1.280  10.857  18.963  0.00  0.00    +0.000 N 
ATOM     11  C   UNL     1       0.826  12.180  19.035  0.00  0.00    +0.000 C 
ATOM     12  O   UNL     1       1.146  12.995  18.171  0.00  0.00    +0.000 OA
ATOM     13  C   UNL     1       2.341  10.513  17.995  0.00  0.00    +0.000 C 
ATOM     14  C   UNL     1       2.233   9.065  17.465  0.00  0.00    +0.000 C 
BRANCH   7  18
ATOM     15  C   UNL     1       4.392   4.671  19.217  0.00  0.00    +0.000 A 
ATOM     16  C   UNL     1       3.315   4.956  20.046  0.00  0.00    +0.000 A 
ATOM     17  C   UNL     1       2.522   6.079  19.812  0.00  0.00    +0.000 A 
ATOM     18  C   UNL     1       2.792   6.973  18.758  0.00  0.00    +0.000 A 
ATOM     19  C   UNL     1       3.889   6.670  17.946  0.00  0.00    +0.000 A 
ATOM     20  C   UNL     1       4.685   5.541  18.169  0.00  0.00    +0.000 A 
BRANCH  15  22
ATOM     21  C   UNL     1       4.343   2.352  19.619  0.00  0.00    +0.000 C 
ATOM     22  O   UNL     1       5.105   3.552  19.541  0.00  0.00    +0.000 OA
ENDBRANCH  15  22
ENDBRANCH   7  18
ENDBRANCH   1  11
BRANCH   5  23
ATOM     23  C   UNL     1      -3.084  12.869  22.148  0.00  0.00    +0.000 A 
ATOM     24  C   UNL     1      -3.078  12.252  23.411  0.00  0.00    +0.000 A 
ATOM     25  C   UNL     1      -4.213  12.303  24.220  0.00  0.00    +0.000 A 
ATOM     26  C   UNL     1      -5.356  12.943  23.754  0.00  0.00    +0.000 A 
ATOM     27  F   UNL     1      -6.422  13.054  24.556  0.00  0.00    +0.000 F 
ATOM     28  C   UNL     1      -5.406  13.473  22.471  0.00  0.00    +0.000 A 
ATOM     29  C   UNL     1      -4.280  13.406  21.650  0.00  0.00    +0.000 A 
ENDBRANCH   5  23
BRANCH   6  30
ATOM     30  N   UNL     1      -2.284  11.682  19.376  0.00  0.00    +0.000 N 
ATOM     31  C   UNL     1      -2.120  10.394  18.891  0.00  0.00    +0.000 A 
ATOM     32  C   UNL     1      -3.076  10.129  17.937  0.00  0.00    +0.000 A 
ATOM     33  C   UNL     1      -3.917  11.258  17.880  0.00  0.00    +0.000 A 
ATOM     34  C   UNL     1      -3.430  12.179  18.787  0.00  0.00    +0.000 A 
ENDBRANCH   6  30
TORSDOF 5
ENDMDL
MODEL 2
REMARK VINA RESULT:      -7.1      0.818      1.393
REMARK  Name = 
REMARK  7 active torsions:
REMARK  status: ('A' for Active; 'I' for Inactive)
REMARK    1  A    between atoms: C_1  and  O_2
REMARK    2  A    between atoms: O_2  and  C_3
REMARK    3  A    between atoms: C_6  and  N_7
REMARK    4  A    between atoms: C_11  and  C_13
REMARK    5  A    between atoms: C_14  and  C_15
REMARK    6  A    between atoms: N_17  and  C_18
REMARK    7  A    between atoms: C_25  and  N_26
REMARK                            x       y       z     vdW  Elec       q    Type
REMARK                         _______ _______ _______ _____ _____    ______ ____
ROOT
ATOM      1  C   UNL     1      -0.019  13.159  20.512  0.00  0.00    +0.000 A 
ATOM      2  C   UNL     1       0.372  14.060  21.559  0.00  0.00    +0.000 A 
ATOM      3  C   UNL     1       1.675  14.705  21.874  0.00  0.00    +0.000 C 
ATOM      4  N   UNL     1      -0.638  14.370  22.369  0.00  0.00    +0.000 NA
ATOM      5  N   UNL     1      -1.696  13.659  21.919  0.00  0.00    +0.000 N 
ATOM      6  C   UNL     1      -1.394  13.020  20.725  0.00  0.00    +0.000 A 
ENDROOT
BRANCH   1  11
ATOM      7  N   UNL     1       1.717   8.564  18.855  0.00  0.00    +0.000 N 
ATOM      8  C   UNL     1       0.680   8.935  19.809  0.00  0.00    +0.000 C 
ATOM      9  C   UNL     1       0.935  10.353  20.312  0.00  0.00    +0.000 C 
ATOM     10  N   UNL     1       1.132  11.348  19.261  0.00  0.00    +0.000 N 
ATOM     11  C   UNL     1       0.751  12.693  19.349  0.00  0.00    +0.000 C 
ATOM     12  O   UNL     1       1.043  13.482  18.451  0.00  0.00    +0.000 OA
ATOM     13  C   UNL     1       2.096  10.941  18.220  0.00  0.00    +0.000 C 
ATOM     14  C   UNL     1       1.876   9.495  17.721  0.00  0.00    +0.000 C 
BRANCH   7  18
ATOM     15  C   UNL     1       3.839   4.934  19.217  0.00  0.00    +0.000 A 
ATOM     16  C   UNL     1       4.051   5.773  18.131  0.00  0.00    +0.000 A 
ATOM     17  C   UNL     1       3.369   6.985  18.030  0.00  0.00    +0.000 A 
ATOM     18  C   UNL     1       2.428   7.391  18.997  0.00  0.00    +0.000 A 
ATOM     19  C   UNL     1       2.223   6.523  20.074  0.00  0.00    +0.000 A 
ATOM     20  C   UNL     1       2.911   5.309  20.186  0.00  0.00    +0.000 A 
BRANCH  15  22
ATOM     21  C   UNL     1       3.909   2.668  18.586  0.00  0.00    +0.000 C 
ATOM     22  O   UNL     1       4.554   3.772  19.212  0.00  0.00    +0.000 OA
ENDBRANCH  15  22
ENDBRANCH   7  18
ENDBRANCH   1  11
BRANCH   5  23
ATOM     23  C   UNL     1      -2.878  13.651  22.720  0.00  0.00    +0.000 A 
ATOM     24  C   UNL     1      -3.736  14.762  22.668  0.00  0.00    +0.000 A 
ATOM     25  C   UNL     1      -4.984  14.712  23.290  0.00  0.00    +0.000 A 
ATOM     26  C   UNL     1      -5.356  13.568  23.984  0.00  0.00    +0.000 A 
ATOM     27  F   UNL     1      -6.580  13.491  24.522  0.00  0.00    +0.000 F 
ATOM     28  C   UNL     1      -4.480  12.499  24.124  0.00  0.00    +0.000 A 
ATOM     29  C   UNL     1      -3.222  12.552  23.521  0.00  0.00    +0.000 A 
ENDBRANCH   5  23
BRANCH   6  30
ATOM     30  N   UNL     1      -2.358  12.432  19.896  0.00  0.00    +0.000 N 
ATOM     31  C   UNL     1      -2.111  11.565  18.842  0.00  0.00    +0.000 A 
ATOM     32  C   UNL     1      -3.281  11.304  18.168  0.00  0.00    +0.000 A 
ATOM     33  C   UNL     1      -4.310  11.962  18.870  0.00  0.00    +0.000 A 
ATOM     34  C   UNL     1      -3.726  12.619  19.935  0.00  0.00    +0.000 A 
ENDBRANCH   6  30
TORSDOF 5
ENDMDL
MODEL 3
REMARK VINA RESULT:      -7.1      4.806      6.867
REMARK  Name = 
REMARK  7 active torsions:
REMARK  status: ('A' for Active; 'I' for Inactive)
REMARK    1  A    between atoms: C_1  and  O_2
REMARK    2  A    between atoms: O_2  and  C_3
REMARK    3  A    between atoms: C_6  and  N_7
REMARK    4  A    between atoms: C_11  and  C_13
REMARK    5  A    between atoms: C_14  and  C_15
REMARK    6  A    between atoms: N_17  and  C_18
REMARK    7  A    between atoms: C_25  and  N_26
REMARK                            x       y       z     vdW  Elec       q    Type
REMARK                         _______ _______ _______ _____ _____    ______ ____
ROOT
ATOM      1  C   UNL     1       0.929  14.157  20.346  0.00  0.00    +0.000 A 
ATOM      2  C   UNL     1       0.537  14.884  19.171  0.00  0.00    +0.000 A 
ATOM      3  C   UNL     1       1.030  16.160  18.588  0.00  0.00    +0.000 C 
ATOM      4  N   UNL     1      -0.432  14.273  18.491  0.00  0.00    +0.000 NA
ATOM      5  N   UNL     1      -0.737  13.168  19.208  0.00  0.00    +0.000 N 
ATOM      6  C   UNL     1       0.150  12.998  20.261  0.00  0.00    +0.000 A 
ENDROOT
BRANCH   1  11
ATOM      7  N   UNL     1       6.015  15.017  19.836  0.00  0.00    +0.000 N 
ATOM      8  C   UNL     1       4.906  15.110  18.896  0.00  0.00    +0.000 C 
ATOM      9  C   UNL     1       3.742  14.259  19.397  0.00  0.00    +0.000 C 
ATOM     10  N   UNL     1       3.347  14.516  20.779  0.00  0.00    +0.000 N 
ATOM     11  C   UNL     1       2.040  14.415  21.273  0.00  0.00    +0.000 C 
ATOM     12  O   UNL     1       1.816  14.557  22.474  0.00  0.00    +0.000 OA
ATOM     13  C   UNL     1       4.474  14.540  21.732  0.00  0.00    +0.000 C 
ATOM     14  C   UNL     1       5.678  15.370  21.229  0.00  0.00    +0.000 C 
BRANCH   7  18
ATOM     15  C   UNL     1       9.910  14.102  18.496  0.00  0.00    +0.000 A 
ATOM     16  C   UNL     1       9.716  14.873  19.634  0.00  0.00    +0.000 A 
ATOM     17  C   UNL     1       8.428  15.149  20.089  0.00  0.00    +0.000 A 
ATOM     18  C   UNL     1       7.284  14.687  19.408  0.00  0.00    +0.000 A 
ATOM     19  C   UNL     1       7.506  13.924  18.259  0.00  0.00    +0.000 A 
ATOM     20  C   UNL     1       8.797  13.635  17.800  0.00  0.00    +0.000 A 
BRANCH  15  22
ATOM     21  C   UNL     1      11.405  13.421  16.809  0.00  0.00    +0.000 C 
ATOM     22  O   UNL     1      11.211  13.899  18.136  0.00  0.00    +0.000 OA
ENDBRANCH  15  22
ENDBRANCH   7  18
ENDBRANCH   1  11
BRANCH   5  23
ATOM     23  C   UNL     1      -1.884  12.417  18.810  0.00  0.00    +0.000 A 
ATOM     24  C   UNL     1      -3.045  12.492  19.599  0.00  0.00    +0.000 A 
ATOM     25  C   UNL     1      -4.236  11.923  19.146  0.00  0.00    +0.000 A 
ATOM     26  C   UNL     1      -4.255  11.260  17.925  0.00  0.00    +0.000 A 
ATOM     27  F   UNL     1      -5.412  10.775  17.456  0.00  0.00    +0.000 F 
ATOM     28  C   UNL     1      -3.094  11.096  17.181  0.00  0.00    +0.000 A 
ATOM     29  C   UNL     1      -1.896  11.646  17.640  0.00  0.00    +0.000 A 
ENDBRANCH   5  23
BRANCH   6  30
ATOM     30  N   UNL     1       0.245  11.818  21.010  0.00  0.00    +0.000 N 
ATOM     31  C   UNL     1       0.989  10.696  20.677  0.00  0.00    +0.000 A 
ATOM     32  C   UNL     1       0.731   9.682  21.571  0.00  0.00    +0.000 A 
ATOM     33  C   UNL     1      -0.140  10.211  22.544  0.00  0.00    +0.000 A 
ATOM     34  C   UNL     1      -0.399  11.522  22.196  0.00  0.00    +0.000 A 
ENDBRANCH   6  30
TORSDOF 5
ENDMDL
MODEL 4
REMARK VINA RESULT:      -7.0      0.734      1.207
REMARK  Name = 
REMARK  7 active torsions:
REMARK  status: ('A' for Active; 'I' for Inactive)
REMARK    1  A    between atoms: C_1  and  O_2
REMARK    2  A    between atoms: O_2  and  C_3
REMARK    3  A    between atoms: C_6  and  N_7
REMARK    4  A    between atoms: C_11  and  C_13
REMARK    5  A    between atoms: C_14  and  C_15
REMARK    6  A    between atoms: N_17  and  C_18
REMARK    7  A    between atoms: C_25  and  N_26
REMARK                            x       y       z     vdW  Elec       q    Type
REMARK                         _______ _______ _______ _____ _____    ______ ____
ROOT
ATOM      1  C   UNL     1       0.053  13.073  20.392  0.00  0.00    +0.000 A 
ATOM      2  C   UNL     1       0.488  13.926  21.463  0.00  0.00    +0.000 A 
ATOM      3  C   UNL     1       1.819  14.503  21.789  0.00  0.00    +0.000 C 
ATOM      4  N   UNL     1      -0.505  14.258  22.286  0.00  0.00    +0.000 NA
ATOM      5  N   UNL     1      -1.596  13.608  21.821  0.00  0.00    +0.000 N 
ATOM      6  C   UNL     1      -1.327  12.990  20.609  0.00  0.00    +0.000 A 
ENDROOT
BRANCH   1  11
ATOM      7  N   UNL     1       1.795   8.484  18.727  0.00  0.00    +0.000 N 
ATOM      8  C   UNL     1       0.780   8.851  19.706  0.00  0.00    +0.000 C 
ATOM      9  C   UNL     1       1.032  10.277  20.190  0.00  0.00    +0.000 C 
ATOM     10  N   UNL     1       1.190  11.265  19.126  0.00  0.00    +0.000 N 
ATOM     11  C   UNL     1       0.797  12.607  19.213  0.00  0.00    +0.000 C 
ATOM     12  O   UNL     1       1.056  13.391  18.302  0.00  0.00    +0.000 OA
ATOM     13  C   UNL     1       2.131  10.860  18.063  0.00  0.00    +0.000 C 
ATOM     14  C   UNL     1       1.914   9.407  17.581  0.00  0.00    +0.000 C 
BRANCH   7  18
ATOM     15  C   UNL     1       4.070   4.962  19.210  0.00  0.00    +0.000 A 
ATOM     16  C   UNL     1       3.049   5.274  20.099  0.00  0.00    +0.000 A 
ATOM     17  C   UNL     1       2.282   6.424  19.919  0.00  0.00    +0.000 A 
ATOM     18  C   UNL     1       2.523   7.320  18.859  0.00  0.00    +0.000 A 
ATOM     19  C   UNL     1       3.564   6.991  17.986  0.00  0.00    +0.000 A 
ATOM     20  C   UNL     1       4.333   5.833  18.155  0.00  0.00    +0.000 A 
BRANCH  15  22
ATOM     21  C   UNL     1       4.010   2.614  19.368  0.00  0.00    +0.000 C 
ATOM     22  O   UNL     1       4.761   3.818  19.484  0.00  0.00    +0.000 OA
ENDBRANCH  15  22
ENDBRANCH   7  18
ENDBRANCH   1  11
BRANCH   5  23
ATOM     23  C   UNL     1      -2.773  13.630  22.628  0.00  0.00    +0.000 A 
ATOM     24  C   UNL     1      -3.622  14.748  22.552  0.00  0.00    +0.000 A 
ATOM     25  C   UNL     1      -4.867  14.724  23.181  0.00  0.00    +0.000 A 
ATOM     26  C   UNL     1      -5.246  13.600  23.904  0.00  0.00    +0.000 A 
ATOM     27  F   UNL     1      -6.468  13.548  24.450  0.00  0.00    +0.000 F 
ATOM     28  C   UNL     1      -4.378  12.528  24.067  0.00  0.00    +0.000 A 
ATOM     29  C   UNL     1      -3.124  12.555  23.457  0.00  0.00    +0.000 A 
ENDBRANCH   5  23
BRANCH   6  30
ATOM     30  N   UNL     1      -2.319  12.470  19.768  0.00  0.00    +0.000 N 
ATOM     31  C   UNL     1      -3.686  12.664  19.898  0.00  0.00    +0.000 A 
ATOM     32  C   UNL     1      -4.357  11.888  18.981  0.00  0.00    +0.000 A 
ATOM     33  C   UNL     1      -3.378  11.250  18.196  0.00  0.00    +0.000 A 
ATOM     34  C   UNL     1      -2.144  11.642  18.676  0.00  0.00    +0.000 A 
ENDBRANCH   6  30
TORSDOF 5
ENDMDL
MODEL 5
REMARK VINA RESULT:      -7.0      3.247      4.976
REMARK  Name = 
REMARK  7 active torsions:
REMARK  status: ('A' for Active; 'I' for Inactive)
REMARK    1  A    between atoms: C_1  and  O_2
REMARK    2  A    between atoms: O_2  and  C_3
REMARK    3  A    between atoms: C_6  and  N_7
REMARK    4  A    between atoms: C_11  and  C_13
REMARK    5  A    between atoms: C_14  and  C_15
REMARK    6  A    between atoms: N_17  and  C_18
REMARK    7  A    between atoms: C_25  and  N_26
REMARK                            x       y       z     vdW  Elec       q    Type
REMARK                         _______ _______ _______ _____ _____    ______ ____
ROOT
ATOM      1  C   UNL     1      -1.304  12.584  21.505  0.00  0.00    +0.000 A 
ATOM      2  C   UNL     1      -2.651  13.008  21.241  0.00  0.00    +0.000 A 
ATOM      3  C   UNL     1      -3.964  12.389  21.564  0.00  0.00    +0.000 C 
ATOM      4  N   UNL     1      -2.702  14.178  20.607  0.00  0.00    +0.000 NA
ATOM      5  N   UNL     1      -1.415  14.533  20.394  0.00  0.00    +0.000 N 
ATOM      6  C   UNL     1      -0.546  13.662  21.036  0.00  0.00    +0.000 A 
ENDROOT
BRANCH   1  11
ATOM      7  N   UNL     1       1.510   8.347  20.507  0.00  0.00    +0.000 N 
ATOM      8  C   UNL     1       1.354   9.610  19.798  0.00  0.00    +0.000 C 
ATOM      9  C   UNL     1       0.044  10.271  20.219  0.00  0.00    +0.000 C 
ATOM     10  N   UNL     1      -0.142  10.396  21.662  0.00  0.00    +0.000 N 
ATOM     11  C   UNL     1      -0.827  11.440  22.295  0.00  0.00    +0.000 C 
ATOM     12  O   UNL     1      -1.017  11.412  23.510  0.00  0.00    +0.000 OA
ATOM     13  C   UNL     1       0.125   9.152  22.412  0.00  0.00    +0.000 C 
ATOM     14  C   UNL     1       1.431   8.448  21.977  0.00  0.00    +0.000 C 
BRANCH   7  18
ATOM     15  C   UNL     1       2.400   4.747  18.494  0.00  0.00    +0.000 A 
ATOM     16  C   UNL     1       1.696   4.733  19.691  0.00  0.00    +0.000 A 
ATOM     17  C   UNL     1       1.379   5.927  20.337  0.00  0.00    +0.000 A 
ATOM     18  C   UNL     1       1.779   7.178  19.827  0.00  0.00    +0.000 A 
ATOM     19  C   UNL     1       2.497   7.163  18.628  0.00  0.00    +0.000 A 
ATOM     20  C   UNL     1       2.812   5.969  17.968  0.00  0.00    +0.000 A 
BRANCH  15  22
ATOM     21  C   UNL     1       2.715   2.446  18.882  0.00  0.00    +0.000 C 
ATOM     22  O   UNL     1       2.662   3.522  17.951  0.00  0.00    +0.000 OA
ENDBRANCH  15  22
ENDBRANCH   7  18
ENDBRANCH   1  11
BRANCH   5  23
ATOM     23  C   UNL     1      -1.169  15.663  19.557  0.00  0.00    +0.000 A 
ATOM     24  C   UNL     1      -0.178  15.565  18.566  0.00  0.00    +0.000 A 
ATOM     25  C   UNL     1      -0.038  16.576  17.615  0.00  0.00    +0.000 A 
ATOM     26  C   UNL     1      -0.865  17.691  17.676  0.00  0.00    +0.000 A 
ATOM     27  F   UNL     1      -0.779  18.629  16.724  0.00  0.00    +0.000 F 
ATOM     28  C   UNL     1      -1.783  17.845  18.706  0.00  0.00    +0.000 A 
ATOM     29  C   UNL     1      -1.914  16.846  19.671  0.00  0.00    +0.000 A 
ENDBRANCH   5  23
BRANCH   6  30
ATOM     30  N   UNL     1       0.819  13.920  21.213  0.00  0.00    +0.000 N 
ATOM     31  C   UNL     1       1.366  14.911  22.014  0.00  0.00    +0.000 A 
ATOM     32  C   UNL     1       2.729  14.959  21.832  0.00  0.00    +0.000 A 
ATOM     33  C   UNL     1       3.058  13.911  20.951  0.00  0.00    +0.000 A 
ATOM     34  C   UNL     1       1.880  13.274  20.610  0.00  0.00    +0.000 A 
ENDBRANCH   6  30
TORSDOF 5
ENDMDL
MODEL 6
REMARK VINA RESULT:      -7.0      5.860      9.694
REMARK  Name = 
REMARK  7 active torsions:
REMARK  status: ('A' for Active; 'I' for Inactive)
REMARK    1  A    between atoms: C_1  and  O_2
REMARK    2  A    between atoms: O_2  and  C_3
REMARK    3  A    between atoms: C_6  and  N_7
REMARK    4  A    between atoms: C_11  and  C_13
REMARK    5  A    between atoms: C_14  and  C_15
REMARK    6  A    between atoms: N_17  and  C_18
REMARK    7  A    between atoms: C_25  and  N_26
REMARK                            x       y       z     vdW  Elec       q    Type
REMARK                         _______ _______ _______ _____ _____    ______ ____
ROOT
ATOM      1  C   UNL     1       4.342  14.866  21.045  0.00  0.00    +0.000 A 
ATOM      2  C   UNL     1       4.753  15.628  19.899  0.00  0.00    +0.000 A 
ATOM      3  C   UNL     1       3.975  16.387  18.885  0.00  0.00    +0.000 C 
ATOM      4  N   UNL     1       6.077  15.655  19.753  0.00  0.00    +0.000 NA
ATOM      5  N   UNL     1       6.568  14.888  20.752  0.00  0.00    +0.000 N 
ATOM      6  C   UNL     1       5.562  14.503  21.625  0.00  0.00    +0.000 A 
ENDROOT
BRANCH   1  11
ATOM      7  N   UNL     1       0.194  11.944  19.986  0.00  0.00    +0.000 N 
ATOM      8  C   UNL     1       1.598  11.824  19.615  0.00  0.00    +0.000 C 
ATOM      9  C   UNL     1       2.272  13.189  19.731  0.00  0.00    +0.000 C 
ATOM     10  N   UNL     1       2.070  13.864  21.011  0.00  0.00    +0.000 N 
ATOM     11  C   UNL     1       3.000  14.711  21.626  0.00  0.00    +0.000 C 
ATOM     12  O   UNL     1       2.706  15.312  22.658  0.00  0.00    +0.000 OA
ATOM     13  C   UNL     1       0.664  13.894  21.460  0.00  0.00    +0.000 C 
ATOM     14  C   UNL     1      -0.048  12.529  21.319  0.00  0.00    +0.000 C 
BRANCH   7  18
ATOM     15  C   UNL     1      -2.811  10.544  17.373  0.00  0.00    +0.000 A 
ATOM     16  C   UNL     1      -1.552   9.956  17.384  0.00  0.00    +0.000 A 
ATOM     17  C   UNL     1      -0.572  10.404  18.269  0.00  0.00    +0.000 A 
ATOM     18  C   UNL     1      -0.804  11.473  19.157  0.00  0.00    +0.000 A 
ATOM     19  C   UNL     1      -2.074  12.055  19.117  0.00  0.00    +0.000 A 
ATOM     20  C   UNL     1      -3.066  11.606  18.237  0.00  0.00    +0.000 A 
BRANCH  15  22
ATOM     21  C   UNL     1      -3.375  10.300  15.101  0.00  0.00    +0.000 C 
ATOM     22  O   UNL     1      -3.691  10.033  16.463  0.00  0.00    +0.000 OA
ENDBRANCH  15  22
ENDBRANCH   7  18
ENDBRANCH   1  11
BRANCH   5  23
ATOM     23  C   UNL     1       7.963  14.581  20.727  0.00  0.00    +0.000 A 
ATOM     24  C   UNL     1       8.449  13.737  19.714  0.00  0.00    +0.000 A 
ATOM     25  C   UNL     1       9.824  13.564  19.548  0.00  0.00    +0.000 A 
ATOM     26  C   UNL     1      10.702  14.211  20.408  0.00  0.00    +0.000 A 
ATOM     27  F   UNL     1      12.022  14.103  20.208  0.00  0.00    +0.000 F 
ATOM     28  C   UNL     1      10.233  14.971  21.472  0.00  0.00    +0.000 A 
ATOM     29  C   UNL     1       8.859  15.131  21.655  0.00  0.00    +0.000 A 
ENDBRANCH   5  23
BRANCH   6  30
ATOM     30  N   UNL     1       5.802  13.931  22.881  0.00  0.00    +0.000 N 
ATOM     31  C   UNL     1       6.066  12.593  23.134  0.00  0.00    +0.000 A 
ATOM     32  C   UNL     1       6.108  12.374  24.491  0.00  0.00    +0.000 A 
ATOM     33  C   UNL     1       5.948  13.628  25.110  0.00  0.00    +0.000 A 
ATOM     34  C   UNL     1       5.792  14.565  24.108  0.00  0.00    +0.000 A 
ENDBRANCH   6  30
TORSDOF 5
ENDMDL
MODEL 7
REMARK VINA RESULT:      -6.9      5.572      9.176
REMARK  Name = 
REMARK  7 active torsions:
REMARK  status: ('A' for Active; 'I' for Inactive)
REMARK    1  A    between atoms: C_1  and  O_2
REMARK    2  A    between atoms: O_2  and  C_3
REMARK    3  A    between atoms: C_6  and  N_7
REMARK    4  A    between atoms: C_11  and  C_13
REMARK    5  A    between atoms: C_14  and  C_15
REMARK    6  A    between atoms: N_17  and  C_18
REMARK    7  A    between atoms: C_25  and  N_26
REMARK                            x       y       z     vdW  Elec       q    Type
REMARK                         _______ _______ _______ _____ _____    ______ ____
ROOT
ATOM      1  C   UNL     1       4.241  14.957  21.702  0.00  0.00    +0.000 A 
ATOM      2  C   UNL     1       5.348  14.369  22.403  0.00  0.00    +0.000 A 
ATOM      3  C   UNL     1       5.441  13.718  23.736  0.00  0.00    +0.000 C 
ATOM      4  N   UNL     1       6.479  14.414  21.700  0.00  0.00    +0.000 NA
ATOM      5  N   UNL     1       6.170  15.063  20.555  0.00  0.00    +0.000 N 
ATOM      6  C   UNL     1       4.804  15.290  20.465  0.00  0.00    +0.000 A 
ENDROOT
BRANCH   1  11
ATOM      7  N   UNL     1       0.077  12.148  20.423  0.00  0.00    +0.000 N 
ATOM      8  C   UNL     1       1.506  11.886  20.318  0.00  0.00    +0.000 C 
ATOM      9  C   UNL     1       2.268  13.209  20.334  0.00  0.00    +0.000 C 
ATOM     10  N   UNL     1       1.926  14.098  21.440  0.00  0.00    +0.000 N 
ATOM     11  C   UNL     1       2.817  14.980  22.065  0.00  0.00    +0.000 C 
ATOM     12  O   UNL     1       2.417  15.761  22.927  0.00  0.00    +0.000 OA
ATOM     13  C   UNL     1       0.475  14.285  21.636  0.00  0.00    +0.000 C 
ATOM     14  C   UNL     1      -0.321  12.960  21.590  0.00  0.00    +0.000 C 
BRANCH   7  18
ATOM     15  C   UNL     1      -2.604  10.536  17.590  0.00  0.00    +0.000 A 
ATOM     16  C   UNL     1      -1.290  10.091  17.655  0.00  0.00    +0.000 A 
ATOM     17  C   UNL     1      -0.416  10.606  18.611  0.00  0.00    +0.000 A 
ATOM     18  C   UNL     1      -0.815  11.605  19.521  0.00  0.00    +0.000 A 
ATOM     19  C   UNL     1      -2.138  12.045  19.427  0.00  0.00    +0.000 A 
ATOM     20  C   UNL     1      -3.024  11.526  18.475  0.00  0.00    +0.000 A 
BRANCH  15  22
ATOM     21  C   UNL     1      -2.939  10.229  15.280  0.00  0.00    +0.000 C 
ATOM     22  O   UNL     1      -3.371   9.970  16.613  0.00  0.00    +0.000 OA
ENDBRANCH  15  22
ENDBRANCH   7  18
ENDBRANCH   1  11
BRANCH   5  23
ATOM     23  C   UNL     1       7.245  15.426  19.689  0.00  0.00    +0.000 A 
ATOM     24  C   UNL     1       8.058  14.408  19.162  0.00  0.00    +0.000 A 
ATOM     25  C   UNL     1       8.996  14.705  18.173  0.00  0.00    +0.000 A 
ATOM     26  C   UNL     1       9.137  16.016  17.736  0.00  0.00    +0.000 A 
ATOM     27  F   UNL     1       9.987  16.292  16.738  0.00  0.00    +0.000 F 
ATOM     28  C   UNL     1       8.407  17.046  18.315  0.00  0.00    +0.000 A 
ATOM     29  C   UNL     1       7.482  16.758  19.319  0.00  0.00    +0.000 A 
ENDBRANCH   5  23
BRANCH   6  30
ATOM     30  N   UNL     1       4.163  15.701  19.290  0.00  0.00    +0.000 N 
ATOM     31  C   UNL     1       4.200  15.049  18.067  0.00  0.00    +0.000 A 
ATOM     32  C   UNL     1       3.575  15.815  17.110  0.00  0.00    +0.000 A 
ATOM     33  C   UNL     1       3.058  16.947  17.770  0.00  0.00    +0.000 A 
ATOM     34  C   UNL     1       3.405  16.840  19.102  0.00  0.00    +0.000 A 
ENDBRANCH   6  30
TORSDOF 5
ENDMDL
MODEL 8
REMARK VINA RESULT:      -6.9      4.798      6.879
REMARK  Name = 
REMARK  7 active torsions:
REMARK  status: ('A' for Active; 'I' for Inactive)
REMARK    1  A    between atoms: C_1  and  O_2
REMARK    2  A    between atoms: O_2  and  C_3
REMARK    3  A    between atoms: C_6  and  N_7
REMARK    4  A    between atoms: C_11  and  C_13
REMARK    5  A    between atoms: C_14  and  C_15
REMARK    6  A    between atoms: N_17  and  C_18
REMARK    7  A    between atoms: C_25  and  N_26
REMARK                            x       y       z     vdW  Elec       q    Type
REMARK                         _______ _______ _______ _____ _____    ______ ____
ROOT
ATOM      1  C   UNL     1       0.846  14.049  20.254  0.00  0.00    +0.000 A 
ATOM      2  C   UNL     1       0.485  14.762  19.061  0.00  0.00    +0.000 A 
ATOM      3  C   UNL     1       0.980  16.040  18.485  0.00  0.00    +0.000 C 
ATOM      4  N   UNL     1      -0.451  14.132  18.353  0.00  0.00    +0.000 NA
ATOM      5  N   UNL     1      -0.765  13.028  19.068  0.00  0.00    +0.000 N 
ATOM      6  C   UNL     1       0.086  12.878  20.152  0.00  0.00    +0.000 A 
ENDROOT
BRANCH   1  11
ATOM      7  N   UNL     1       5.952  14.879  19.923  0.00  0.00    +0.000 N 
ATOM      8  C   UNL     1       4.881  14.949  18.937  0.00  0.00    +0.000 C 
ATOM      9  C   UNL     1       3.695  14.116  19.415  0.00  0.00    +0.000 C 
ATOM     10  N   UNL     1       3.247  14.414  20.773  0.00  0.00    +0.000 N 
ATOM     11  C   UNL     1       1.921  14.330  21.217  0.00  0.00    +0.000 C 
ATOM     12  O   UNL     1       1.650  14.507  22.404  0.00  0.00    +0.000 OA
ATOM     13  C   UNL     1       4.336  14.461  21.769  0.00  0.00    +0.000 C 
ATOM     14  C   UNL     1       5.561  15.272  21.291  0.00  0.00    +0.000 C 
BRANCH   7  18
ATOM     15  C   UNL     1       9.848  13.731  18.779  0.00  0.00    +0.000 A 
ATOM     16  C   UNL     1       8.855  13.915  17.824  0.00  0.00    +0.000 A 
ATOM     17  C   UNL     1       7.577  14.322  18.205  0.00  0.00    +0.000 A 
ATOM     18  C   UNL     1       7.236  14.534  19.555  0.00  0.00    +0.000 A 
ATOM     19  C   UNL     1       8.249  14.329  20.496  0.00  0.00    +0.000 A 
ATOM     20  C   UNL     1       9.537  13.929  20.122  0.00  0.00    +0.000 A 
BRANCH  15  22
ATOM     21  C   UNL     1      11.742  14.281  17.493  0.00  0.00    +0.000 C 
ATOM     22  O   UNL     1      11.059  13.325  18.297  0.00  0.00    +0.000 OA
ENDBRANCH  15  22
ENDBRANCH   7  18
ENDBRANCH   1  11
BRANCH   5  23
ATOM     23  C   UNL     1      -1.888  12.258  18.637  0.00  0.00    +0.000 A 
ATOM     24  C   UNL     1      -3.072  12.312  19.392  0.00  0.00    +0.000 A 
ATOM     25  C   UNL     1      -4.239  11.723  18.904  0.00  0.00    +0.000 A 
ATOM     26  C   UNL     1      -4.212  11.061  17.683  0.00  0.00    +0.000 A 
ATOM     27  F   UNL     1      -5.346  10.556  17.181  0.00  0.00    +0.000 F 
ATOM     28  C   UNL     1      -3.027  10.918  16.973  0.00  0.00    +0.000 A 
ATOM     29  C   UNL     1      -1.852  11.488  17.466  0.00  0.00    +0.000 A 
ENDBRANCH   5  23
BRANCH   6  30
ATOM     30  N   UNL     1       0.172  11.706  20.914  0.00  0.00    +0.000 N 
ATOM     31  C   UNL     1      -0.487  11.456  22.108  0.00  0.00    +0.000 A 
ATOM     32  C   UNL     1      -0.054  10.263  22.640  0.00  0.00    +0.000 A 
ATOM     33  C   UNL     1       0.846   9.707  21.710  0.00  0.00    +0.000 A 
ATOM     34  C   UNL     1       0.945  10.591  20.654  0.00  0.00    +0.000 A 
ENDBRANCH   6  30
TORSDOF 5
ENDMDL
MODEL 9
REMARK VINA RESULT:      -6.9      0.514      1.151
REMARK  Name = 
REMARK  7 active torsions:
REMARK  status: ('A' for Active; 'I' for Inactive)
REMARK    1  A    between atoms: C_1  and  O_2
REMARK    2  A    between atoms: O_2  and  C_3
REMARK    3  A    between atoms: C_6  and  N_7
REMARK    4  A    between atoms: C_11  and  C_13
REMARK    5  A    between atoms: C_14  and  C_15
REMARK    6  A    between atoms: N_17  and  C_18
REMARK    7  A    between atoms: C_25  and  N_26
REMARK                            x       y       z     vdW  Elec       q    Type
REMARK                         _______ _______ _______ _____ _____    ______ ____
ROOT
ATOM      1  C   UNL     1      -0.447  12.862  20.274  0.00  0.00    +0.000 A 
ATOM      2  C   UNL     1      -0.191  13.736  21.384  0.00  0.00    +0.000 A 
ATOM      3  C   UNL     1       1.047  14.425  21.835  0.00  0.00    +0.000 C 
ATOM      4  N   UNL     1      -1.281  13.967  22.114  0.00  0.00    +0.000 NA
ATOM      5  N   UNL     1      -2.261  13.229  21.547  0.00  0.00    +0.000 N 
ATOM      6  C   UNL     1      -1.828  12.653  20.361  0.00  0.00    +0.000 A 
ENDROOT
BRANCH   1  11
ATOM      7  N   UNL     1       1.779   8.452  18.705  0.00  0.00    +0.000 N 
ATOM      8  C   UNL     1       0.649   8.721  19.585  0.00  0.00    +0.000 C 
ATOM      9  C   UNL     1       0.748  10.147  20.118  0.00  0.00    +0.000 C 
ATOM     10  N   UNL     1       0.937  11.172  19.094  0.00  0.00    +0.000 N 
ATOM     11  C   UNL     1       0.441  12.479  19.167  0.00  0.00    +0.000 C 
ATOM     12  O   UNL     1       0.731  13.303  18.300  0.00  0.00    +0.000 OA
ATOM     13  C   UNL     1       2.005  10.861  18.123  0.00  0.00    +0.000 C 
ATOM     14  C   UNL     1       1.942   9.410  17.595  0.00  0.00    +0.000 C 
BRANCH   7  18
ATOM     15  C   UNL     1       4.164   5.003  19.188  0.00  0.00    +0.000 A 
ATOM     16  C   UNL     1       4.388   5.877  18.131  0.00  0.00    +0.000 A 
ATOM     17  C   UNL     1       3.616   7.030  17.993  0.00  0.00    +0.000 A 
ATOM     18  C   UNL     1       2.573   7.339  18.888  0.00  0.00    +0.000 A 
ATOM     19  C   UNL     1       2.360   6.437  19.935  0.00  0.00    +0.000 A 
ATOM     20  C   UNL     1       3.136   5.282  20.086  0.00  0.00    +0.000 A 
BRANCH  15  22
ATOM     21  C   UNL     1       4.299   2.665  19.421  0.00  0.00    +0.000 C 
ATOM     22  O   UNL     1       4.972   3.904  19.224  0.00  0.00    +0.000 OA
ENDBRANCH  15  22
ENDBRANCH   7  18
ENDBRANCH   1  11
BRANCH   5  23
ATOM     23  C   UNL     1      -3.505  13.134  22.241  0.00  0.00    +0.000 A 
ATOM     24  C   UNL     1      -3.544  12.439  23.462  0.00  0.00    +0.000 A 
ATOM     25  C   UNL     1      -4.692  12.482  24.254  0.00  0.00    +0.000 A 
ATOM     26  C   UNL     1      -5.800  13.194  23.814  0.00  0.00    +0.000 A 
ATOM     27  F   UNL     1      -6.876  13.295  24.604  0.00  0.00    +0.000 F 
ATOM     28  C   UNL     1      -5.808  13.806  22.567  0.00  0.00    +0.000 A 
ATOM     29  C   UNL     1      -4.670  13.748  21.761  0.00  0.00    +0.000 A 
ENDBRANCH   5  23
BRANCH   6  30
ATOM     30  N   UNL     1      -2.687  12.057  19.430  0.00  0.00    +0.000 N 
ATOM     31  C   UNL     1      -3.972  12.476  19.118  0.00  0.00    +0.000 A 
ATOM     32  C   UNL     1      -4.565  11.571  18.268  0.00  0.00    +0.000 A 
ATOM     33  C   UNL     1      -3.593  10.595  17.972  0.00  0.00    +0.000 A 
ATOM     34  C   UNL     1      -2.449  10.929  18.669  0.00  0.00    +0.000 A 
ENDBRANCH   6  30
TORSDOF 5
ENDMDL
