MODEL 1
REMARK VINA RESULT:      -6.9      0.000      0.000
REMARK  Name = 
REMARK  6 active torsions:
REMARK  status: ('A' for Active; 'I' for Inactive)
REMARK    1  A    between atoms: C_1  and  C_2
REMARK    2  A    between atoms: N_4  and  C_5
REMARK    3  A    between atoms: N_12  and  S_13
REMARK    4  A    between atoms: S_13  and  N_16
REMARK    5  A    between atoms: N_16  and  C_17
REMARK    6  A    between atoms: N_16  and  C_18
REMARK                            x       y       z     vdW  Elec       q    Type
REMARK                         _______ _______ _______ _____ _____    ______ ____
ROOT
ATOM      1  C   UNL     1      -0.521   8.565  22.107  0.00  0.00    +0.000 C 
ATOM      2  C   UNL     1       0.180   8.985  20.876  0.00  0.00    +0.000 A 
ATOM      3  N   UNL     1      -0.086  10.150  20.244  0.00  0.00    +0.000 NA
ATOM      4  N   UNL     1       0.793  10.036  19.194  0.00  0.00    +0.000 N 
ATOM      5  C   UNL     1       0.874  11.078  18.204  0.00  0.00    +0.000 C 
ATOM      6  C   UNL     1       1.547   8.886  19.170  0.00  0.00    +0.000 A 
ATOM      7  N   UNL     1       2.474   8.403  18.320  0.00  0.00    +0.000 NA
ATOM      8  C   UNL     1       2.879   7.229  18.787  0.00  0.00    +0.000 A 
ATOM      9  N   UNL     1       3.765   6.404  18.149  0.00  0.00    +0.000 N 
ATOM     10  C   UNL     1       4.582   5.439  18.912  0.00  0.00    +0.000 C 
ATOM     11  C   UNL     1       5.036   4.269  18.017  0.00  0.00    +0.000 C 
ATOM     12  N   UNL     1       5.700   4.711  16.751  0.00  0.00    +0.000 NA
ATOM     13  C   UNL     1       4.811   5.693  16.033  0.00  0.00    +0.000 C 
ATOM     14  C   UNL     1       4.418   6.893  16.922  0.00  0.00    +0.000 C 
ATOM     15  S   UNL     1       2.081   6.728  20.297  0.00  0.00    +0.000 S 
ATOM     16  C   UNL     1       1.183   8.177  20.260  0.00  0.00    +0.000 A 
ENDROOT
BRANCH  12  17
ATOM     17  S   UNL     1       7.307   5.206  16.874  0.00  0.00    +0.000 S 
ATOM     18  O   UNL     1       8.097   4.074  17.297  0.00  0.00    +0.000 OA
ATOM     19  O   UNL     1       7.653   5.943  15.683  0.00  0.00    +0.000 OA
BRANCH  17  20
ATOM     20  N   UNL     1       7.247   6.306  18.164  0.00  0.00    +0.000 NA
ATOM     21  C   UNL     1       7.945   5.875  19.397  0.00  0.00    +0.000 C 
ATOM     22  C   UNL     1       7.681   7.663  17.748  0.00  0.00    +0.000 C 
ENDBRANCH  17  20
ENDBRANCH  12  17
TORSDOF 2
ENDMDL
MODEL 2
REMARK VINA RESULT:      -6.9      2.883      4.352
REMARK  Name = 
REMARK  6 active torsions:
REMARK  status: ('A' for Active; 'I' for Inactive)
REMARK    1  A    between atoms: C_1  and  C_2
REMARK    2  A    between atoms: N_4  and  C_5
REMARK    3  A    between atoms: N_12  and  S_13
REMARK    4  A    between atoms: S_13  and  N_16
REMARK    5  A    between atoms: N_16  and  C_17
REMARK    6  A    between atoms: N_16  and  C_18
REMARK                            x       y       z     vdW  Elec       q    Type
REMARK                         _______ _______ _______ _____ _____    ______ ____
ROOT
ATOM      1  C   UNL     1      -0.198  13.372  19.818  0.00  0.00    +0.000 C 
ATOM      2  C   UNL     1      -0.166  12.092  20.555  0.00  0.00    +0.000 A 
ATOM      3  N   UNL     1      -0.752  11.927  21.761  0.00  0.00    +0.000 NA
ATOM      4  N   UNL     1      -0.416  10.615  21.992  0.00  0.00    +0.000 N 
ATOM      5  C   UNL     1      -0.832   9.966  23.208  0.00  0.00    +0.000 C 
ATOM      6  C   UNL     1       0.327  10.008  21.007  0.00  0.00    +0.000 A 
ATOM      7  N   UNL     1       0.859   8.778  20.873  0.00  0.00    +0.000 NA
ATOM      8  C   UNL     1       1.491   8.735  19.706  0.00  0.00    +0.000 A 
ATOM      9  N   UNL     1       2.218   7.667  19.256  0.00  0.00    +0.000 N 
ATOM     10  C   UNL     1       2.415   7.442  17.810  0.00  0.00    +0.000 C 
ATOM     11  C   UNL     1       3.677   6.598  17.548  0.00  0.00    +0.000 C 
ATOM     12  N   UNL     1       3.718   5.328  18.338  0.00  0.00    +0.000 NA
ATOM     13  C   UNL     1       3.507   5.637  19.797  0.00  0.00    +0.000 C 
ATOM     14  C   UNL     1       2.206   6.426  20.052  0.00  0.00    +0.000 C 
ATOM     15  S   UNL     1       1.421  10.254  18.781  0.00  0.00    +0.000 S 
ATOM     16  C   UNL     1       0.502  10.939  20.044  0.00  0.00    +0.000 A 
ENDROOT
BRANCH  12  17
ATOM     17  S   UNL     1       2.776   4.052  17.766  0.00  0.00    +0.000 S 
ATOM     18  O   UNL     1       1.433   4.539  17.560  0.00  0.00    +0.000 OA
ATOM     19  O   UNL     1       3.494   3.394  16.700  0.00  0.00    +0.000 OA
BRANCH  17  20
ATOM     20  N   UNL     1       2.748   3.000  19.097  0.00  0.00    +0.000 NA
ATOM     21  C   UNL     1       1.400   2.574  19.537  0.00  0.00    +0.000 C 
ATOM     22  C   UNL     1       3.640   1.833  18.892  0.00  0.00    +0.000 C 
ENDBRANCH  17  20
ENDBRANCH  12  17
TORSDOF 2
ENDMDL
MODEL 3
REMARK VINA RESULT:      -6.5      2.953      4.338
REMARK  Name = 
REMARK  6 active torsions:
REMARK  status: ('A' for Active; 'I' for Inactive)
REMARK    1  A    between atoms: C_1  and  C_2
REMARK    2  A    between atoms: N_4  and  C_5
REMARK    3  A    between atoms: N_12  and  S_13
REMARK    4  A    between atoms: S_13  and  N_16
REMARK    5  A    between atoms: N_16  and  C_17
REMARK    6  A    between atoms: N_16  and  C_18
REMARK                            x       y       z     vdW  Elec       q    Type
REMARK                         _______ _______ _______ _____ _____    ______ ____
ROOT
ATOM      1  C   UNL     1       0.052  12.438  19.033  0.00  0.00    +0.000 C 
ATOM      2  C   UNL     1       0.227  11.309  19.971  0.00  0.00    +0.000 A 
ATOM      3  N   UNL     1      -0.186  11.356  21.257  0.00  0.00    +0.000 NA
ATOM      4  N   UNL     1       0.222  10.109  21.665  0.00  0.00    +0.000 N 
ATOM      5  C   UNL     1      -0.005   9.683  23.021  0.00  0.00    +0.000 C 
ATOM      6  C   UNL     1       0.845   9.344  20.707  0.00  0.00    +0.000 A 
ATOM      7  N   UNL     1       1.396   8.114  20.718  0.00  0.00    +0.000 NA
ATOM      8  C   UNL     1       1.866   7.870  19.501  0.00  0.00    +0.000 A 
ATOM      9  N   UNL     1       2.562   6.746  19.149  0.00  0.00    +0.000 N 
ATOM     10  C   UNL     1       2.570   6.269  17.751  0.00  0.00    +0.000 C 
ATOM     11  C   UNL     1       3.813   5.404  17.469  0.00  0.00    +0.000 C 
ATOM     12  N   UNL     1       4.003   4.296  18.455  0.00  0.00    +0.000 NA
ATOM     13  C   UNL     1       3.980   4.857  19.853  0.00  0.00    +0.000 C 
ATOM     14  C   UNL     1       2.699   5.667  20.143  0.00  0.00    +0.000 C 
ATOM     15  S   UNL     1       1.622   9.200  18.343  0.00  0.00    +0.000 S 
ATOM     16  C   UNL     1       0.858  10.090  19.582  0.00  0.00    +0.000 A 
ENDROOT
BRANCH  12  17
ATOM     17  S   UNL     1       3.037   2.929  18.251  0.00  0.00    +0.000 S 
ATOM     18  O   UNL     1       2.354   3.045  16.984  0.00  0.00    +0.000 OA
ATOM     19  O   UNL     1       3.824   1.760  18.560  0.00  0.00    +0.000 OA
BRANCH  17  20
ATOM     20  N   UNL     1       1.883   3.117  19.480  0.00  0.00    +0.000 NA
ATOM     21  C   UNL     1       0.471   3.037  19.040  0.00  0.00    +0.000 C 
ATOM     22  C   UNL     1       2.143   2.202  20.620  0.00  0.00    +0.000 C 
ENDBRANCH  17  20
ENDBRANCH  12  17
TORSDOF 2
ENDMDL
MODEL 4
REMARK VINA RESULT:      -6.5      3.366      4.536
REMARK  Name = 
REMARK  6 active torsions:
REMARK  status: ('A' for Active; 'I' for Inactive)
REMARK    1  A    between atoms: C_1  and  C_2
REMARK    2  A    between atoms: N_4  and  C_5
REMARK    3  A    between atoms: N_12  and  S_13
REMARK    4  A    between atoms: S_13  and  N_16
REMARK    5  A    between atoms: N_16  and  C_17
REMARK    6  A    between atoms: N_16  and  C_18
REMARK                            x       y       z     vdW  Elec       q    Type
REMARK                         _______ _______ _______ _____ _____    ______ ____
ROOT
ATOM      1  C   UNL     1       0.346  13.681  19.455  0.00  0.00    +0.000 C 
ATOM      2  C   UNL     1       0.163  12.481  20.297  0.00  0.00    +0.000 A 
ATOM      3  N   UNL     1      -0.494  12.509  21.478  0.00  0.00    +0.000 NA
ATOM      4  N   UNL     1      -0.359  11.190  21.837  0.00  0.00    +0.000 N 
ATOM      5  C   UNL     1      -0.916  10.718  23.078  0.00  0.00    +0.000 C 
ATOM      6  C   UNL     1       0.334  10.399  20.950  0.00  0.00    +0.000 A 
ATOM      7  N   UNL     1       0.692   9.100  20.951  0.00  0.00    +0.000 NA
ATOM      8  C   UNL     1       1.362   8.864  19.830  0.00  0.00    +0.000 A 
ATOM      9  N   UNL     1       1.950   7.670  19.514  0.00  0.00    +0.000 N 
ATOM     10  C   UNL     1       2.177   7.289  18.105  0.00  0.00    +0.000 C 
ATOM     11  C   UNL     1       3.317   6.259  17.987  0.00  0.00    +0.000 C 
ATOM     12  N   UNL     1       3.142   5.074  18.883  0.00  0.00    +0.000 NA
ATOM     13  C   UNL     1       2.913   5.540  20.297  0.00  0.00    +0.000 C 
ATOM     14  C   UNL     1       1.726   6.521  20.409  0.00  0.00    +0.000 C 
ATOM     15  S   UNL     1       1.551  10.288  18.778  0.00  0.00    +0.000 S 
ATOM     16  C   UNL     1       0.682  11.205  19.924  0.00  0.00    +0.000 A 
ENDROOT
BRANCH  12  17
ATOM     17  S   UNL     1       2.056   3.892  18.367  0.00  0.00    +0.000 S 
ATOM     18  O   UNL     1       1.423   3.322  19.533  0.00  0.00    +0.000 OA
ATOM     19  O   UNL     1       1.264   4.434  17.289  0.00  0.00    +0.000 OA
BRANCH  17  20
ATOM     20  N   UNL     1       3.087   2.716  17.711  0.00  0.00    +0.000 NA
ATOM     21  C   UNL     1       4.234   3.242  16.936  0.00  0.00    +0.000 C 
ATOM     22  C   UNL     1       3.534   1.744  18.739  0.00  0.00    +0.000 C 
ENDBRANCH  17  20
ENDBRANCH  12  17
TORSDOF 2
ENDMDL
MODEL 5
REMARK VINA RESULT:      -6.5      2.196      2.911
REMARK  Name = 
REMARK  6 active torsions:
REMARK  status: ('A' for Active; 'I' for Inactive)
REMARK    1  A    between atoms: C_1  and  C_2
REMARK    2  A    between atoms: N_4  and  C_5
REMARK    3  A    between atoms: N_12  and  S_13
REMARK    4  A    between atoms: S_13  and  N_16
REMARK    5  A    between atoms: N_16  and  C_17
REMARK    6  A    between atoms: N_16  and  C_18
REMARK                            x       y       z     vdW  Elec       q    Type
REMARK                         _______ _______ _______ _____ _____    ______ ____
ROOT
ATOM      1  C   UNL     1      -1.201  11.418  22.977  0.00  0.00    +0.000 C 
ATOM      2  C   UNL     1      -0.442  11.322  21.713  0.00  0.00    +0.000 A 
ATOM      3  N   UNL     1      -0.318  12.359  20.854  0.00  0.00    +0.000 NA
ATOM      4  N   UNL     1       0.433  11.748  19.879  0.00  0.00    +0.000 N 
ATOM      5  C   UNL     1       0.829  12.483  18.706  0.00  0.00    +0.000 C 
ATOM      6  C   UNL     1       0.750  10.429  20.109  0.00  0.00    +0.000 A 
ATOM      7  N   UNL     1       1.428   9.502  19.405  0.00  0.00    +0.000 NA
ATOM      8  C   UNL     1       1.426   8.377  20.109  0.00  0.00    +0.000 A 
ATOM      9  N   UNL     1       1.956   7.192  19.678  0.00  0.00    +0.000 N 
ATOM     10  C   UNL     1       2.422   6.177  20.645  0.00  0.00    +0.000 C 
ATOM     11  C   UNL     1       2.420   4.770  20.015  0.00  0.00    +0.000 C 
ATOM     12  N   UNL     1       3.150   4.702  18.712  0.00  0.00    +0.000 NA
ATOM     13  C   UNL     1       2.623   5.765  17.783  0.00  0.00    +0.000 C 
ATOM     14  C   UNL     1       2.692   7.177  18.402  0.00  0.00    +0.000 C 
ATOM     15  S   UNL     1       0.558   8.487  21.659  0.00  0.00    +0.000 S 
ATOM     16  C   UNL     1       0.204  10.118  21.305  0.00  0.00    +0.000 A 
ENDROOT
BRANCH  12  17
ATOM     17  S   UNL     1       4.833   4.635  18.791  0.00  0.00    +0.000 S 
ATOM     18  O   UNL     1       5.283   5.678  19.683  0.00  0.00    +0.000 OA
ATOM     19  O   UNL     1       5.229   3.263  19.000  0.00  0.00    +0.000 OA
BRANCH  17  20
ATOM     20  N   UNL     1       5.286   5.070  17.216  0.00  0.00    +0.000 NA
ATOM     21  C   UNL     1       6.336   6.110  17.124  0.00  0.00    +0.000 C 
ATOM     22  C   UNL     1       5.633   3.882  16.398  0.00  0.00    +0.000 C 
ENDBRANCH  17  20
ENDBRANCH  12  17
TORSDOF 2
ENDMDL
MODEL 6
REMARK VINA RESULT:      -6.5      4.452      7.612
REMARK  Name = 
REMARK  6 active torsions:
REMARK  status: ('A' for Active; 'I' for Inactive)
REMARK    1  A    between atoms: C_1  and  C_2
REMARK    2  A    between atoms: N_4  and  C_5
REMARK    3  A    between atoms: N_12  and  S_13
REMARK    4  A    between atoms: S_13  and  N_16
REMARK    5  A    between atoms: N_16  and  C_17
REMARK    6  A    between atoms: N_16  and  C_18
REMARK                            x       y       z     vdW  Elec       q    Type
REMARK                         _______ _______ _______ _____ _____    ______ ____
ROOT
ATOM      1  C   UNL     1       8.965   5.730  13.127  0.00  0.00    +0.000 C 
ATOM      2  C   UNL     1       7.696   4.972  13.157  0.00  0.00    +0.000 A 
ATOM      3  N   UNL     1       7.215   4.309  12.082  0.00  0.00    +0.000 NA
ATOM      4  N   UNL     1       6.053   3.819  12.628  0.00  0.00    +0.000 N 
ATOM      5  C   UNL     1       5.161   3.020  11.829  0.00  0.00    +0.000 C 
ATOM      6  C   UNL     1       5.825   4.154  13.942  0.00  0.00    +0.000 A 
ATOM      7  N   UNL     1       4.820   3.898  14.802  0.00  0.00    +0.000 NA
ATOM      8  C   UNL     1       5.120   4.477  15.958  0.00  0.00    +0.000 A 
ATOM      9  N   UNL     1       4.298   4.496  17.053  0.00  0.00    +0.000 N 
ATOM     10  C   UNL     1       4.855   4.635  18.413  0.00  0.00    +0.000 C 
ATOM     11  C   UNL     1       3.804   5.206  19.386  0.00  0.00    +0.000 C 
ATOM     12  N   UNL     1       2.509   4.458  19.368  0.00  0.00    +0.000 NA
ATOM     13  C   UNL     1       2.007   4.354  17.951  0.00  0.00    +0.000 C 
ATOM     14  C   UNL     1       3.046   3.720  17.002  0.00  0.00    +0.000 C 
ATOM     15  S   UNL     1       6.669   5.354  15.957  0.00  0.00    +0.000 S 
ATOM     16  C   UNL     1       6.883   4.899  14.327  0.00  0.00    +0.000 A 
ENDROOT
BRANCH  12  17
ATOM     17  S   UNL     1       2.467   3.002  20.217  0.00  0.00    +0.000 S 
ATOM     18  O   UNL     1       2.571   3.299  21.627  0.00  0.00    +0.000 OA
ATOM     19  O   UNL     1       1.374   2.206  19.710  0.00  0.00    +0.000 OA
BRANCH  17  20
ATOM     20  N   UNL     1       3.914   2.261  19.735  0.00  0.00    +0.000 NA
ATOM     21  C   UNL     1       4.800   1.826  20.839  0.00  0.00    +0.000 C 
ATOM     22  C   UNL     1       3.671   1.156  18.774  0.00  0.00    +0.000 C 
ENDBRANCH  17  20
ENDBRANCH  12  17
TORSDOF 2
ENDMDL
MODEL 7
REMARK VINA RESULT:      -6.5      3.972      7.866
REMARK  Name = 
REMARK  6 active torsions:
REMARK  status: ('A' for Active; 'I' for Inactive)
REMARK    1  A    between atoms: C_1  and  C_2
REMARK    2  A    between atoms: N_4  and  C_5
REMARK    3  A    between atoms: N_12  and  S_13
REMARK    4  A    between atoms: S_13  and  N_16
REMARK    5  A    between atoms: N_16  and  C_17
REMARK    6  A    between atoms: N_16  and  C_18
REMARK                            x       y       z     vdW  Elec       q    Type
REMARK                         _______ _______ _______ _____ _____    ______ ____
ROOT
ATOM      1  C   UNL     1       4.226   3.260  19.488  0.00  0.00    +0.000 C 
ATOM      2  C   UNL     1       4.214   4.425  18.578  0.00  0.00    +0.000 A 
ATOM      3  N   UNL     1       4.951   4.477  17.447  0.00  0.00    +0.000 NA
ATOM      4  N   UNL     1       4.598   5.731  17.011  0.00  0.00    +0.000 N 
ATOM      5  C   UNL     1       5.157   6.256  15.793  0.00  0.00    +0.000 C 
ATOM      6  C   UNL     1       3.711   6.412  17.812  0.00  0.00    +0.000 A 
ATOM      7  N   UNL     1       3.156   7.638  17.746  0.00  0.00    +0.000 NA
ATOM      8  C   UNL     1       2.363   7.780  18.801  0.00  0.00    +0.000 A 
ATOM      9  N   UNL     1       1.686   8.927  19.113  0.00  0.00    +0.000 N 
ATOM     10  C   UNL     1       0.446   8.878  19.915  0.00  0.00    +0.000 C 
ATOM     11  C   UNL     1       0.190  10.224  20.621  0.00  0.00    +0.000 C 
ATOM     12  N   UNL     1       0.230  11.398  19.694  0.00  0.00    +0.000 NA
ATOM     13  C   UNL     1       1.517  11.378  18.912  0.00  0.00    +0.000 C 
ATOM     14  C   UNL     1       1.729  10.048  18.158  0.00  0.00    +0.000 C 
ATOM     15  S   UNL     1       2.326   6.368  19.884  0.00  0.00    +0.000 S 
ATOM     16  C   UNL     1       3.427   5.586  18.842  0.00  0.00    +0.000 A 
ENDROOT
BRANCH  12  17
ATOM     17  S   UNL     1      -1.141  11.661  18.749  0.00  0.00    +0.000 S 
ATOM     18  O   UNL     1      -0.878  12.779  17.874  0.00  0.00    +0.000 OA
ATOM     19  O   UNL     1      -1.582  10.395  18.216  0.00  0.00    +0.000 OA
BRANCH  17  20
ATOM     20  N   UNL     1      -2.282  12.163  19.901  0.00  0.00    +0.000 NA
ATOM     21  C   UNL     1      -1.970  13.438  20.586  0.00  0.00    +0.000 C 
ATOM     22  C   UNL     1      -3.656  12.176  19.341  0.00  0.00    +0.000 C 
ENDBRANCH  17  20
ENDBRANCH  12  17
TORSDOF 2
ENDMDL
MODEL 8
REMARK VINA RESULT:      -6.4      3.963      7.970
REMARK  Name = 
REMARK  6 active torsions:
REMARK  status: ('A' for Active; 'I' for Inactive)
REMARK    1  A    between atoms: C_1  and  C_2
REMARK    2  A    between atoms: N_4  and  C_5
REMARK    3  A    between atoms: N_12  and  S_13
REMARK    4  A    between atoms: S_13  and  N_16
REMARK    5  A    between atoms: N_16  and  C_17
REMARK    6  A    between atoms: N_16  and  C_18
REMARK                            x       y       z     vdW  Elec       q    Type
REMARK                         _______ _______ _______ _____ _____    ______ ____
ROOT
ATOM      1  C   UNL     1       5.529   5.595  15.580  0.00  0.00    +0.000 C 
ATOM      2  C   UNL     1       5.005   5.375  16.944  0.00  0.00    +0.000 A 
ATOM      3  N   UNL     1       5.358   4.312  17.700  0.00  0.00    +0.000 NA
ATOM      4  N   UNL     1       4.600   4.574  18.816  0.00  0.00    +0.000 N 
ATOM      5  C   UNL     1       4.639   3.678  19.942  0.00  0.00    +0.000 C 
ATOM      6  C   UNL     1       3.829   5.712  18.759  0.00  0.00    +0.000 A 
ATOM      7  N   UNL     1       2.957   6.283  19.612  0.00  0.00    +0.000 NA
ATOM      8  C   UNL     1       2.491   7.385  19.036  0.00  0.00    +0.000 A 
ATOM      9  N   UNL     1       1.525   8.192  19.572  0.00  0.00    +0.000 N 
ATOM     10  C   UNL     1       1.445   9.620  19.207  0.00  0.00    +0.000 C 
ATOM     11  C   UNL     1       0.023  10.170  19.430  0.00  0.00    +0.000 C 
ATOM     12  N   UNL     1      -0.512   9.896  20.800  0.00  0.00    +0.000 NA
ATOM     13  C   UNL     1      -0.394   8.424  21.101  0.00  0.00    +0.000 C 
ATOM     14  C   UNL     1       1.048   7.902  20.936  0.00  0.00    +0.000 C 
ATOM     15  S   UNL     1       3.148   7.694  17.411  0.00  0.00    +0.000 S 
ATOM     16  C   UNL     1       4.075   6.269  17.554  0.00  0.00    +0.000 A 
ENDROOT
BRANCH  12  17
ATOM     17  S   UNL     1       0.041  10.895  22.041  0.00  0.00    +0.000 S 
ATOM     18  O   UNL     1       0.019  10.139  23.271  0.00  0.00    +0.000 OA
ATOM     19  O   UNL     1       1.249  11.550  21.599  0.00  0.00    +0.000 OA
BRANCH  17  20
ATOM     20  N   UNL     1      -1.181  12.068  22.131  0.00  0.00    +0.000 NA
ATOM     21  C   UNL     1      -1.989  12.044  23.371  0.00  0.00    +0.000 C 
ATOM     22  C   UNL     1      -0.655  13.428  21.858  0.00  0.00    +0.000 C 
ENDBRANCH  17  20
ENDBRANCH  12  17
TORSDOF 2
ENDMDL
MODEL 9
REMARK VINA RESULT:      -6.4      4.317      8.055
REMARK  Name = 
REMARK  6 active torsions:
REMARK  status: ('A' for Active; 'I' for Inactive)
REMARK    1  A    between atoms: C_1  and  C_2
REMARK    2  A    between atoms: N_4  and  C_5
REMARK    3  A    between atoms: N_12  and  S_13
REMARK    4  A    between atoms: S_13  and  N_16
REMARK    5  A    between atoms: N_16  and  C_17
REMARK    6  A    between atoms: N_16  and  C_18
REMARK                            x       y       z     vdW  Elec       q    Type
REMARK                         _______ _______ _______ _____ _____    ______ ____
ROOT
ATOM      1  C   UNL     1       4.529   4.861  16.774  0.00  0.00    +0.000 C 
ATOM      2  C   UNL     1       3.792   5.076  18.037  0.00  0.00    +0.000 A 
ATOM      3  N   UNL     1       3.676   4.122  18.987  0.00  0.00    +0.000 NA
ATOM      4  N   UNL     1       2.911   4.810  19.898  0.00  0.00    +0.000 N 
ATOM      5  C   UNL     1       2.509   4.177  21.127  0.00  0.00    +0.000 C 
ATOM      6  C   UNL     1       2.571   6.094  19.541  0.00  0.00    +0.000 A 
ATOM      7  N   UNL     1       1.834   7.055  20.131  0.00  0.00    +0.000 NA
ATOM      8  C   UNL     1       1.833   8.113  19.330  0.00  0.00    +0.000 A 
ATOM      9  N   UNL     1       1.126   9.261  19.561  0.00  0.00    +0.000 N 
ATOM     10  C   UNL     1       1.567  10.549  18.989  0.00  0.00    +0.000 C 
ATOM     11  C   UNL     1       0.388  11.535  18.870  0.00  0.00    +0.000 C 
ATOM     12  N   UNL     1      -0.377  11.703  20.144  0.00  0.00    +0.000 NA
ATOM     13  C   UNL     1      -0.789  10.351  20.666  0.00  0.00    +0.000 C 
ATOM     14  C   UNL     1       0.411   9.396  20.843  0.00  0.00    +0.000 C 
ATOM     15  S   UNL     1       2.757   7.891  17.824  0.00  0.00    +0.000 S 
ATOM     16  C   UNL     1       3.138   6.308  18.334  0.00  0.00    +0.000 A 
ENDROOT
BRANCH  12  17
ATOM     17  S   UNL     1       0.311  12.707  21.311  0.00  0.00    +0.000 S 
ATOM     18  O   UNL     1      -0.196  12.309  22.604  0.00  0.00    +0.000 OA
ATOM     19  O   UNL     1       1.731  12.787  21.069  0.00  0.00    +0.000 OA
BRANCH  17  20
ATOM     20  N   UNL     1      -0.365  14.216  20.932  0.00  0.00    +0.000 NA
ATOM     21  C   UNL     1       0.440  15.058  20.017  0.00  0.00    +0.000 C 
ATOM     22  C   UNL     1      -1.762  14.085  20.450  0.00  0.00    +0.000 C 
ENDBRANCH  17  20
ENDBRANCH  12  17
TORSDOF 2
ENDMDL
