MODEL 1
REMARK VINA RESULT:      -7.1      0.000      0.000
REMARK  Name = 
REMARK  7 active torsions:
REMARK  status: ('A' for Active; 'I' for Inactive)
REMARK    1  A    between atoms: C_1  and  C_2
REMARK    2  A    between atoms: C_2  and  N_3
REMARK    3  A    between atoms: N_15  and  C_16
REMARK    4  A    between atoms: C_19  and  C_20
REMARK    5  A    between atoms: N_25  and  C_26
REMARK    6  A    between atoms: C_26  and  C_27
REMARK    7  A    between atoms: C_27  and  O_28
REMARK                            x       y       z     vdW  Elec       q    Type
REMARK                         _______ _______ _______ _____ _____    ______ ____
ROOT
ATOM      1  N   UNL     1       3.107   3.904  19.797  0.00  0.00    +0.000 N 
ATOM      2  C   UNL     1       2.231   4.905  20.312  0.00  0.00    +0.000 A 
ATOM      3  O   UNL     1       1.571   4.846  21.342  0.00  0.00    +0.000 OA
ATOM      4  C   UNL     1       2.271   6.104  19.381  0.00  0.00    +0.000 A 
ATOM      5  C   UNL     1       1.924   7.413  19.492  0.00  0.00    +0.000 C 
ATOM      6  S   UNL     1       0.990   8.010  20.901  0.00  0.00    +0.000 S 
ATOM      7  C   UNL     1       0.956   9.657  20.177  0.00  0.00    +0.000 A 
ATOM      8  C   UNL     1       0.320  10.785  20.686  0.00  0.00    +0.000 A 
ATOM      9  C   UNL     1       0.456  12.004  20.011  0.00  0.00    +0.000 A 
ATOM     10  C   UNL     1       1.219  12.088  18.848  0.00  0.00    +0.000 A 
ATOM     11  C   UNL     1       1.833  10.945  18.329  0.00  0.00    +0.000 A 
ATOM     12  C   UNL     1       1.691   9.710  18.980  0.00  0.00    +0.000 A 
ATOM     13  N   UNL     1       2.207   8.468  18.560  0.00  0.00    +0.000 N 
ATOM     14  C   UNL     1       3.146   8.455  17.450  0.00  0.00    +0.000 C 
ATOM     15  S   UNL     1       2.898   5.525  17.874  0.00  0.00    +0.000 S 
ATOM     16  C   UNL     1       3.721   4.225  18.619  0.00  0.00    +0.000 A 
ATOM     17  C   UNL     1       4.812   3.670  18.057  0.00  0.00    +0.000 C 
ENDROOT
BRANCH  17  18
ATOM     18  C   UNL     1       5.413   4.331  16.887  0.00  0.00    +0.000 A 
ATOM     19  C   UNL     1       5.229   3.692  15.640  0.00  0.00    +0.000 A 
ATOM     20  C   UNL     1       6.032   4.008  14.554  0.00  0.00    +0.000 A 
ATOM     21  C   UNL     1       6.970   5.011  14.699  0.00  0.00    +0.000 A 
ATOM     22  C   UNL     1       7.083   5.674  15.915  0.00  0.00    +0.000 A 
ATOM     23  N   UNL     1       6.362   5.316  17.008  0.00  0.00    +0.000 N 
BRANCH  23  24
ATOM     24  C   UNL     1       6.638   6.042  18.297  0.00  0.00    +0.000 C 
BRANCH  24  25
ATOM     25  C   UNL     1       7.977   5.665  18.961  0.00  0.00    +0.000 C 
BRANCH  25  26
ATOM     26  O   UNL     1       7.833   5.506  20.370  0.00  0.00    +0.000 OA
ATOM     27  H   UNL     1       8.302   4.687  20.628  0.00  0.00    +0.000 HD
ENDBRANCH  25  26
ENDBRANCH  24  25
ENDBRANCH  23  24
ENDBRANCH  17  18
BRANCH   1  29
ATOM     28  C   UNL     1       2.207   1.570  19.906  0.00  0.00    +0.000 C 
ATOM     29  C   UNL     1       3.244   2.569  20.390  0.00  0.00    +0.000 C 
ENDBRANCH   1  29
TORSDOF 5
ENDMDL
MODEL 2
REMARK VINA RESULT:      -6.8      2.217      4.565
REMARK  Name = 
REMARK  7 active torsions:
REMARK  status: ('A' for Active; 'I' for Inactive)
REMARK    1  A    between atoms: C_1  and  C_2
REMARK    2  A    between atoms: C_2  and  N_3
REMARK    3  A    between atoms: N_15  and  C_16
REMARK    4  A    between atoms: C_19  and  C_20
REMARK    5  A    between atoms: N_25  and  C_26
REMARK    6  A    between atoms: C_26  and  C_27
REMARK    7  A    between atoms: C_27  and  O_28
REMARK                            x       y       z     vdW  Elec       q    Type
REMARK                         _______ _______ _______ _____ _____    ______ ____
ROOT
ATOM      1  N   UNL     1       4.374   5.174  16.961  0.00  0.00    +0.000 N 
ATOM      2  C   UNL     1       4.122   6.577  16.967  0.00  0.00    +0.000 A 
ATOM      3  O   UNL     1       4.459   7.389  16.115  0.00  0.00    +0.000 OA
ATOM      4  C   UNL     1       3.317   6.915  18.210  0.00  0.00    +0.000 A 
ATOM      5  C   UNL     1       2.543   7.964  18.593  0.00  0.00    +0.000 C 
ATOM      6  S   UNL     1       2.515   9.489  17.650  0.00  0.00    +0.000 S 
ATOM      7  C   UNL     1       1.395  10.212  18.859  0.00  0.00    +0.000 A 
ATOM      8  C   UNL     1       0.892  11.509  18.867  0.00  0.00    +0.000 A 
ATOM      9  C   UNL     1      -0.023  11.877  19.861  0.00  0.00    +0.000 A 
ATOM     10  C   UNL     1      -0.428  10.956  20.826  0.00  0.00    +0.000 A 
ATOM     11  C   UNL     1       0.101   9.663  20.826  0.00  0.00    +0.000 A 
ATOM     12  C   UNL     1       1.036   9.282  19.851  0.00  0.00    +0.000 A 
ATOM     13  N   UNL     1       1.690   8.039  19.745  0.00  0.00    +0.000 N 
ATOM     14  C   UNL     1       1.237   6.952  20.597  0.00  0.00    +0.000 C 
ATOM     15  S   UNL     1       3.543   5.594  19.306  0.00  0.00    +0.000 S 
ATOM     16  C   UNL     1       3.890   4.495  18.044  0.00  0.00    +0.000 A 
ATOM     17  C   UNL     1       3.674   3.173  18.184  0.00  0.00    +0.000 C 
ENDROOT
BRANCH  17  18
ATOM     18  C   UNL     1       2.942   2.702  19.371  0.00  0.00    +0.000 A 
ATOM     19  C   UNL     1       1.562   3.001  19.418  0.00  0.00    +0.000 A 
ATOM     20  C   UNL     1       0.861   2.937  20.614  0.00  0.00    +0.000 A 
ATOM     21  C   UNL     1       1.527   2.508  21.745  0.00  0.00    +0.000 A 
ATOM     22  C   UNL     1       2.867   2.151  21.658  0.00  0.00    +0.000 A 
ATOM     23  N   UNL     1       3.584   2.290  20.513  0.00  0.00    +0.000 N 
BRANCH  23  24
ATOM     24  C   UNL     1       5.051   1.964  20.562  0.00  0.00    +0.000 C 
BRANCH  24  25
ATOM     25  C   UNL     1       5.389   0.687  21.356  0.00  0.00    +0.000 C 
BRANCH  25  26
ATOM     26  O   UNL     1       6.380   0.938  22.350  0.00  0.00    +0.000 OA
ATOM     27  H   UNL     1       5.983   1.519  23.029  0.00  0.00    +0.000 HD
ENDBRANCH  25  26
ENDBRANCH  24  25
ENDBRANCH  23  24
ENDBRANCH  17  18
BRANCH   1  29
ATOM     28  C   UNL     1       6.699   4.570  16.254  0.00  0.00    +0.000 C 
ATOM     29  C   UNL     1       5.211   4.509  15.956  0.00  0.00    +0.000 C 
ENDBRANCH   1  29
TORSDOF 5
ENDMDL
MODEL 3
REMARK VINA RESULT:      -6.1      1.044      1.169
REMARK  Name = 
REMARK  7 active torsions:
REMARK  status: ('A' for Active; 'I' for Inactive)
REMARK    1  A    between atoms: C_1  and  C_2
REMARK    2  A    between atoms: C_2  and  N_3
REMARK    3  A    between atoms: N_15  and  C_16
REMARK    4  A    between atoms: C_19  and  C_20
REMARK    5  A    between atoms: N_25  and  C_26
REMARK    6  A    between atoms: C_26  and  C_27
REMARK    7  A    between atoms: C_27  and  O_28
REMARK                            x       y       z     vdW  Elec       q    Type
REMARK                         _______ _______ _______ _____ _____    ______ ____
ROOT
ATOM      1  N   UNL     1       2.323   4.834  20.284  0.00  0.00    +0.000 N 
ATOM      2  C   UNL     1       1.556   6.011  20.527  0.00  0.00    +0.000 A 
ATOM      3  O   UNL     1       0.760   6.196  21.439  0.00  0.00    +0.000 OA
ATOM      4  C   UNL     1       1.916   7.045  19.473  0.00  0.00    +0.000 A 
ATOM      5  C   UNL     1       1.772   8.392  19.367  0.00  0.00    +0.000 C 
ATOM      6  S   UNL     1       0.761   9.313  20.527  0.00  0.00    +0.000 S 
ATOM      7  C   UNL     1       1.092  10.825  19.610  0.00  0.00    +0.000 A 
ATOM      8  C   UNL     1       0.581  12.093  19.869  0.00  0.00    +0.000 A 
ATOM      9  C   UNL     1       1.002  13.170  19.079  0.00  0.00    +0.000 A 
ATOM     10  C   UNL     1       1.922  12.976  18.051  0.00  0.00    +0.000 A 
ATOM     11  C   UNL     1       2.410  11.695  17.779  0.00  0.00    +0.000 A 
ATOM     12  C   UNL     1       1.983  10.600  18.546  0.00  0.00    +0.000 A 
ATOM     13  N   UNL     1       2.346   9.250  18.369  0.00  0.00    +0.000 N 
ATOM     14  C   UNL     1       3.414   8.945  17.431  0.00  0.00    +0.000 C 
ATOM     15  S   UNL     1       2.643   6.171  18.167  0.00  0.00    +0.000 S 
ATOM     16  C   UNL     1       3.136   4.891  19.186  0.00  0.00    +0.000 A 
ATOM     17  C   UNL     1       4.191   4.113  18.876  0.00  0.00    +0.000 C 
ENDROOT
BRANCH  17  18
ATOM     18  C   UNL     1       5.045   4.505  17.744  0.00  0.00    +0.000 A 
ATOM     19  C   UNL     1       4.728   3.936  16.490  0.00  0.00    +0.000 A 
ATOM     20  C   UNL     1       5.652   3.938  15.455  0.00  0.00    +0.000 A 
ATOM     21  C   UNL     1       6.863   4.571  15.654  0.00  0.00    +0.000 A 
ATOM     22  C   UNL     1       7.122   5.186  16.873  0.00  0.00    +0.000 A 
ATOM     23  N   UNL     1       6.262   5.117  17.920  0.00  0.00    +0.000 N 
BRANCH  23  24
ATOM     24  C   UNL     1       6.691   5.738  19.222  0.00  0.00    +0.000 C 
BRANCH  24  25
ATOM     25  C   UNL     1       8.158   5.461  19.602  0.00  0.00    +0.000 C 
BRANCH  25  26
ATOM     26  O   UNL     1       8.307   5.279  21.008  0.00  0.00    +0.000 OA
ATOM     27  H   UNL     1       9.138   5.718  21.280  0.00  0.00    +0.000 HD
ENDBRANCH  25  26
ENDBRANCH  24  25
ENDBRANCH  23  24
ENDBRANCH  17  18
BRANCH   1  29
ATOM     28  C   UNL     1       1.081   2.671  20.509  0.00  0.00    +0.000 C 
ATOM     29  C   UNL     1       2.160   3.593  21.049  0.00  0.00    +0.000 C 
ENDBRANCH   1  29
TORSDOF 5
ENDMDL
MODEL 4
REMARK VINA RESULT:      -6.0      7.364     12.488
REMARK  Name = 
REMARK  7 active torsions:
REMARK  status: ('A' for Active; 'I' for Inactive)
REMARK    1  A    between atoms: C_1  and  C_2
REMARK    2  A    between atoms: C_2  and  N_3
REMARK    3  A    between atoms: N_15  and  C_16
REMARK    4  A    between atoms: C_19  and  C_20
REMARK    5  A    between atoms: N_25  and  C_26
REMARK    6  A    between atoms: C_26  and  C_27
REMARK    7  A    between atoms: C_27  and  O_28
REMARK                            x       y       z     vdW  Elec       q    Type
REMARK                         _______ _______ _______ _____ _____    ______ ____
ROOT
ATOM      1  N   UNL     1      -5.715  14.455  22.873  0.00  0.00    +0.000 N 
ATOM      2  C   UNL     1      -4.542  13.780  23.321  0.00  0.00    +0.000 A 
ATOM      3  O   UNL     1      -4.239  13.519  24.478  0.00  0.00    +0.000 OA
ATOM      4  C   UNL     1      -3.721  13.387  22.105  0.00  0.00    +0.000 A 
ATOM      5  C   UNL     1      -2.722  12.495  21.874  0.00  0.00    +0.000 C 
ATOM      6  S   UNL     1      -1.899  11.650  23.224  0.00  0.00    +0.000 S 
ATOM      7  C   UNL     1      -0.803  10.843  22.047  0.00  0.00    +0.000 A 
ATOM      8  C   UNL     1       0.251   9.981  22.336  0.00  0.00    +0.000 A 
ATOM      9  C   UNL     1       0.959   9.396  21.279  0.00  0.00    +0.000 A 
ATOM     10  C   UNL     1       0.612   9.669  19.958  0.00  0.00    +0.000 A 
ATOM     11  C   UNL     1      -0.430  10.557  19.676  0.00  0.00    +0.000 A 
ATOM     12  C   UNL     1      -1.138  11.170  20.721  0.00  0.00    +0.000 A 
ATOM     13  N   UNL     1      -2.176  12.114  20.601  0.00  0.00    +0.000 N 
ATOM     14  C   UNL     1      -2.728  12.361  19.279  0.00  0.00    +0.000 C 
ATOM     15  S   UNL     1      -4.268  14.392  20.806  0.00  0.00    +0.000 S 
ATOM     16  C   UNL     1      -5.804  14.622  21.519  0.00  0.00    +0.000 A 
ATOM     17  C   UNL     1      -6.889  14.909  20.774  0.00  0.00    +0.000 C 
ENDROOT
BRANCH  17  18
ATOM     18  C   UNL     1      -6.778  14.825  19.309  0.00  0.00    +0.000 A 
ATOM     19  C   UNL     1      -6.479  16.028  18.630  0.00  0.00    +0.000 A 
ATOM     20  C   UNL     1      -6.704  16.150  17.267  0.00  0.00    +0.000 A 
ATOM     21  C   UNL     1      -7.162  15.046  16.574  0.00  0.00    +0.000 A 
ATOM     22  C   UNL     1      -7.381  13.853  17.252  0.00  0.00    +0.000 A 
ATOM     23  N   UNL     1      -7.244  13.746  18.599  0.00  0.00    +0.000 N 
BRANCH  23  24
ATOM     24  C   UNL     1      -7.601  12.431  19.237  0.00  0.00    +0.000 C 
BRANCH  24  25
ATOM     25  C   UNL     1      -6.385  11.575  19.643  0.00  0.00    +0.000 C 
BRANCH  25  26
ATOM     26  O   UNL     1      -6.450  11.196  21.016  0.00  0.00    +0.000 OA
ATOM     27  H   UNL     1      -5.755  10.526  21.175  0.00  0.00    +0.000 HD
ENDBRANCH  25  26
ENDBRANCH  24  25
ENDBRANCH  23  24
ENDBRANCH  17  18
BRANCH   1  29
ATOM     28  C   UNL     1      -7.762  14.105  24.271  0.00  0.00    +0.000 C 
ATOM     29  C   UNL     1      -6.692  15.065  23.783  0.00  0.00    +0.000 C 
ENDBRANCH   1  29
TORSDOF 5
ENDMDL
MODEL 5
REMARK VINA RESULT:      -5.9      6.087     11.427
REMARK  Name = 
REMARK  7 active torsions:
REMARK  status: ('A' for Active; 'I' for Inactive)
REMARK    1  A    between atoms: C_1  and  C_2
REMARK    2  A    between atoms: C_2  and  N_3
REMARK    3  A    between atoms: N_15  and  C_16
REMARK    4  A    between atoms: C_19  and  C_20
REMARK    5  A    between atoms: N_25  and  C_26
REMARK    6  A    between atoms: C_26  and  C_27
REMARK    7  A    between atoms: C_27  and  O_28
REMARK                            x       y       z     vdW  Elec       q    Type
REMARK                         _______ _______ _______ _____ _____    ______ ____
ROOT
ATOM      1  N   UNL     1      -4.095  13.101  22.572  0.00  0.00    +0.000 N 
ATOM      2  C   UNL     1      -2.834  12.439  22.653  0.00  0.00    +0.000 A 
ATOM      3  O   UNL     1      -2.247  12.098  23.671  0.00  0.00    +0.000 OA
ATOM      4  C   UNL     1      -2.336  12.181  21.241  0.00  0.00    +0.000 A 
ATOM      5  C   UNL     1      -1.410  11.353  20.691  0.00  0.00    +0.000 C 
ATOM      6  S   UNL     1      -0.259  10.435  21.714  0.00  0.00    +0.000 S 
ATOM      7  C   UNL     1       0.522   9.772  20.235  0.00  0.00    +0.000 A 
ATOM      8  C   UNL     1       1.631   8.933  20.175  0.00  0.00    +0.000 A 
ATOM      9  C   UNL     1       2.063   8.466  18.928  0.00  0.00    +0.000 A 
ATOM     10  C   UNL     1       1.391   8.832  17.764  0.00  0.00    +0.000 A 
ATOM     11  C   UNL     1       0.295   9.696  17.829  0.00  0.00    +0.000 A 
ATOM     12  C   UNL     1      -0.141  10.192  19.068  0.00  0.00    +0.000 A 
ATOM     13  N   UNL     1      -1.194  11.099  19.293  0.00  0.00    +0.000 N 
ATOM     14  C   UNL     1      -2.064  11.431  18.177  0.00  0.00    +0.000 C 
ATOM     15  S   UNL     1      -3.211  13.266  20.214  0.00  0.00    +0.000 S 
ATOM     16  C   UNL     1      -4.524  13.374  21.303  0.00  0.00    +0.000 A 
ATOM     17  C   UNL     1      -5.766  13.677  20.878  0.00  0.00    +0.000 C 
ENDROOT
BRANCH  17  18
ATOM     18  C   UNL     1      -6.023  13.717  19.430  0.00  0.00    +0.000 A 
ATOM     19  C   UNL     1      -6.334  14.981  18.881  0.00  0.00    +0.000 A 
ATOM     20  C   UNL     1      -6.938  15.087  17.637  0.00  0.00    +0.000 A 
ATOM     21  C   UNL     1      -7.167  13.931  16.915  0.00  0.00    +0.000 A 
ATOM     22  C   UNL     1      -6.786  12.705  17.447  0.00  0.00    +0.000 A 
ATOM     23  N   UNL     1      -6.272  12.582  18.697  0.00  0.00    +0.000 N 
BRANCH  23  24
ATOM     24  C   UNL     1      -5.987  11.195  19.204  0.00  0.00    +0.000 C 
BRANCH  24  25
ATOM     25  C   UNL     1      -7.221  10.460  19.764  0.00  0.00    +0.000 C 
BRANCH  25  26
ATOM     26  O   UNL     1      -7.577   9.345  18.950  0.00  0.00    +0.000 OA
ATOM     27  H   UNL     1      -7.045   8.578  19.244  0.00  0.00    +0.000 HD
ENDBRANCH  25  26
ENDBRANCH  24  25
ENDBRANCH  23  24
ENDBRANCH  17  18
BRANCH   1  29
ATOM     28  C   UNL     1      -4.329  14.932  24.263  0.00  0.00    +0.000 C 
ATOM     29  C   UNL     1      -4.824  13.593  23.746  0.00  0.00    +0.000 C 
ENDBRANCH   1  29
TORSDOF 5
ENDMDL
MODEL 6
REMARK VINA RESULT:      -5.7      8.727     10.211
REMARK  Name = 
REMARK  7 active torsions:
REMARK  status: ('A' for Active; 'I' for Inactive)
REMARK    1  A    between atoms: C_1  and  C_2
REMARK    2  A    between atoms: C_2  and  N_3
REMARK    3  A    between atoms: N_15  and  C_16
REMARK    4  A    between atoms: C_19  and  C_20
REMARK    5  A    between atoms: N_25  and  C_26
REMARK    6  A    between atoms: C_26  and  C_27
REMARK    7  A    between atoms: C_27  and  O_28
REMARK                            x       y       z     vdW  Elec       q    Type
REMARK                         _______ _______ _______ _____ _____    ______ ____
ROOT
ATOM      1  N   UNL     1       6.375  15.137  19.411  0.00  0.00    +0.000 N 
ATOM      2  C   UNL     1       5.794  15.285  20.705  0.00  0.00    +0.000 A 
ATOM      3  O   UNL     1       4.718  15.805  20.974  0.00  0.00    +0.000 OA
ATOM      4  C   UNL     1       6.722  14.647  21.724  0.00  0.00    +0.000 A 
ATOM      5  C   UNL     1       6.582  14.208  23.002  0.00  0.00    +0.000 C 
ATOM      6  S   UNL     1       5.106  14.572  23.953  0.00  0.00    +0.000 S 
ATOM      7  C   UNL     1       5.821  13.737  25.377  0.00  0.00    +0.000 A 
ATOM      8  C   UNL     1       5.263  13.615  26.646  0.00  0.00    +0.000 A 
ATOM      9  C   UNL     1       5.944  12.871  27.618  0.00  0.00    +0.000 A 
ATOM     10  C   UNL     1       7.159  12.259  27.319  0.00  0.00    +0.000 A 
ATOM     11  C   UNL     1       7.726  12.409  26.051  0.00  0.00    +0.000 A 
ATOM     12  C   UNL     1       7.069  13.168  25.069  0.00  0.00    +0.000 A 
ATOM     13  N   UNL     1       7.530  13.448  23.768  0.00  0.00    +0.000 N 
ATOM     14  C   UNL     1       8.706  12.740  23.290  0.00  0.00    +0.000 C 
ATOM     15  S   UNL     1       8.272  14.535  20.962  0.00  0.00    +0.000 S 
ATOM     16  C   UNL     1       7.595  14.521  19.393  0.00  0.00    +0.000 A 
ATOM     17  C   UNL     1       8.237  13.952  18.355  0.00  0.00    +0.000 C 
ENDROOT
BRANCH  17  18
ATOM     18  C   UNL     1       9.446  13.158  18.627  0.00  0.00    +0.000 A 
ATOM     19  C   UNL     1       9.243  11.851  19.122  0.00  0.00    +0.000 A 
ATOM     20  C   UNL     1      10.271  11.159  19.745  0.00  0.00    +0.000 A 
ATOM     21  C   UNL     1      11.518  11.749  19.809  0.00  0.00    +0.000 A 
ATOM     22  C   UNL     1      11.711  13.007  19.250  0.00  0.00    +0.000 A 
ATOM     23  N   UNL     1      10.693  13.727  18.714  0.00  0.00    +0.000 N 
BRANCH  23  24
ATOM     24  C   UNL     1      11.001  15.117  18.226  0.00  0.00    +0.000 C 
BRANCH  24  25
ATOM     25  C   UNL     1      11.849  15.162  16.940  0.00  0.00    +0.000 C 
BRANCH  25  26
ATOM     26  O   UNL     1      11.284  14.350  15.913  0.00  0.00    +0.000 OA
ATOM     27  H   UNL     1      11.679  13.458  15.985  0.00  0.00    +0.000 HD
ENDBRANCH  25  26
ENDBRANCH  24  25
ENDBRANCH  23  24
ENDBRANCH  17  18
BRANCH   1  29
ATOM     28  C   UNL     1       4.520  15.048  17.732  0.00  0.00    +0.000 C 
ATOM     29  C   UNL     1       5.798  15.724  18.196  0.00  0.00    +0.000 C 
ENDBRANCH   1  29
TORSDOF 5
ENDMDL
MODEL 7
REMARK VINA RESULT:      -5.7      7.593     11.253
REMARK  Name = 
REMARK  7 active torsions:
REMARK  status: ('A' for Active; 'I' for Inactive)
REMARK    1  A    between atoms: C_1  and  C_2
REMARK    2  A    between atoms: C_2  and  N_3
REMARK    3  A    between atoms: N_15  and  C_16
REMARK    4  A    between atoms: C_19  and  C_20
REMARK    5  A    between atoms: N_25  and  C_26
REMARK    6  A    between atoms: C_26  and  C_27
REMARK    7  A    between atoms: C_27  and  O_28
REMARK                            x       y       z     vdW  Elec       q    Type
REMARK                         _______ _______ _______ _____ _____    ______ ____
ROOT
ATOM      1  N   UNL     1      -0.773  11.636  22.381  0.00  0.00    +0.000 N 
ATOM      2  C   UNL     1       0.372  12.113  21.678  0.00  0.00    +0.000 A 
ATOM      3  O   UNL     1       1.413  11.504  21.468  0.00  0.00    +0.000 OA
ATOM      4  C   UNL     1       0.080  13.518  21.181  0.00  0.00    +0.000 A 
ATOM      5  C   UNL     1       0.619  14.329  20.233  0.00  0.00    +0.000 C 
ATOM      6  S   UNL     1       2.166  13.915  19.426  0.00  0.00    +0.000 S 
ATOM      7  C   UNL     1       2.096  15.459  18.507  0.00  0.00    +0.000 A 
ATOM      8  C   UNL     1       3.045  15.948  17.614  0.00  0.00    +0.000 A 
ATOM      9  C   UNL     1       2.789  17.149  16.940  0.00  0.00    +0.000 A 
ATOM     10  C   UNL     1       1.600  17.841  17.156  0.00  0.00    +0.000 A 
ATOM     11  C   UNL     1       0.663  17.358  18.074  0.00  0.00    +0.000 A 
ATOM     12  C   UNL     1       0.912  16.167  18.775  0.00  0.00    +0.000 A 
ATOM     13  N   UNL     1       0.093  15.578  19.758  0.00  0.00    +0.000 N 
ATOM     14  C   UNL     1      -1.240  16.123  19.957  0.00  0.00    +0.000 C 
ATOM     15  S   UNL     1      -1.239  14.104  22.137  0.00  0.00    +0.000 S 
ATOM     16  C   UNL     1      -1.804  12.528  22.477  0.00  0.00    +0.000 A 
ATOM     17  C   UNL     1      -3.097  12.294  22.773  0.00  0.00    +0.000 C 
ENDROOT
BRANCH  17  18
ATOM     18  C   UNL     1      -4.066  13.388  22.603  0.00  0.00    +0.000 A 
ATOM     19  C   UNL     1      -4.465  14.064  23.778  0.00  0.00    +0.000 A 
ATOM     20  C   UNL     1      -5.613  14.843  23.796  0.00  0.00    +0.000 A 
ATOM     21  C   UNL     1      -6.320  15.001  22.620  0.00  0.00    +0.000 A 
ATOM     22  C   UNL     1      -5.867  14.383  21.460  0.00  0.00    +0.000 A 
ATOM     23  N   UNL     1      -4.795  13.551  21.450  0.00  0.00    +0.000 N 
BRANCH  23  24
ATOM     24  C   UNL     1      -4.454  12.863  20.156  0.00  0.00    +0.000 C 
BRANCH  24  25
ATOM     25  C   UNL     1      -5.677  12.513  19.285  0.00  0.00    +0.000 C 
BRANCH  25  26
ATOM     26  O   UNL     1      -5.665  13.236  18.056  0.00  0.00    +0.000 OA
ATOM     27  H   UNL     1      -6.317  12.820  17.457  0.00  0.00    +0.000 HD
ENDBRANCH  25  26
ENDBRANCH  24  25
ENDBRANCH  23  24
ENDBRANCH  17  18
BRANCH   1  29
ATOM     28  C   UNL     1      -0.500   9.154  22.200  0.00  0.00    +0.000 C 
ATOM     29  C   UNL     1      -0.810  10.349  23.084  0.00  0.00    +0.000 C 
ENDBRANCH   1  29
TORSDOF 5
ENDMDL
MODEL 8
REMARK VINA RESULT:      -5.6      6.614     11.853
REMARK  Name = 
REMARK  7 active torsions:
REMARK  status: ('A' for Active; 'I' for Inactive)
REMARK    1  A    between atoms: C_1  and  C_2
REMARK    2  A    between atoms: C_2  and  N_3
REMARK    3  A    between atoms: N_15  and  C_16
REMARK    4  A    between atoms: C_19  and  C_20
REMARK    5  A    between atoms: N_25  and  C_26
REMARK    6  A    between atoms: C_26  and  C_27
REMARK    7  A    between atoms: C_27  and  O_28
REMARK                            x       y       z     vdW  Elec       q    Type
REMARK                         _______ _______ _______ _____ _____    ______ ____
ROOT
ATOM      1  N   UNL     1      -5.108  13.454  22.667  0.00  0.00    +0.000 N 
ATOM      2  C   UNL     1      -3.876  12.771  22.891  0.00  0.00    +0.000 A 
ATOM      3  O   UNL     1      -3.455  12.344  23.958  0.00  0.00    +0.000 OA
ATOM      4  C   UNL     1      -3.165  12.615  21.558  0.00  0.00    +0.000 A 
ATOM      5  C   UNL     1      -2.166  11.819  21.094  0.00  0.00    +0.000 C 
ATOM      6  S   UNL     1      -1.189  10.809  22.209  0.00  0.00    +0.000 S 
ATOM      7  C   UNL     1      -0.189  10.251  20.822  0.00  0.00    +0.000 A 
ATOM      8  C   UNL     1       0.915   9.404  20.870  0.00  0.00    +0.000 A 
ATOM      9  C   UNL     1       1.535   9.029  19.672  0.00  0.00    +0.000 A 
ATOM     10  C   UNL     1       1.053   9.492  18.450  0.00  0.00    +0.000 A 
ATOM     11  C   UNL     1      -0.039  10.363  18.412  0.00  0.00    +0.000 A 
ATOM     12  C   UNL     1      -0.661  10.768  19.603  0.00  0.00    +0.000 A 
ATOM     13  N   UNL     1      -1.735  11.670  19.732  0.00  0.00    +0.000 N 
ATOM     14  C   UNL     1      -2.420  12.099  18.524  0.00  0.00    +0.000 C 
ATOM     15  S   UNL     1      -3.867  13.787  20.495  0.00  0.00    +0.000 S 
ATOM     16  C   UNL     1      -5.333  13.829  21.372  0.00  0.00    +0.000 A 
ATOM     17  C   UNL     1      -6.494  14.181  20.785  0.00  0.00    +0.000 C 
ENDROOT
BRANCH  17  18
ATOM     18  C   UNL     1      -6.522  14.335  19.322  0.00  0.00    +0.000 A 
ATOM     19  C   UNL     1      -6.384  15.651  18.825  0.00  0.00    +0.000 A 
ATOM     20  C   UNL     1      -6.753  15.962  17.525  0.00  0.00    +0.000 A 
ATOM     21  C   UNL     1      -7.193  14.943  16.703  0.00  0.00    +0.000 A 
ATOM     22  C   UNL     1      -7.252  13.644  17.194  0.00  0.00    +0.000 A 
ATOM     23  N   UNL     1      -6.975  13.342  18.488  0.00  0.00    +0.000 N 
BRANCH  23  24
ATOM     24  C   UNL     1      -7.165  11.917  18.931  0.00  0.00    +0.000 C 
BRANCH  24  25
ATOM     25  C   UNL     1      -5.936  11.015  18.706  0.00  0.00    +0.000 C 
BRANCH  25  26
ATOM     26  O   UNL     1      -5.588  10.944  17.325  0.00  0.00    +0.000 OA
ATOM     27  H   UNL     1      -6.390  11.147  16.803  0.00  0.00    +0.000 HD
ENDBRANCH  25  26
ENDBRANCH  24  25
ENDBRANCH  23  24
ENDBRANCH  17  18
BRANCH   1  29
ATOM     28  C   UNL     1      -6.978  12.781  24.190  0.00  0.00    +0.000 C 
ATOM     29  C   UNL     1      -6.010  13.865  23.748  0.00  0.00    +0.000 C 
ENDBRANCH   1  29
TORSDOF 5
ENDMDL
MODEL 9
REMARK VINA RESULT:      -5.6      7.167     10.055
REMARK  Name = 
REMARK  7 active torsions:
REMARK  status: ('A' for Active; 'I' for Inactive)
REMARK    1  A    between atoms: C_1  and  C_2
REMARK    2  A    between atoms: C_2  and  N_3
REMARK    3  A    between atoms: N_15  and  C_16
REMARK    4  A    between atoms: C_19  and  C_20
REMARK    5  A    between atoms: N_25  and  C_26
REMARK    6  A    between atoms: C_26  and  C_27
REMARK    7  A    between atoms: C_27  and  O_28
REMARK                            x       y       z     vdW  Elec       q    Type
REMARK                         _______ _______ _______ _____ _____    ______ ____
ROOT
ATOM      1  N   UNL     1      -1.449  15.045  20.577  0.00  0.00    +0.000 N 
ATOM      2  C   UNL     1      -0.358  15.948  20.404  0.00  0.00    +0.000 A 
ATOM      3  O   UNL     1      -0.257  17.076  20.867  0.00  0.00    +0.000 OA
ATOM      4  C   UNL     1       0.705  15.260  19.566  0.00  0.00    +0.000 A 
ATOM      5  C   UNL     1       2.030  15.468  19.343  0.00  0.00    +0.000 C 
ATOM      6  S   UNL     1       2.841  16.967  19.899  0.00  0.00    +0.000 S 
ATOM      7  C   UNL     1       4.378  16.411  19.147  0.00  0.00    +0.000 A 
ATOM      8  C   UNL     1       5.586  17.100  19.097  0.00  0.00    +0.000 A 
ATOM      9  C   UNL     1       6.699  16.478  18.519  0.00  0.00    +0.000 A 
ATOM     10  C   UNL     1       6.602  15.186  18.007  0.00  0.00    +0.000 A 
ATOM     11  C   UNL     1       5.379  14.511  18.037  0.00  0.00    +0.000 A 
ATOM     12  C   UNL     1       4.246  15.126  18.592  0.00  0.00    +0.000 A 
ATOM     13  N   UNL     1       2.942  14.597  18.656  0.00  0.00    +0.000 N 
ATOM     14  C   UNL     1       2.749  13.202  18.294  0.00  0.00    +0.000 C 
ATOM     15  S   UNL     1      -0.089  13.955  18.752  0.00  0.00    +0.000 S 
ATOM     16  C   UNL     1      -1.309  13.842  19.944  0.00  0.00    +0.000 A 
ATOM     17  C   UNL     1      -1.972  12.690  20.164  0.00  0.00    +0.000 C 
ENDROOT
BRANCH  17  18
ATOM     18  C   UNL     1      -1.494  11.466  19.501  0.00  0.00    +0.000 A 
ATOM     19  C   UNL     1      -0.262  10.944  19.957  0.00  0.00    +0.000 A 
ATOM     20  C   UNL     1       0.452  10.036  19.189  0.00  0.00    +0.000 A 
ATOM     21  C   UNL     1      -0.100   9.600  18.001  0.00  0.00    +0.000 A 
ATOM     22  C   UNL     1      -1.346  10.075  17.609  0.00  0.00    +0.000 A 
ATOM     23  N   UNL     1      -2.015  11.026  18.309  0.00  0.00    +0.000 N 
BRANCH  23  24
ATOM     24  C   UNL     1      -3.311  11.533  17.739  0.00  0.00    +0.000 C 
BRANCH  24  25
ATOM     25  C   UNL     1      -3.733  10.852  16.423  0.00  0.00    +0.000 C 
BRANCH  25  26
ATOM     26  O   UNL     1      -3.320  11.609  15.287  0.00  0.00    +0.000 OA
ATOM     27  H   UNL     1      -2.912  10.992  14.648  0.00  0.00    +0.000 HD
ENDBRANCH  25  26
ENDBRANCH  24  25
ENDBRANCH  23  24
ENDBRANCH  17  18
BRANCH   1  29
ATOM     28  C   UNL     1      -2.638  15.295  22.766  0.00  0.00    +0.000 C 
ATOM     29  C   UNL     1      -2.698  15.410  21.253  0.00  0.00    +0.000 C 
ENDBRANCH   1  29
TORSDOF 5
ENDMDL
