MODEL 1
REMARK VINA RESULT:      -8.3      0.000      0.000
REMARK  Name = 
REMARK  3 active torsions:
REMARK  status: ('A' for Active; 'I' for Inactive)
REMARK    1  A    between atoms: C_1  and  N_2
REMARK    2  A    between atoms: C_7  and  C_8
REMARK    3  A    between atoms: C_14  and  C_15
REMARK                            x       y       z     vdW  Elec       q    Type
REMARK                         _______ _______ _______ _____ _____    ______ ____
ROOT
ATOM      1  C   UNL     1       0.809   9.006  19.726  0.00  0.00    +0.000 A 
ATOM      2  N   UNL     1       0.513   8.075  20.643  0.00  0.00    +0.000 NA
ATOM      3  N   UNL     1       1.721   7.681  20.863  0.00  0.00    +0.000 N 
ATOM      4  C   UNL     1       2.353   7.302  19.725  0.00  0.00    +0.000 A 
ATOM      5  C   UNL     1       3.050   6.059  19.733  0.00  0.00    +0.000 A 
ATOM      6  N   UNL     1       3.865   5.590  18.790  0.00  0.00    +0.000 NA
ATOM      7  C   UNL     1       4.136   6.400  17.798  0.00  0.00    +0.000 A 
ATOM      8  C   UNL     1       3.405   7.765  17.868  0.00  0.00    +0.000 A 
ATOM      9  C   UNL     1       2.175   8.381  18.737  0.00  0.00    +0.000 A 
ATOM     10  H   UNL     1       1.992   7.560  21.823  0.00  0.00    +0.000 HD
ENDROOT
BRANCH   1  17
ATOM     11  C   UNL     1      -3.871  11.180  16.432  0.00  0.00    +0.000 C 
ATOM     12  N   UNL     1      -3.377  11.892  17.612  0.00  0.00    +0.000 N 
ATOM     13  C   UNL     1      -2.371  11.482  18.580  0.00  0.00    +0.000 A 
ATOM     14  C   UNL     1      -2.208  12.448  19.574  0.00  0.00    +0.000 A 
ATOM     15  C   UNL     1      -1.198  12.287  20.534  0.00  0.00    +0.000 A 
ATOM     16  C   UNL     1      -0.324  11.178  20.583  0.00  0.00    +0.000 A 
ATOM     17  C   UNL     1      -0.451  10.157  19.691  0.00  0.00    +0.000 A 
ATOM     18  N   UNL     1      -1.499  10.327  18.637  0.00  0.00    +0.000 NA
ATOM     19  H   UNL     1      -4.004  12.654  17.908  0.00  0.00    +0.000 HD
ENDBRANCH   1  17
BRANCH   7  20
ATOM     20  C   UNL     1       5.129   5.668  16.766  0.00  0.00    +0.000 A 
ATOM     21  C   UNL     1       4.758   4.549  15.927  0.00  0.00    +0.000 A 
ATOM     22  C   UNL     1       5.626   3.958  14.954  0.00  0.00    +0.000 A 
ATOM     23  C   UNL     1       6.889   4.482  14.784  0.00  0.00    +0.000 A 
ATOM     24  N   UNL     1       7.295   5.546  15.502  0.00  0.00    +0.000 NA
ATOM     25  C   UNL     1       6.417   6.089  16.435  0.00  0.00    +0.000 A 
ENDBRANCH   7  20
TORSDOF 2
ENDMDL
MODEL 2
REMARK VINA RESULT:      -8.2      2.152      3.461
REMARK  Name = 
REMARK  3 active torsions:
REMARK  status: ('A' for Active; 'I' for Inactive)
REMARK    1  A    between atoms: C_1  and  N_2
REMARK    2  A    between atoms: C_7  and  C_8
REMARK    3  A    between atoms: C_14  and  C_15
REMARK                            x       y       z     vdW  Elec       q    Type
REMARK                         _______ _______ _______ _____ _____    ______ ____
ROOT
ATOM      1  C   UNL     1       2.688   7.437  18.736  0.00  0.00    +0.000 A 
ATOM      2  N   UNL     1       2.300   6.312  19.351  0.00  0.00    +0.000 NA
ATOM      3  N   UNL     1       3.427   5.692  19.273  0.00  0.00    +0.000 N 
ATOM      4  C   UNL     1       3.887   5.619  17.999  0.00  0.00    +0.000 A 
ATOM      5  C   UNL     1       4.342   4.353  17.528  0.00  0.00    +0.000 A 
ATOM      6  N   UNL     1       4.980   4.104  16.385  0.00  0.00    +0.000 NA
ATOM      7  C   UNL     1       5.315   5.145  15.666  0.00  0.00    +0.000 A 
ATOM      8  C   UNL     1       4.855   6.504  16.254  0.00  0.00    +0.000 A 
ATOM      9  C   UNL     1       3.832   6.976  17.428  0.00  0.00    +0.000 A 
ATOM     10  H   UNL     1       3.747   5.224  20.102  0.00  0.00    +0.000 HD
ENDROOT
BRANCH   1  17
ATOM     11  C   UNL     1      -0.394   9.817  23.460  0.00  0.00    +0.000 C 
ATOM     12  N   UNL     1      -0.619  10.287  22.092  0.00  0.00    +0.000 N 
ATOM     13  C   UNL     1       0.089   9.937  20.871  0.00  0.00    +0.000 A 
ATOM     14  C   UNL     1      -0.429  10.628  19.774  0.00  0.00    +0.000 A 
ATOM     15  C   UNL     1       0.048  10.338  18.487  0.00  0.00    +0.000 A 
ATOM     16  C   UNL     1       1.055   9.386  18.214  0.00  0.00    +0.000 A 
ATOM     17  C   UNL     1       1.662   8.709  19.229  0.00  0.00    +0.000 A 
ATOM     18  N   UNL     1       1.143   8.980  20.605  0.00  0.00    +0.000 NA
ATOM     19  H   UNL     1      -1.185  11.147  22.055  0.00  0.00    +0.000 HD
ENDBRANCH   1  17
BRANCH   7  20
ATOM     20  C   UNL     1       6.072   4.654  14.335  0.00  0.00    +0.000 A 
ATOM     21  C   UNL     1       5.557   3.658  13.421  0.00  0.00    +0.000 A 
ATOM     22  C   UNL     1       6.200   3.286  12.198  0.00  0.00    +0.000 A 
ATOM     23  C   UNL     1       7.375   3.916  11.846  0.00  0.00    +0.000 A 
ATOM     24  N   UNL     1       7.899   4.879  12.627  0.00  0.00    +0.000 NA
ATOM     25  C   UNL     1       7.237   5.208  13.807  0.00  0.00    +0.000 A 
ENDBRANCH   7  20
TORSDOF 2
ENDMDL
MODEL 3
REMARK VINA RESULT:      -8.2      1.509      2.144
REMARK  Name = 
REMARK  3 active torsions:
REMARK  status: ('A' for Active; 'I' for Inactive)
REMARK    1  A    between atoms: C_1  and  N_2
REMARK    2  A    between atoms: C_7  and  C_8
REMARK    3  A    between atoms: C_14  and  C_15
REMARK                            x       y       z     vdW  Elec       q    Type
REMARK                         _______ _______ _______ _____ _____    ______ ____
ROOT
ATOM      1  C   UNL     1       1.827   7.404  20.339  0.00  0.00    +0.000 A 
ATOM      2  N   UNL     1       1.395   6.230  20.818  0.00  0.00    +0.000 NA
ATOM      3  N   UNL     1       2.529   5.618  20.784  0.00  0.00    +0.000 N 
ATOM      4  C   UNL     1       3.097   5.655  19.554  0.00  0.00    +0.000 A 
ATOM      5  C   UNL     1       3.598   4.434  19.015  0.00  0.00    +0.000 A 
ATOM      6  N   UNL     1       4.333   4.285  17.914  0.00  0.00    +0.000 NA
ATOM      7  C   UNL     1       4.723   5.384  17.320  0.00  0.00    +0.000 A 
ATOM      8  C   UNL     1       4.206   6.688  17.981  0.00  0.00    +0.000 A 
ATOM      9  C   UNL     1       3.083   7.057  19.099  0.00  0.00    +0.000 A 
ATOM     10  H   UNL     1       2.779   5.080  21.595  0.00  0.00    +0.000 HD
ENDROOT
BRANCH   1  17
ATOM     11  C   UNL     1      -1.492  12.210  18.507  0.00  0.00    +0.000 C 
ATOM     12  N   UNL     1      -1.276  11.934  19.928  0.00  0.00    +0.000 N 
ATOM     13  C   UNL     1      -0.628  10.793  20.555  0.00  0.00    +0.000 A 
ATOM     14  C   UNL     1      -0.649  10.906  21.946  0.00  0.00    +0.000 A 
ATOM     15  C   UNL     1       0.031   9.958  22.726  0.00  0.00    +0.000 A 
ATOM     16  C   UNL     1       0.735   8.855  22.193  0.00  0.00    +0.000 A 
ATOM     17  C   UNL     1       0.755   8.630  20.850  0.00  0.00    +0.000 A 
ATOM     18  N   UNL     1       0.067   9.650  19.999  0.00  0.00    +0.000 NA
ATOM     19  H   UNL     1      -1.876  12.505  20.539  0.00  0.00    +0.000 HD
ENDBRANCH   1  17
BRANCH   7  20
ATOM     20  C   UNL     1       5.594   5.009  16.021  0.00  0.00    +0.000 A 
ATOM     21  C   UNL     1       5.093   4.264  14.887  0.00  0.00    +0.000 A 
ATOM     22  C   UNL     1       5.853   4.006  13.702  0.00  0.00    +0.000 A 
ATOM     23  C   UNL     1       7.137   4.501  13.614  0.00  0.00    +0.000 A 
ATOM     24  N   UNL     1       7.661   5.234  14.613  0.00  0.00    +0.000 NA
ATOM     25  C   UNL     1       6.884   5.461  15.746  0.00  0.00    +0.000 A 
ENDBRANCH   7  20
TORSDOF 2
ENDMDL
MODEL 4
REMARK VINA RESULT:      -8.0      2.405      9.399
REMARK  Name = 
REMARK  3 active torsions:
REMARK  status: ('A' for Active; 'I' for Inactive)
REMARK    1  A    between atoms: C_1  and  N_2
REMARK    2  A    between atoms: C_7  and  C_8
REMARK    3  A    between atoms: C_14  and  C_15
REMARK                            x       y       z     vdW  Elec       q    Type
REMARK                         _______ _______ _______ _____ _____    ______ ____
ROOT
ATOM      1  C   UNL     1       2.295   7.930  18.622  0.00  0.00    +0.000 A 
ATOM      2  N   UNL     1       2.252   8.557  17.439  0.00  0.00    +0.000 NA
ATOM      3  N   UNL     1       2.272   9.762  17.898  0.00  0.00    +0.000 N 
ATOM      4  C   UNL     1       1.281   9.986  18.796  0.00  0.00    +0.000 A 
ATOM      5  C   UNL     1       0.496  11.165  18.641  0.00  0.00    +0.000 A 
ATOM      6  N   UNL     1      -0.400  11.652  19.498  0.00  0.00    +0.000 NA
ATOM      7  C   UNL     1      -0.497  11.039  20.650  0.00  0.00    +0.000 A 
ATOM      8  C   UNL     1       0.424   9.801  20.796  0.00  0.00    +0.000 A 
ATOM      9  C   UNL     1       1.322   8.895  19.786  0.00  0.00    +0.000 A 
ATOM     10  H   UNL     1       2.894  10.410  17.448  0.00  0.00    +0.000 HD
ENDROOT
BRANCH   1  17
ATOM     11  C   UNL     1       7.403   4.718  17.583  0.00  0.00    +0.000 C 
ATOM     12  N   UNL     1       6.081   4.103  17.459  0.00  0.00    +0.000 N 
ATOM     13  C   UNL     1       4.774   4.659  17.777  0.00  0.00    +0.000 A 
ATOM     14  C   UNL     1       3.761   3.730  17.532  0.00  0.00    +0.000 A 
ATOM     15  C   UNL     1       2.420   4.119  17.668  0.00  0.00    +0.000 A 
ATOM     16  C   UNL     1       2.009   5.411  18.065  0.00  0.00    +0.000 A 
ATOM     17  C   UNL     1       2.929   6.363  18.385  0.00  0.00    +0.000 A 
ATOM     18  N   UNL     1       4.364   5.978  18.213  0.00  0.00    +0.000 NA
ATOM     19  H   UNL     1       6.126   3.078  17.370  0.00  0.00    +0.000 HD
ENDBRANCH   1  17
BRANCH   7  20
ATOM     20  C   UNL     1      -1.619  11.762  21.547  0.00  0.00    +0.000 A 
ATOM     21  C   UNL     1      -2.640  12.645  21.027  0.00  0.00    +0.000 A 
ATOM     22  C   UNL     1      -3.682  13.219  21.822  0.00  0.00    +0.000 A 
ATOM     23  C   UNL     1      -3.739  12.913  23.165  0.00  0.00    +0.000 A 
ATOM     24  N   UNL     1      -2.845  12.070  23.717  0.00  0.00    +0.000 NA
ATOM     25  C   UNL     1      -1.851  11.535  22.903  0.00  0.00    +0.000 A 
ENDBRANCH   7  20
TORSDOF 2
ENDMDL
MODEL 5
REMARK VINA RESULT:      -7.9      2.459      8.942
REMARK  Name = 
REMARK  3 active torsions:
REMARK  status: ('A' for Active; 'I' for Inactive)
REMARK    1  A    between atoms: C_1  and  N_2
REMARK    2  A    between atoms: C_7  and  C_8
REMARK    3  A    between atoms: C_14  and  C_15
REMARK                            x       y       z     vdW  Elec       q    Type
REMARK                         _______ _______ _______ _____ _____    ______ ____
ROOT
ATOM      1  C   UNL     1       3.949   5.603  17.550  0.00  0.00    +0.000 A 
ATOM      2  N   UNL     1       4.013   4.587  18.422  0.00  0.00    +0.000 NA
ATOM      3  N   UNL     1       2.799   4.668  18.848  0.00  0.00    +0.000 N 
ATOM      4  C   UNL     1       2.496   5.907  19.307  0.00  0.00    +0.000 A 
ATOM      5  C   UNL     1       1.849   6.009  20.573  0.00  0.00    +0.000 A 
ATOM      6  N   UNL     1       1.320   7.103  21.118  0.00  0.00    +0.000 NA
ATOM      7  C   UNL     1       1.302   8.177  20.370  0.00  0.00    +0.000 A 
ATOM      8  C   UNL     1       1.960   7.998  18.978  0.00  0.00    +0.000 A 
ATOM      9  C   UNL     1       2.905   6.876  18.274  0.00  0.00    +0.000 A 
ATOM     10  H   UNL     1       2.288   3.807  18.929  0.00  0.00    +0.000 HD
ENDROOT
BRANCH   1  17
ATOM     11  C   UNL     1       5.187   2.997  12.151  0.00  0.00    +0.000 C 
ATOM     12  N   UNL     1       6.250   3.561  12.984  0.00  0.00    +0.000 N 
ATOM     13  C   UNL     1       6.146   4.317  14.222  0.00  0.00    +0.000 A 
ATOM     14  C   UNL     1       7.407   4.692  14.689  0.00  0.00    +0.000 A 
ATOM     15  C   UNL     1       7.521   5.329  15.934  0.00  0.00    +0.000 A 
ATOM     16  C   UNL     1       6.421   5.647  16.762  0.00  0.00    +0.000 A 
ATOM     17  C   UNL     1       5.149   5.376  16.358  0.00  0.00    +0.000 A 
ATOM     18  N   UNL     1       5.009   4.664  15.050  0.00  0.00    +0.000 NA
ATOM     19  H   UNL     1       7.150   3.631  12.487  0.00  0.00    +0.000 HD
ENDBRANCH   1  17
BRANCH   7  20
ATOM     20  C   UNL     1       0.631   9.387  21.189  0.00  0.00    +0.000 A 
ATOM     21  C   UNL     1       0.103  10.591  20.585  0.00  0.00    +0.000 A 
ATOM     22  C   UNL     1      -0.564  11.626  21.315  0.00  0.00    +0.000 A 
ATOM     23  C   UNL     1      -0.734  11.477  22.674  0.00  0.00    +0.000 A 
ATOM     24  N   UNL     1      -0.303  10.368  23.304  0.00  0.00    +0.000 NA
ATOM     25  C   UNL     1       0.339   9.387  22.553  0.00  0.00    +0.000 A 
ENDBRANCH   7  20
TORSDOF 2
ENDMDL
MODEL 6
REMARK VINA RESULT:      -7.9      2.103      3.056
REMARK  Name = 
REMARK  3 active torsions:
REMARK  status: ('A' for Active; 'I' for Inactive)
REMARK    1  A    between atoms: C_1  and  N_2
REMARK    2  A    between atoms: C_7  and  C_8
REMARK    3  A    between atoms: C_14  and  C_15
REMARK                            x       y       z     vdW  Elec       q    Type
REMARK                         _______ _______ _______ _____ _____    ______ ____
ROOT
ATOM      1  C   UNL     1       2.624   7.042  19.404  0.00  0.00    +0.000 A 
ATOM      2  N   UNL     1       2.368   5.875  20.010  0.00  0.00    +0.000 NA
ATOM      3  N   UNL     1       3.534   5.351  19.843  0.00  0.00    +0.000 N 
ATOM      4  C   UNL     1       3.913   5.345  18.541  0.00  0.00    +0.000 A 
ATOM      5  C   UNL     1       4.435   4.131  18.006  0.00  0.00    +0.000 A 
ATOM      6  N   UNL     1       5.014   3.961  16.819  0.00  0.00    +0.000 NA
ATOM      7  C   UNL     1       5.218   5.043  16.110  0.00  0.00    +0.000 A 
ATOM      8  C   UNL     1       4.691   6.346  16.763  0.00  0.00    +0.000 A 
ATOM      9  C   UNL     1       3.713   6.706  18.013  0.00  0.00    +0.000 A 
ATOM     10  H   UNL     1       3.944   4.892  20.637  0.00  0.00    +0.000 HD
ENDROOT
BRANCH   1  17
ATOM     11  C   UNL     1       0.388  12.672  18.522  0.00  0.00    +0.000 C 
ATOM     12  N   UNL     1       0.130  11.939  19.761  0.00  0.00    +0.000 N 
ATOM     13  C   UNL     1       0.468  10.566  20.105  0.00  0.00    +0.000 A 
ATOM     14  C   UNL     1       0.022  10.246  21.388  0.00  0.00    +0.000 A 
ATOM     15  C   UNL     1       0.355   9.002  21.945  0.00  0.00    +0.000 A 
ATOM     16  C   UNL     1       1.111   8.014  21.276  0.00  0.00    +0.000 A 
ATOM     17  C   UNL     1       1.534   8.215  19.997  0.00  0.00    +0.000 A 
ATOM     18  N   UNL     1       1.220   9.550  19.399  0.00  0.00    +0.000 NA
ATOM     19  H   UNL     1      -0.590  12.387  20.346  0.00  0.00    +0.000 HD
ENDBRANCH   1  17
BRANCH   7  20
ATOM     20  C   UNL     1       5.922   4.645  14.719  0.00  0.00    +0.000 A 
ATOM     21  C   UNL     1       5.338   3.768  13.728  0.00  0.00    +0.000 A 
ATOM     22  C   UNL     1       5.937   3.485  12.459  0.00  0.00    +0.000 A 
ATOM     23  C   UNL     1       7.136   4.086  12.141  0.00  0.00    +0.000 A 
ATOM     24  N   UNL     1       7.724   4.943  12.997  0.00  0.00    +0.000 NA
ATOM     25  C   UNL     1       7.103   5.189  14.218  0.00  0.00    +0.000 A 
ENDBRANCH   7  20
TORSDOF 2
ENDMDL
MODEL 7
REMARK VINA RESULT:      -7.9      1.534      2.311
REMARK  Name = 
REMARK  3 active torsions:
REMARK  status: ('A' for Active; 'I' for Inactive)
REMARK    1  A    between atoms: C_1  and  N_2
REMARK    2  A    between atoms: C_7  and  C_8
REMARK    3  A    between atoms: C_14  and  C_15
REMARK                            x       y       z     vdW  Elec       q    Type
REMARK                         _______ _______ _______ _____ _____    ______ ____
ROOT
ATOM      1  C   UNL     1       0.801   9.321  19.855  0.00  0.00    +0.000 A 
ATOM      2  N   UNL     1       0.499   8.465  20.841  0.00  0.00    +0.000 NA
ATOM      3  N   UNL     1       1.680   7.971  20.988  0.00  0.00    +0.000 N 
ATOM      4  C   UNL     1       2.182   7.483  19.827  0.00  0.00    +0.000 A 
ATOM      5  C   UNL     1       2.763   6.182  19.848  0.00  0.00    +0.000 A 
ATOM      6  N   UNL     1       3.455   5.596  18.871  0.00  0.00    +0.000 NA
ATOM      7  C   UNL     1       3.715   6.331  17.820  0.00  0.00    +0.000 A 
ATOM      8  C   UNL     1       3.116   7.759  17.873  0.00  0.00    +0.000 A 
ATOM      9  C   UNL     1       2.020   8.527  18.799  0.00  0.00    +0.000 A 
ATOM     10  H   UNL     1       2.016   7.870  21.929  0.00  0.00    +0.000 HD
ENDROOT
BRANCH   1  17
ATOM     11  C   UNL     1      -2.073  13.455  23.338  0.00  0.00    +0.000 C 
ATOM     12  N   UNL     1      -2.519  13.170  21.973  0.00  0.00    +0.000 N 
ATOM     13  C   UNL     1      -1.904  12.323  20.963  0.00  0.00    +0.000 A 
ATOM     14  C   UNL     1      -2.643  12.339  19.778  0.00  0.00    +0.000 A 
ATOM     15  C   UNL     1      -2.273  11.492  18.723  0.00  0.00    +0.000 A 
ATOM     16  C   UNL     1      -1.165  10.617  18.763  0.00  0.00    +0.000 A 
ATOM     17  C   UNL     1      -0.351  10.581  19.855  0.00  0.00    +0.000 A 
ATOM     18  N   UNL     1      -0.749  11.450  21.005  0.00  0.00    +0.000 NA
ATOM     19  H   UNL     1      -3.213  13.850  21.632  0.00  0.00    +0.000 HD
ENDBRANCH   1  17
BRANCH   7  20
ATOM     20  C   UNL     1       4.552   5.463  16.756  0.00  0.00    +0.000 A 
ATOM     21  C   UNL     1       5.261   6.018  15.623  0.00  0.00    +0.000 A 
ATOM     22  C   UNL     1       6.068   5.246  14.729  0.00  0.00    +0.000 A 
ATOM     23  C   UNL     1       6.201   3.893  14.953  0.00  0.00    +0.000 A 
ATOM     24  N   UNL     1       5.602   3.308  16.007  0.00  0.00    +0.000 NA
ATOM     25  C   UNL     1       4.827   4.099  16.851  0.00  0.00    +0.000 A 
ENDBRANCH   7  20
TORSDOF 2
ENDMDL
MODEL 8
REMARK VINA RESULT:      -7.9      2.316      9.472
REMARK  Name = 
REMARK  3 active torsions:
REMARK  status: ('A' for Active; 'I' for Inactive)
REMARK    1  A    between atoms: C_1  and  N_2
REMARK    2  A    between atoms: C_7  and  C_8
REMARK    3  A    between atoms: C_14  and  C_15
REMARK                            x       y       z     vdW  Elec       q    Type
REMARK                         _______ _______ _______ _____ _____    ______ ____
ROOT
ATOM      1  C   UNL     1       2.265   7.718  19.262  0.00  0.00    +0.000 A 
ATOM      2  N   UNL     1       2.039   7.967  17.965  0.00  0.00    +0.000 NA
ATOM      3  N   UNL     1       1.947   9.249  18.064  0.00  0.00    +0.000 N 
ATOM      4  C   UNL     1       1.019   9.629  18.976  0.00  0.00    +0.000 A 
ATOM      5  C   UNL     1       0.081  10.631  18.592  0.00  0.00    +0.000 A 
ATOM      6  N   UNL     1      -0.790  11.259  19.381  0.00  0.00    +0.000 NA
ATOM      7  C   UNL     1      -0.707  11.002  20.662  0.00  0.00    +0.000 A 
ATOM      8  C   UNL     1       0.372   9.954  21.036  0.00  0.00    +0.000 A 
ATOM      9  C   UNL     1       1.285   8.883  20.219  0.00  0.00    +0.000 A 
ATOM     10  H   UNL     1       2.441   9.794  17.379  0.00  0.00    +0.000 HD
ENDROOT
BRANCH   1  17
ATOM     11  C   UNL     1       7.325   4.614  17.765  0.00  0.00    +0.000 C 
ATOM     12  N   UNL     1       6.155   3.935  18.325  0.00  0.00    +0.000 N 
ATOM     13  C   UNL     1       4.923   4.506  18.848  0.00  0.00    +0.000 A 
ATOM     14  C   UNL     1       4.064   3.507  19.309  0.00  0.00    +0.000 A 
ATOM     15  C   UNL     1       2.776   3.851  19.745  0.00  0.00    +0.000 A 
ATOM     16  C   UNL     1       2.278   5.173  19.771  0.00  0.00    +0.000 A 
ATOM     17  C   UNL     1       3.068   6.218  19.398  0.00  0.00    +0.000 A 
ATOM     18  N   UNL     1       4.433   5.868  18.897  0.00  0.00    +0.000 NA
ATOM     19  H   UNL     1       6.353   2.961  18.596  0.00  0.00    +0.000 HD
ENDBRANCH   1  17
BRANCH   7  20
ATOM     20  C   UNL     1      -1.828  11.845  21.449  0.00  0.00    +0.000 A 
ATOM     21  C   UNL     1      -2.031  11.798  22.881  0.00  0.00    +0.000 A 
ATOM     22  C   UNL     1      -2.977  12.612  23.581  0.00  0.00    +0.000 A 
ATOM     23  C   UNL     1      -3.740  13.510  22.865  0.00  0.00    +0.000 A 
ATOM     24  N   UNL     1      -3.584  13.638  21.534  0.00  0.00    +0.000 NA
ATOM     25  C   UNL     1      -2.650  12.826  20.896  0.00  0.00    +0.000 A 
ENDBRANCH   7  20
TORSDOF 2
ENDMDL
MODEL 9
REMARK VINA RESULT:      -7.8      2.682      8.651
REMARK  Name = 
REMARK  3 active torsions:
REMARK  status: ('A' for Active; 'I' for Inactive)
REMARK    1  A    between atoms: C_1  and  N_2
REMARK    2  A    between atoms: C_7  and  C_8
REMARK    3  A    between atoms: C_14  and  C_15
REMARK                            x       y       z     vdW  Elec       q    Type
REMARK                         _______ _______ _______ _____ _____    ______ ____
ROOT
ATOM      1  C   UNL     1       2.121   7.165  19.262  0.00  0.00    +0.000 A 
ATOM      2  N   UNL     1       2.020   7.066  20.595  0.00  0.00    +0.000 NA
ATOM      3  N   UNL     1       1.015   7.860  20.737  0.00  0.00    +0.000 N 
ATOM      4  C   UNL     1       1.239   9.078  20.184  0.00  0.00    +0.000 A 
ATOM      5  C   UNL     1       0.934  10.230  20.966  0.00  0.00    +0.000 A 
ATOM      6  N   UNL     1       0.920  11.497  20.556  0.00  0.00    +0.000 NA
ATOM      7  C   UNL     1       1.107  11.698  19.276  0.00  0.00    +0.000 A 
ATOM      8  C   UNL     1       1.371  10.408  18.458  0.00  0.00    +0.000 A 
ATOM      9  C   UNL     1       1.728   8.860  18.811  0.00  0.00    +0.000 A 
ATOM     10  H   UNL     1       0.275   7.553  21.343  0.00  0.00    +0.000 HD
ENDROOT
BRANCH   1  17
ATOM     11  C   UNL     1       7.550   4.756  17.780  0.00  0.00    +0.000 C 
ATOM     12  N   UNL     1       6.299   4.094  17.409  0.00  0.00    +0.000 N 
ATOM     13  C   UNL     1       4.932   4.441  17.768  0.00  0.00    +0.000 A 
ATOM     14  C   UNL     1       4.024   3.533  17.221  0.00  0.00    +0.000 A 
ATOM     15  C   UNL     1       2.647   3.766  17.360  0.00  0.00    +0.000 A 
ATOM     16  C   UNL     1       2.098   4.870  18.051  0.00  0.00    +0.000 A 
ATOM     17  C   UNL     1       2.909   5.771  18.670  0.00  0.00    +0.000 A 
ATOM     18  N   UNL     1       4.381   5.560  18.503  0.00  0.00    +0.000 NA
ATOM     19  H   UNL     1       6.444   3.136  17.059  0.00  0.00    +0.000 HD
ENDBRANCH   1  17
BRANCH   7  20
ATOM     20  C   UNL     1       1.056  13.276  18.970  0.00  0.00    +0.000 A 
ATOM     21  C   UNL     1      -0.144  14.082  19.025  0.00  0.00    +0.000 A 
ATOM     22  C   UNL     1      -0.164  15.500  18.829  0.00  0.00    +0.000 A 
ATOM     23  C   UNL     1       1.024  16.155  18.585  0.00  0.00    +0.000 A 
ATOM     24  N   UNL     1       2.188  15.478  18.554  0.00  0.00    +0.000 NA
ATOM     25  C   UNL     1       2.159  14.101  18.751  0.00  0.00    +0.000 A 
ENDBRANCH   7  20
TORSDOF 2
ENDMDL
