MODEL 1
REMARK VINA RESULT:      -7.1      0.000      0.000
REMARK  Name = 
REMARK  4 active torsions:
REMARK  status: ('A' for Active; 'I' for Inactive)
REMARK    1  A    between atoms: C_1  and  C_2
REMARK    2  A    between atoms: C_6  and  O_7
REMARK    3  A    between atoms: O_7  and  C_8
REMARK    4  A    between atoms: C_12  and  C_14
REMARK                            x       y       z     vdW  Elec       q    Type
REMARK                         _______ _______ _______ _____ _____    ______ ____
ROOT
ATOM      1  C   UNL     1       5.364   4.935  15.605  0.00  0.00    +0.000 C 
ATOM      2  C   UNL     1       5.036   3.499  16.019  0.00  0.00    +0.000 C 
ATOM      3  C   UNL     1       3.787   3.624  16.871  0.00  0.00    +0.000 C 
ATOM      4  N   UNL     1       3.928   4.916  17.515  0.00  0.00    +0.000 N 
ATOM      5  C   UNL     1       3.496   5.333  18.766  0.00  0.00    +0.000 C 
ATOM      6  O   UNL     1       3.825   6.433  19.211  0.00  0.00    +0.000 OA
ATOM      7  C   UNL     1       4.739   5.803  16.703  0.00  0.00    +0.000 C 
ENDROOT
BRANCH   5   8
ATOM      8  C   UNL     1       2.675   4.428  19.573  0.00  0.00    +0.000 A 
ATOM      9  C   UNL     1       1.261   4.184  19.505  0.00  0.00    +0.000 A 
ATOM     10  C   UNL     1       0.829   3.262  20.433  0.00  0.00    +0.000 A 
ATOM     11  S   UNL     1       2.100   2.713  21.429  0.00  0.00    +0.000 S 
ATOM     12  C   UNL     1       3.229   3.706  20.619  0.00  0.00    +0.000 A 
ENDBRANCH   5   8
BRANCH   1  13
ATOM     13  O   UNL     1       6.780   5.127  15.627  0.00  0.00    +0.000 OA
BRANCH  13  19
ATOM     14  C   UNL     1       8.127   9.094  17.918  0.00  0.00    +0.000 C 
ATOM     15  C   UNL     1       7.916   7.614  17.892  0.00  0.00    +0.000 A 
ATOM     16  N   UNL     1       8.157   6.919  19.020  0.00  0.00    +0.000 NA
ATOM     17  C   UNL     1       7.936   5.592  18.967  0.00  0.00    +0.000 A 
ATOM     18  C   UNL     1       7.489   4.947  17.842  0.00  0.00    +0.000 A 
ATOM     19  C   UNL     1       7.276   5.751  16.749  0.00  0.00    +0.000 A 
ATOM     20  N   UNL     1       7.495   7.075  16.736  0.00  0.00    +0.000 NA
ENDBRANCH  13  19
ENDBRANCH   1  13
TORSDOF 3
ENDMDL
MODEL 2
REMARK VINA RESULT:      -6.9      2.868      6.074
REMARK  Name = 
REMARK  4 active torsions:
REMARK  status: ('A' for Active; 'I' for Inactive)
REMARK    1  A    between atoms: C_1  and  C_2
REMARK    2  A    between atoms: C_6  and  O_7
REMARK    3  A    between atoms: O_7  and  C_8
REMARK    4  A    between atoms: C_12  and  C_14
REMARK                            x       y       z     vdW  Elec       q    Type
REMARK                         _______ _______ _______ _____ _____    ______ ____
ROOT
ATOM      1  C   UNL     1       1.608   4.338  17.573  0.00  0.00    +0.000 C 
ATOM      2  C   UNL     1       2.047   5.366  18.617  0.00  0.00    +0.000 C 
ATOM      3  C   UNL     1       3.307   5.983  18.038  0.00  0.00    +0.000 C 
ATOM      4  N   UNL     1       3.912   4.904  17.281  0.00  0.00    +0.000 N 
ATOM      5  C   UNL     1       5.251   4.632  17.044  0.00  0.00    +0.000 C 
ATOM      6  O   UNL     1       5.593   3.587  16.489  0.00  0.00    +0.000 OA
ATOM      7  C   UNL     1       2.899   3.967  16.834  0.00  0.00    +0.000 C 
ENDROOT
BRANCH   5   8
ATOM      8  C   UNL     1       6.263   5.589  17.498  0.00  0.00    +0.000 A 
ATOM      9  C   UNL     1       7.149   5.505  18.625  0.00  0.00    +0.000 A 
ATOM     10  C   UNL     1       7.970   6.604  18.748  0.00  0.00    +0.000 A 
ATOM     11  S   UNL     1       7.658   7.772  17.545  0.00  0.00    +0.000 S 
ATOM     12  C   UNL     1       6.427   6.808  16.858  0.00  0.00    +0.000 A 
ENDBRANCH   5   8
BRANCH   1  13
ATOM     13  O   UNL     1       1.112   3.170  18.232  0.00  0.00    +0.000 OA
BRANCH  13  19
ATOM     14  C   UNL     1       4.893   1.723  20.764  0.00  0.00    +0.000 C 
ATOM     15  C   UNL     1       3.480   2.207  20.697  0.00  0.00    +0.000 A 
ATOM     16  N   UNL     1       2.824   2.416  21.854  0.00  0.00    +0.000 NA
ATOM     17  C   UNL     1       1.562   2.872  21.755  0.00  0.00    +0.000 A 
ATOM     18  C   UNL     1       0.942   3.123  20.558  0.00  0.00    +0.000 A 
ATOM     19  C   UNL     1       1.702   2.877  19.440  0.00  0.00    +0.000 A 
ATOM     20  N   UNL     1       2.958   2.405  19.475  0.00  0.00    +0.000 NA
ENDBRANCH  13  19
ENDBRANCH   1  13
TORSDOF 3
ENDMDL
MODEL 3
REMARK VINA RESULT:      -6.9      3.054      3.811
REMARK  Name = 
REMARK  4 active torsions:
REMARK  status: ('A' for Active; 'I' for Inactive)
REMARK    1  A    between atoms: C_1  and  C_2
REMARK    2  A    between atoms: C_6  and  O_7
REMARK    3  A    between atoms: O_7  and  C_8
REMARK    4  A    between atoms: C_12  and  C_14
REMARK                            x       y       z     vdW  Elec       q    Type
REMARK                         _______ _______ _______ _____ _____    ______ ____
ROOT
ATOM      1  C   UNL     1       3.709   4.144  18.560  0.00  0.00    +0.000 C 
ATOM      2  C   UNL     1       3.167   4.277  19.984  0.00  0.00    +0.000 C 
ATOM      3  C   UNL     1       2.117   5.369  19.891  0.00  0.00    +0.000 C 
ATOM      4  N   UNL     1       2.615   6.249  18.851  0.00  0.00    +0.000 N 
ATOM      5  C   UNL     1       2.477   7.623  18.713  0.00  0.00    +0.000 C 
ATOM      6  O   UNL     1       3.086   8.231  17.833  0.00  0.00    +0.000 OA
ATOM      7  C   UNL     1       3.452   5.515  17.922  0.00  0.00    +0.000 C 
ENDROOT
BRANCH   5   8
ATOM      8  C   UNL     1       1.626   8.351  19.657  0.00  0.00    +0.000 A 
ATOM      9  C   UNL     1       1.321   8.043  21.026  0.00  0.00    +0.000 A 
ATOM     10  C   UNL     1       0.471   8.959  21.608  0.00  0.00    +0.000 A 
ATOM     11  S   UNL     1      -0.010  10.171  20.508  0.00  0.00    +0.000 S 
ATOM     12  C   UNL     1       0.919   9.474  19.256  0.00  0.00    +0.000 A 
ENDBRANCH   5   8
BRANCH   1  13
ATOM     13  O   UNL     1       5.121   3.924  18.604  0.00  0.00    +0.000 OA
BRANCH  13  19
ATOM     14  C   UNL     1       7.758   7.788  17.644  0.00  0.00    +0.000 C 
ATOM     15  C   UNL     1       7.143   6.493  17.218  0.00  0.00    +0.000 A 
ATOM     16  N   UNL     1       7.397   6.049  15.972  0.00  0.00    +0.000 NA
ATOM     17  C   UNL     1       6.844   4.871  15.630  0.00  0.00    +0.000 A 
ATOM     18  C   UNL     1       6.059   4.132  16.478  0.00  0.00    +0.000 A 
ATOM     19  C   UNL     1       5.865   4.676  17.724  0.00  0.00    +0.000 A 
ATOM     20  N   UNL     1       6.374   5.854  18.116  0.00  0.00    +0.000 NA
ENDBRANCH  13  19
ENDBRANCH   1  13
TORSDOF 3
ENDMDL
MODEL 4
REMARK VINA RESULT:      -6.8      5.074      6.780
REMARK  Name = 
REMARK  4 active torsions:
REMARK  status: ('A' for Active; 'I' for Inactive)
REMARK    1  A    between atoms: C_1  and  C_2
REMARK    2  A    between atoms: C_6  and  O_7
REMARK    3  A    between atoms: O_7  and  C_8
REMARK    4  A    between atoms: C_12  and  C_14
REMARK                            x       y       z     vdW  Elec       q    Type
REMARK                         _______ _______ _______ _____ _____    ______ ____
ROOT
ATOM      1  C   UNL     1       2.662   7.210  18.663  0.00  0.00    +0.000 C 
ATOM      2  C   UNL     1       2.246   8.251  17.622  0.00  0.00    +0.000 C 
ATOM      3  C   UNL     1       1.866   9.473  18.437  0.00  0.00    +0.000 C 
ATOM      4  N   UNL     1       1.336   8.924  19.670  0.00  0.00    +0.000 N 
ATOM      5  C   UNL     1       0.341   9.416  20.503  0.00  0.00    +0.000 C 
ATOM      6  O   UNL     1      -0.082   8.743  21.444  0.00  0.00    +0.000 OA
ATOM      7  C   UNL     1       1.916   7.622  19.938  0.00  0.00    +0.000 C 
ENDROOT
BRANCH   5   8
ATOM      8  C   UNL     1      -0.234  10.734  20.223  0.00  0.00    +0.000 A 
ATOM      9  C   UNL     1      -1.283  11.090  19.310  0.00  0.00    +0.000 A 
ATOM     10  C   UNL     1      -1.560  12.440  19.308  0.00  0.00    +0.000 A 
ATOM     11  S   UNL     1      -0.535  13.304  20.362  0.00  0.00    +0.000 S 
ATOM     12  C   UNL     1       0.277  11.874  20.824  0.00  0.00    +0.000 A 
ENDBRANCH   5   8
BRANCH   1  13
ATOM     13  O   UNL     1       2.195   5.920  18.262  0.00  0.00    +0.000 OA
BRANCH  13  19
ATOM     14  C   UNL     1       1.616   2.578  21.624  0.00  0.00    +0.000 C 
ATOM     15  C   UNL     1       2.454   3.238  20.576  0.00  0.00    +0.000 A 
ATOM     16  N   UNL     1       3.670   2.722  20.317  0.00  0.00    +0.000 NA
ATOM     17  C   UNL     1       4.387   3.329  19.353  0.00  0.00    +0.000 A 
ATOM     18  C   UNL     1       3.936   4.416  18.649  0.00  0.00    +0.000 A 
ATOM     19  C   UNL     1       2.683   4.860  18.993  0.00  0.00    +0.000 A 
ATOM     20  N   UNL     1       1.929   4.309  19.956  0.00  0.00    +0.000 NA
ENDBRANCH  13  19
ENDBRANCH   1  13
TORSDOF 3
ENDMDL
MODEL 5
REMARK VINA RESULT:      -6.8      2.350      3.450
REMARK  Name = 
REMARK  4 active torsions:
REMARK  status: ('A' for Active; 'I' for Inactive)
REMARK    1  A    between atoms: C_1  and  C_2
REMARK    2  A    between atoms: C_6  and  O_7
REMARK    3  A    between atoms: O_7  and  C_8
REMARK    4  A    between atoms: C_12  and  C_14
REMARK                            x       y       z     vdW  Elec       q    Type
REMARK                         _______ _______ _______ _____ _____    ______ ____
ROOT
ATOM      1  C   UNL     1       6.731   5.919  17.670  0.00  0.00    +0.000 C 
ATOM      2  C   UNL     1       5.405   6.051  16.920  0.00  0.00    +0.000 C 
ATOM      3  C   UNL     1       4.348   5.711  17.954  0.00  0.00    +0.000 C 
ATOM      4  N   UNL     1       4.996   4.740  18.815  0.00  0.00    +0.000 N 
ATOM      5  C   UNL     1       4.452   3.670  19.509  0.00  0.00    +0.000 C 
ATOM      6  O   UNL     1       5.178   2.860  20.088  0.00  0.00    +0.000 OA
ATOM      7  C   UNL     1       6.433   4.934  18.807  0.00  0.00    +0.000 C 
ENDROOT
BRANCH   5   8
ATOM      8  C   UNL     1       2.999   3.488  19.512  0.00  0.00    +0.000 A 
ATOM      9  C   UNL     1       2.006   4.137  20.323  0.00  0.00    +0.000 A 
ATOM     10  C   UNL     1       0.725   3.708  20.051  0.00  0.00    +0.000 A 
ATOM     11  S   UNL     1       0.699   2.489  18.857  0.00  0.00    +0.000 S 
ATOM     12  C   UNL     1       2.399   2.537  18.701  0.00  0.00    +0.000 A 
ENDBRANCH   5   8
BRANCH   1  13
ATOM     13  O   UNL     1       7.711   5.333  16.809  0.00  0.00    +0.000 OA
BRANCH  13  19
ATOM     14  C   UNL     1       7.775   5.598  12.042  0.00  0.00    +0.000 C 
ATOM     15  C   UNL     1       7.250   4.993  13.305  0.00  0.00    +0.000 A 
ATOM     16  N   UNL     1       6.365   3.984  13.205  0.00  0.00    +0.000 NA
ATOM     17  C   UNL     1       5.930   3.450  14.362  0.00  0.00    +0.000 A 
ATOM     18  C   UNL     1       6.344   3.884  15.595  0.00  0.00    +0.000 A 
ATOM     19  C   UNL     1       7.248   4.918  15.582  0.00  0.00    +0.000 A 
ATOM     20  N   UNL     1       7.704   5.502  14.463  0.00  0.00    +0.000 NA
ENDBRANCH  13  19
ENDBRANCH   1  13
TORSDOF 3
ENDMDL
MODEL 6
REMARK VINA RESULT:      -6.8      5.161      6.542
REMARK  Name = 
REMARK  4 active torsions:
REMARK  status: ('A' for Active; 'I' for Inactive)
REMARK    1  A    between atoms: C_1  and  C_2
REMARK    2  A    between atoms: C_6  and  O_7
REMARK    3  A    between atoms: O_7  and  C_8
REMARK    4  A    between atoms: C_12  and  C_14
REMARK                            x       y       z     vdW  Elec       q    Type
REMARK                         _______ _______ _______ _____ _____    ______ ____
ROOT
ATOM      1  C   UNL     1       2.641   7.521  18.700  0.00  0.00    +0.000 C 
ATOM      2  C   UNL     1       2.145   8.540  17.672  0.00  0.00    +0.000 C 
ATOM      3  C   UNL     1       1.646   9.707  18.503  0.00  0.00    +0.000 C 
ATOM      4  N   UNL     1       1.153   9.089  19.719  0.00  0.00    +0.000 N 
ATOM      5  C   UNL     1       0.107   9.473  20.546  0.00  0.00    +0.000 C 
ATOM      6  O   UNL     1      -0.264   8.747  21.470  0.00  0.00    +0.000 OA
ATOM      7  C   UNL     1       1.845   7.840  19.971  0.00  0.00    +0.000 C 
ENDROOT
BRANCH   5   8
ATOM      8  C   UNL     1      -0.580  10.739  20.282  0.00  0.00    +0.000 A 
ATOM      9  C   UNL     1      -1.503  11.067  19.231  0.00  0.00    +0.000 A 
ATOM     10  C   UNL     1      -1.950  12.369  19.295  0.00  0.00    +0.000 A 
ATOM     11  S   UNL     1      -1.234  13.229  20.583  0.00  0.00    +0.000 S 
ATOM     12  C   UNL     1      -0.329  11.860  21.058  0.00  0.00    +0.000 A 
ENDBRANCH   5   8
BRANCH   1  13
ATOM     13  O   UNL     1       2.297   6.202  18.269  0.00  0.00    +0.000 OA
BRANCH  13  19
ATOM     14  C   UNL     1       3.496   1.590  18.578  0.00  0.00    +0.000 C 
ATOM     15  C   UNL     1       3.840   3.037  18.729  0.00  0.00    +0.000 A 
ATOM     16  N   UNL     1       5.093   3.355  19.107  0.00  0.00    +0.000 NA
ATOM     17  C   UNL     1       5.374   4.667  19.212  0.00  0.00    +0.000 A 
ATOM     18  C   UNL     1       4.459   5.656  18.956  0.00  0.00    +0.000 A 
ATOM     19  C   UNL     1       3.213   5.221  18.578  0.00  0.00    +0.000 A 
ATOM     20  N   UNL     1       2.869   3.928  18.473  0.00  0.00    +0.000 NA
ENDBRANCH  13  19
ENDBRANCH   1  13
TORSDOF 3
ENDMDL
MODEL 7
REMARK VINA RESULT:      -6.8      2.629      3.641
REMARK  Name = 
REMARK  4 active torsions:
REMARK  status: ('A' for Active; 'I' for Inactive)
REMARK    1  A    between atoms: C_1  and  C_2
REMARK    2  A    between atoms: C_6  and  O_7
REMARK    3  A    between atoms: O_7  and  C_8
REMARK    4  A    between atoms: C_12  and  C_14
REMARK                            x       y       z     vdW  Elec       q    Type
REMARK                         _______ _______ _______ _____ _____    ______ ____
ROOT
ATOM      1  C   UNL     1       6.577   5.452  16.890  0.00  0.00    +0.000 C 
ATOM      2  C   UNL     1       5.219   5.402  16.188  0.00  0.00    +0.000 C 
ATOM      3  C   UNL     1       4.218   5.205  17.310  0.00  0.00    +0.000 C 
ATOM      4  N   UNL     1       4.941   4.423  18.295  0.00  0.00    +0.000 N 
ATOM      5  C   UNL     1       4.472   3.467  19.184  0.00  0.00    +0.000 C 
ATOM      6  O   UNL     1       5.254   2.798  19.860  0.00  0.00    +0.000 OA
ATOM      7  C   UNL     1       6.367   4.667  18.190  0.00  0.00    +0.000 C 
ENDROOT
BRANCH   5   8
ATOM      8  C   UNL     1       3.029   3.234  19.283  0.00  0.00    +0.000 A 
ATOM      9  C   UNL     1       2.182   2.430  18.446  0.00  0.00    +0.000 A 
ATOM     10  C   UNL     1       0.862   2.450  18.840  0.00  0.00    +0.000 A 
ATOM     11  S   UNL     1       0.611   3.469  20.186  0.00  0.00    +0.000 S 
ATOM     12  C   UNL     1       2.268   3.881  20.244  0.00  0.00    +0.000 A 
ENDBRANCH   5   8
BRANCH   1  13
ATOM     13  O   UNL     1       7.550   4.765  16.099  0.00  0.00    +0.000 OA
BRANCH  13  19
ATOM     14  C   UNL     1       8.213   6.222  11.600  0.00  0.00    +0.000 C 
ATOM     15  C   UNL     1       7.552   5.318  12.591  0.00  0.00    +0.000 A 
ATOM     16  N   UNL     1       6.722   4.365  12.127  0.00  0.00    +0.000 NA
ATOM     17  C   UNL     1       6.162   3.556  13.046  0.00  0.00    +0.000 A 
ATOM     18  C   UNL     1       6.400   3.666  14.392  0.00  0.00    +0.000 A 
ATOM     19  C   UNL     1       7.262   4.671  14.756  0.00  0.00    +0.000 A 
ATOM     20  N   UNL     1       7.836   5.520  13.889  0.00  0.00    +0.000 NA
ENDBRANCH  13  19
ENDBRANCH   1  13
TORSDOF 3
ENDMDL
MODEL 8
REMARK VINA RESULT:      -6.8      5.166      6.249
REMARK  Name = 
REMARK  4 active torsions:
REMARK  status: ('A' for Active; 'I' for Inactive)
REMARK    1  A    between atoms: C_1  and  C_2
REMARK    2  A    between atoms: C_6  and  O_7
REMARK    3  A    between atoms: O_7  and  C_8
REMARK    4  A    between atoms: C_12  and  C_14
REMARK                            x       y       z     vdW  Elec       q    Type
REMARK                         _______ _______ _______ _____ _____    ______ ____
ROOT
ATOM      1  C   UNL     1       2.617   7.545  18.908  0.00  0.00    +0.000 C 
ATOM      2  C   UNL     1       2.048   8.382  17.760  0.00  0.00    +0.000 C 
ATOM      3  C   UNL     1       1.481   9.617  18.434  0.00  0.00    +0.000 C 
ATOM      4  N   UNL     1       1.037   9.139  19.730  0.00  0.00    +0.000 N 
ATOM      5  C   UNL     1      -0.025   9.564  20.514  0.00  0.00    +0.000 C 
ATOM      6  O   UNL     1      -0.341   8.948  21.533  0.00  0.00    +0.000 OA
ATOM      7  C   UNL     1       1.811   7.982  20.137  0.00  0.00    +0.000 C 
ENDROOT
BRANCH   5   8
ATOM      8  C   UNL     1      -0.796  10.736  20.093  0.00  0.00    +0.000 A 
ATOM      9  C   UNL     1      -1.714  10.871  18.997  0.00  0.00    +0.000 A 
ATOM     10  C   UNL     1      -2.255  12.135  18.901  0.00  0.00    +0.000 A 
ATOM     11  S   UNL     1      -1.635  13.188  20.091  0.00  0.00    +0.000 S 
ATOM     12  C   UNL     1      -0.645  11.955  20.737  0.00  0.00    +0.000 A 
ENDBRANCH   5   8
BRANCH   1  13
ATOM     13  O   UNL     1       2.357   6.161  18.664  0.00  0.00    +0.000 OA
BRANCH  13  19
ATOM     14  C   UNL     1       7.060   5.443  19.075  0.00  0.00    +0.000 C 
ATOM     15  C   UNL     1       5.659   4.920  19.073  0.00  0.00    +0.000 A 
ATOM     16  N   UNL     1       5.469   3.613  19.333  0.00  0.00    +0.000 NA
ATOM     17  C   UNL     1       4.194   3.182  19.343  0.00  0.00    +0.000 A 
ATOM     18  C   UNL     1       3.119   4.001  19.108  0.00  0.00    +0.000 A 
ATOM     19  C   UNL     1       3.426   5.315  18.854  0.00  0.00    +0.000 A 
ATOM     20  N   UNL     1       4.677   5.800  18.812  0.00  0.00    +0.000 NA
ENDBRANCH  13  19
ENDBRANCH   1  13
TORSDOF 3
ENDMDL
MODEL 9
REMARK VINA RESULT:      -6.8      2.755      4.122
REMARK  Name = 
REMARK  4 active torsions:
REMARK  status: ('A' for Active; 'I' for Inactive)
REMARK    1  A    between atoms: C_1  and  C_2
REMARK    2  A    between atoms: C_6  and  O_7
REMARK    3  A    between atoms: O_7  and  C_8
REMARK    4  A    between atoms: C_12  and  C_14
REMARK                            x       y       z     vdW  Elec       q    Type
REMARK                         _______ _______ _______ _____ _____    ______ ____
ROOT
ATOM      1  C   UNL     1       6.362   4.442  16.548  0.00  0.00    +0.000 C 
ATOM      2  C   UNL     1       6.285   5.132  17.911  0.00  0.00    +0.000 C 
ATOM      3  C   UNL     1       5.317   4.283  18.714  0.00  0.00    +0.000 C 
ATOM      4  N   UNL     1       4.390   3.772  17.722  0.00  0.00    +0.000 N 
ATOM      5  C   UNL     1       3.041   3.473  17.841  0.00  0.00    +0.000 C 
ATOM      6  O   UNL     1       2.372   3.175  16.851  0.00  0.00    +0.000 OA
ATOM      7  C   UNL     1       5.030   3.692  16.422  0.00  0.00    +0.000 C 
ENDROOT
BRANCH   5   8
ATOM      8  C   UNL     1       2.409   3.554  19.160  0.00  0.00    +0.000 A 
ATOM      9  C   UNL     1       1.851   4.696  19.829  0.00  0.00    +0.000 A 
ATOM     10  C   UNL     1       1.341   4.396  21.073  0.00  0.00    +0.000 A 
ATOM     11  S   UNL     1       1.567   2.753  21.477  0.00  0.00    +0.000 S 
ATOM     12  C   UNL     1       2.343   2.443  19.987  0.00  0.00    +0.000 A 
ENDBRANCH   5   8
BRANCH   1  13
ATOM     13  O   UNL     1       6.424   5.429  15.516  0.00  0.00    +0.000 OA
BRANCH  13  19
ATOM     14  C   UNL     1       5.370   2.583  11.830  0.00  0.00    +0.000 C 
ATOM     15  C   UNL     1       6.235   3.624  12.464  0.00  0.00    +0.000 A 
ATOM     16  N   UNL     1       7.251   4.132  11.740  0.00  0.00    +0.000 NA
ATOM     17  C   UNL     1       7.996   5.082  12.335  0.00  0.00    +0.000 A 
ATOM     18  C   UNL     1       7.763   5.536  13.608  0.00  0.00    +0.000 A 
ATOM     19  C   UNL     1       6.702   4.951  14.256  0.00  0.00    +0.000 A 
ATOM     20  N   UNL     1       5.935   3.987  13.722  0.00  0.00    +0.000 NA
ENDBRANCH  13  19
ENDBRANCH   1  13
TORSDOF 3
ENDMDL
