MODEL 1
REMARK VINA RESULT:      -8.3      0.000      0.000
REMARK  Name = 
REMARK  4 active torsions:
REMARK  status: ('A' for Active; 'I' for Inactive)
REMARK    1  A    between atoms: C_1  and  C_2
REMARK    2  A    between atoms: C_8  and  N_9
REMARK    3  A    between atoms: N_12  and  N_13
REMARK    4  A    between atoms: N_13  and  C_14
REMARK                            x       y       z     vdW  Elec       q    Type
REMARK                         _______ _______ _______ _____ _____    ______ ____
ROOT
ATOM      1  N   UNL     1       3.330   7.765  18.332  0.00  0.00    +0.000 N 
ATOM      2  H   UNL     1       2.911   7.427  19.196  0.00  0.00    +0.000 HD
ENDROOT
BRANCH   1   3
ATOM      3  C   UNL     1       3.845   6.724  17.535  0.00  0.00    +0.000 A 
ATOM      4  N   UNL     1       4.683   7.043  16.515  0.00  0.00    +0.000 NA
ATOM      5  C   UNL     1       5.253   6.053  15.812  0.00  0.00    +0.000 A 
ATOM      6  N   UNL     1       5.105   4.742  15.986  0.00  0.00    +0.000 NA
ATOM      7  C   UNL     1       4.255   4.452  16.987  0.00  0.00    +0.000 A 
ATOM      8  S   UNL     1       3.922   2.826  17.369  0.00  0.00    +0.000 S 
ATOM      9  C   UNL     1       2.826   3.274  18.584  0.00  0.00    +0.000 A 
ATOM     10  C   UNL     1       2.725   4.647  18.737  0.00  0.00    +0.000 A 
ATOM     11  C   UNL     1       3.581   5.356  17.798  0.00  0.00    +0.000 A 
ATOM     12  C   UNL     1       1.763   5.244  19.728  0.00  0.00    +0.000 C 
ATOM     13  C   UNL     1       1.233   4.216  20.737  0.00  0.00    +0.000 C 
ATOM     14  C   UNL     1       0.864   2.890  20.068  0.00  0.00    +0.000 C 
ATOM     15  C   UNL     1       2.082   2.252  19.387  0.00  0.00    +0.000 C 
ENDBRANCH   1   3
BRANCH   1  19
ATOM     16  N   UNL     1       0.737  10.159  17.814  0.00  0.00    +0.000 N 
ATOM     17  C   UNL     1       1.452   9.178  18.464  0.00  0.00    +0.000 C 
ATOM     18  O   UNL     1       1.308   8.825  19.633  0.00  0.00    +0.000 OA
ATOM     19  N   UNL     1       2.405   8.585  17.650  0.00  0.00    +0.000 N 
ATOM     20  H   UNL     1       1.301  10.659  17.135  0.00  0.00    +0.000 HD
ATOM     21  H   UNL     1       2.790   9.053  16.833  0.00  0.00    +0.000 HD
BRANCH  16  29
ATOM     22  C   UNL     1      -2.245   9.730  17.397  0.00  0.00    +0.000 C 
ATOM     23  C   UNL     1      -1.634  10.803  18.256  0.00  0.00    +0.000 A 
ATOM     24  C   UNL     1      -2.515  11.711  18.881  0.00  0.00    +0.000 A 
ATOM     25  C   UNL     1      -2.042  12.759  19.671  0.00  0.00    +0.000 A 
ATOM     26  C   UNL     1      -0.675  12.917  19.860  0.00  0.00    +0.000 A 
ATOM     27  C   UNL     1       0.214  12.038  19.241  0.00  0.00    +0.000 A 
ATOM     28 CL   UNL     1       1.910  12.268  19.527  0.00  0.00    +0.000 Cl
ATOM     29  C   UNL     1      -0.246  10.967  18.445  0.00  0.00    +0.000 A 
ENDBRANCH  16  29
ENDBRANCH   1  19
TORSDOF 3
ENDMDL
MODEL 2
REMARK VINA RESULT:      -8.3      1.084      1.757
REMARK  Name = 
REMARK  4 active torsions:
REMARK  status: ('A' for Active; 'I' for Inactive)
REMARK    1  A    between atoms: C_1  and  C_2
REMARK    2  A    between atoms: C_8  and  N_9
REMARK    3  A    between atoms: N_12  and  N_13
REMARK    4  A    between atoms: N_13  and  C_14
REMARK                            x       y       z     vdW  Elec       q    Type
REMARK                         _______ _______ _______ _____ _____    ______ ____
ROOT
ATOM      1  N   UNL     1       3.195   7.726  18.488  0.00  0.00    +0.000 N 
ATOM      2  H   UNL     1       2.672   7.335  19.270  0.00  0.00    +0.000 HD
ENDROOT
BRANCH   1   3
ATOM      3  C   UNL     1       3.748   6.734  17.656  0.00  0.00    +0.000 A 
ATOM      4  N   UNL     1       4.582   7.119  16.655  0.00  0.00    +0.000 NA
ATOM      5  C   UNL     1       5.188   6.176  15.918  0.00  0.00    +0.000 A 
ATOM      6  N   UNL     1       5.080   4.855  16.040  0.00  0.00    +0.000 NA
ATOM      7  C   UNL     1       4.233   4.499  17.022  0.00  0.00    +0.000 A 
ATOM      8  S   UNL     1       3.949   2.849  17.337  0.00  0.00    +0.000 S 
ATOM      9  C   UNL     1       2.831   3.215  18.560  0.00  0.00    +0.000 A 
ATOM     10  C   UNL     1       2.686   4.577  18.766  0.00  0.00    +0.000 A 
ATOM     11  C   UNL     1       3.526   5.349  17.862  0.00  0.00    +0.000 A 
ATOM     12  C   UNL     1       1.699   5.104  19.771  0.00  0.00    +0.000 C 
ATOM     13  C   UNL     1       1.195   4.021  20.736  0.00  0.00    +0.000 C 
ATOM     14  C   UNL     1       0.872   2.712  20.012  0.00  0.00    +0.000 C 
ATOM     15  C   UNL     1       2.114   2.139  19.317  0.00  0.00    +0.000 C 
ENDBRANCH   1   3
BRANCH   1  19
ATOM     16  N   UNL     1       0.845  10.353  17.937  0.00  0.00    +0.000 N 
ATOM     17  C   UNL     1       1.437   9.289  18.580  0.00  0.00    +0.000 C 
ATOM     18  O   UNL     1       1.196   8.904  19.723  0.00  0.00    +0.000 OA
ATOM     19  N   UNL     1       2.383   8.649  17.794  0.00  0.00    +0.000 N 
ATOM     20  H   UNL     1       1.487  10.829  17.313  0.00  0.00    +0.000 HD
ATOM     21  H   UNL     1       2.852   9.114  17.021  0.00  0.00    +0.000 HD
BRANCH  16  29
ATOM     22  C   UNL     1       1.657  12.573  19.850  0.00  0.00    +0.000 C 
ATOM     23  C   UNL     1       0.244  12.242  19.454  0.00  0.00    +0.000 A 
ATOM     24  C   UNL     1      -0.789  12.993  20.054  0.00  0.00    +0.000 A 
ATOM     25  C   UNL     1      -2.132  12.738  19.774  0.00  0.00    +0.000 A 
ATOM     26  C   UNL     1      -2.471  11.731  18.879  0.00  0.00    +0.000 A 
ATOM     27  C   UNL     1      -1.466  10.969  18.284  0.00  0.00    +0.000 A 
ATOM     28 CL   UNL     1      -1.943   9.738  17.159  0.00  0.00    +0.000 Cl
ATOM     29  C   UNL     1      -0.102  11.217  18.549  0.00  0.00    +0.000 A 
ENDBRANCH  16  29
ENDBRANCH   1  19
TORSDOF 3
ENDMDL
MODEL 3
REMARK VINA RESULT:      -8.1      1.898      3.697
REMARK  Name = 
REMARK  4 active torsions:
REMARK  status: ('A' for Active; 'I' for Inactive)
REMARK    1  A    between atoms: C_1  and  C_2
REMARK    2  A    between atoms: C_8  and  N_9
REMARK    3  A    between atoms: N_12  and  N_13
REMARK    4  A    between atoms: N_13  and  C_14
REMARK                            x       y       z     vdW  Elec       q    Type
REMARK                         _______ _______ _______ _____ _____    ______ ____
ROOT
ATOM      1  N   UNL     1       2.580   7.192  20.079  0.00  0.00    +0.000 N 
ATOM      2  H   UNL     1       2.378   7.510  21.026  0.00  0.00    +0.000 HD
ENDROOT
BRANCH   1   3
ATOM      3  C   UNL     1       2.309   5.821  19.898  0.00  0.00    +0.000 A 
ATOM      4  N   UNL     1       1.408   5.225  20.721  0.00  0.00    +0.000 NA
ATOM      5  C   UNL     1       1.072   3.946  20.496  0.00  0.00    +0.000 A 
ATOM      6  N   UNL     1       1.521   3.146  19.531  0.00  0.00    +0.000 NA
ATOM      7  C   UNL     1       2.426   3.752  18.743  0.00  0.00    +0.000 A 
ATOM      8  S   UNL     1       3.130   2.895  17.450  0.00  0.00    +0.000 S 
ATOM      9  C   UNL     1       4.108   4.216  17.030  0.00  0.00    +0.000 A 
ATOM     10  C   UNL     1       3.891   5.323  17.834  0.00  0.00    +0.000 A 
ATOM     11  C   UNL     1       2.884   5.059  18.851  0.00  0.00    +0.000 A 
ATOM     12  C   UNL     1       4.703   6.577  17.654  0.00  0.00    +0.000 C 
ATOM     13  C   UNL     1       5.466   6.607  16.324  0.00  0.00    +0.000 C 
ATOM     14  C   UNL     1       6.123   5.261  16.007  0.00  0.00    +0.000 C 
ATOM     15  C   UNL     1       5.077   4.145  15.889  0.00  0.00    +0.000 C 
ENDBRANCH   1   3
BRANCH   1  19
ATOM     16  N   UNL     1       0.629   9.899  18.821  0.00  0.00    +0.000 N 
ATOM     17  C   UNL     1       1.058   8.952  19.723  0.00  0.00    +0.000 C 
ATOM     18  O   UNL     1       0.754   8.888  20.913  0.00  0.00    +0.000 OA
ATOM     19  N   UNL     1       1.914   8.021  19.152  0.00  0.00    +0.000 N 
ATOM     20  H   UNL     1       1.338  10.122  18.131  0.00  0.00    +0.000 HD
ATOM     21  H   UNL     1       2.452   8.220  18.313  0.00  0.00    +0.000 HD
BRANCH  16  29
ATOM     22  C   UNL     1       1.658  12.255  20.446  0.00  0.00    +0.000 C 
ATOM     23  C   UNL     1       0.250  12.100  19.938  0.00  0.00    +0.000 A 
ATOM     24  C   UNL     1      -0.676  13.106  20.281  0.00  0.00    +0.000 A 
ATOM     25  C   UNL     1      -2.011  13.035  19.882  0.00  0.00    +0.000 A 
ATOM     26  C   UNL     1      -2.447  11.956  19.122  0.00  0.00    +0.000 A 
ATOM     27  C   UNL     1      -1.550  10.944  18.782  0.00  0.00    +0.000 A 
ATOM     28 CL   UNL     1      -2.141   9.631  17.814  0.00  0.00    +0.000 Cl
ATOM     29  C   UNL     1      -0.194  11.004  19.169  0.00  0.00    +0.000 A 
ENDBRANCH  16  29
ENDBRANCH   1  19
TORSDOF 3
ENDMDL
MODEL 4
REMARK VINA RESULT:      -8.0      2.110      3.568
REMARK  Name = 
REMARK  4 active torsions:
REMARK  status: ('A' for Active; 'I' for Inactive)
REMARK    1  A    between atoms: C_1  and  C_2
REMARK    2  A    between atoms: C_8  and  N_9
REMARK    3  A    between atoms: N_12  and  N_13
REMARK    4  A    between atoms: N_13  and  C_14
REMARK                            x       y       z     vdW  Elec       q    Type
REMARK                         _______ _______ _______ _____ _____    ______ ____
ROOT
ATOM      1  N   UNL     1       2.523   7.025  20.146  0.00  0.00    +0.000 N 
ATOM      2  H   UNL     1       3.348   7.404  20.610  0.00  0.00    +0.000 HD
ENDROOT
BRANCH   1   3
ATOM      3  C   UNL     1       2.526   5.617  20.102  0.00  0.00    +0.000 A 
ATOM      4  N   UNL     1       1.877   4.937  21.083  0.00  0.00    +0.000 NA
ATOM      5  C   UNL     1       1.793   3.601  20.998  0.00  0.00    +0.000 A 
ATOM      6  N   UNL     1       2.278   2.816  20.040  0.00  0.00    +0.000 NA
ATOM      7  C   UNL     1       2.933   3.509  19.092  0.00  0.00    +0.000 A 
ATOM      8  S   UNL     1       3.638   2.687  17.777  0.00  0.00    +0.000 S 
ATOM      9  C   UNL     1       4.257   4.128  17.132  0.00  0.00    +0.000 A 
ATOM     10  C   UNL     1       3.914   5.243  17.879  0.00  0.00    +0.000 A 
ATOM     11  C   UNL     1       3.116   4.885  19.042  0.00  0.00    +0.000 A 
ATOM     12  C   UNL     1       4.415   6.609  17.498  0.00  0.00    +0.000 C 
ATOM     13  C   UNL     1       4.987   6.660  16.075  0.00  0.00    +0.000 C 
ATOM     14  C   UNL     1       5.868   5.448  15.766  0.00  0.00    +0.000 C 
ATOM     15  C   UNL     1       5.073   4.140  15.875  0.00  0.00    +0.000 C 
ENDBRANCH   1   3
BRANCH   1  19
ATOM     16  N   UNL     1      -0.221   9.232  20.710  0.00  0.00    +0.000 N 
ATOM     17  C   UNL     1       1.039   8.844  20.314  0.00  0.00    +0.000 C 
ATOM     18  O   UNL     1       1.834   9.513  19.655  0.00  0.00    +0.000 OA
ATOM     19  N   UNL     1       1.361   7.564  20.739  0.00  0.00    +0.000 N 
ATOM     20  H   UNL     1      -0.873   8.455  20.731  0.00  0.00    +0.000 HD
ATOM     21  H   UNL     1       0.652   6.871  20.964  0.00  0.00    +0.000 HD
BRANCH  16  29
ATOM     22  C   UNL     1      -0.934   9.909  17.832  0.00  0.00    +0.000 C 
ATOM     23  C   UNL     1      -1.141  10.816  19.015  0.00  0.00    +0.000 A 
ATOM     24  C   UNL     1      -1.667  12.101  18.760  0.00  0.00    +0.000 A 
ATOM     25  C   UNL     1      -1.866  13.023  19.788  0.00  0.00    +0.000 A 
ATOM     26  C   UNL     1      -1.550  12.677  21.096  0.00  0.00    +0.000 A 
ATOM     27  C   UNL     1      -1.018  11.417  21.368  0.00  0.00    +0.000 A 
ATOM     28 CL   UNL     1      -0.661  11.029  23.020  0.00  0.00    +0.000 Cl
ATOM     29  C   UNL     1      -0.818  10.468  20.342  0.00  0.00    +0.000 A 
ENDBRANCH  16  29
ENDBRANCH   1  19
TORSDOF 3
ENDMDL
MODEL 5
REMARK VINA RESULT:      -8.0      1.601      3.261
REMARK  Name = 
REMARK  4 active torsions:
REMARK  status: ('A' for Active; 'I' for Inactive)
REMARK    1  A    between atoms: C_1  and  C_2
REMARK    2  A    between atoms: C_8  and  N_9
REMARK    3  A    between atoms: N_12  and  N_13
REMARK    4  A    between atoms: N_13  and  C_14
REMARK                            x       y       z     vdW  Elec       q    Type
REMARK                         _______ _______ _______ _____ _____    ______ ____
ROOT
ATOM      1  N   UNL     1       2.598   7.266  20.082  0.00  0.00    +0.000 N 
ATOM      2  H   UNL     1       2.405   7.581  21.032  0.00  0.00    +0.000 HD
ENDROOT
BRANCH   1   3
ATOM      3  C   UNL     1       2.279   5.908  19.885  0.00  0.00    +0.000 A 
ATOM      4  N   UNL     1       1.353   5.336  20.698  0.00  0.00    +0.000 NA
ATOM      5  C   UNL     1       0.973   4.072  20.458  0.00  0.00    +0.000 A 
ATOM      6  N   UNL     1       1.397   3.267  19.488  0.00  0.00    +0.000 NA
ATOM      7  C   UNL     1       2.327   3.848  18.709  0.00  0.00    +0.000 A 
ATOM      8  S   UNL     1       3.005   2.980  17.410  0.00  0.00    +0.000 S 
ATOM      9  C   UNL     1       4.031   4.270  17.007  0.00  0.00    +0.000 A 
ATOM     10  C   UNL     1       3.851   5.375  17.823  0.00  0.00    +0.000 A 
ATOM     11  C   UNL     1       2.830   5.136  18.832  0.00  0.00    +0.000 A 
ATOM     12  C   UNL     1       4.707   6.601  17.659  0.00  0.00    +0.000 C 
ATOM     13  C   UNL     1       5.477   6.618  16.332  0.00  0.00    +0.000 C 
ATOM     14  C   UNL     1       6.087   5.253  16.003  0.00  0.00    +0.000 C 
ATOM     15  C   UNL     1       5.002   4.176  15.870  0.00  0.00    +0.000 C 
ENDBRANCH   1   3
BRANCH   1  19
ATOM     16  N   UNL     1       0.544   9.911  18.855  0.00  0.00    +0.000 N 
ATOM     17  C   UNL     1       0.959   8.914  19.708  0.00  0.00    +0.000 C 
ATOM     18  O   UNL     1       0.527   8.696  20.839  0.00  0.00    +0.000 OA
ATOM     19  N   UNL     1       1.963   8.128  19.163  0.00  0.00    +0.000 N 
ATOM     20  H   UNL     1       1.302  10.268  18.284  0.00  0.00    +0.000 HD
ATOM     21  H   UNL     1       2.572   8.463  18.420  0.00  0.00    +0.000 HD
BRANCH  16  29
ATOM     22  C   UNL     1      -2.326   9.814  17.850  0.00  0.00    +0.000 C 
ATOM     23  C   UNL     1      -1.752  10.886  18.736  0.00  0.00    +0.000 A 
ATOM     24  C   UNL     1      -2.601  11.955  19.092  0.00  0.00    +0.000 A 
ATOM     25  C   UNL     1      -2.150  13.011  19.883  0.00  0.00    +0.000 A 
ATOM     26  C   UNL     1      -0.840  13.018  20.345  0.00  0.00    +0.000 A 
ATOM     27  C   UNL     1       0.020  11.977  19.995  0.00  0.00    +0.000 A 
ATOM     28 CL   UNL     1       1.639  12.023  20.615  0.00  0.00    +0.000 Cl
ATOM     29  C   UNL     1      -0.420  10.895  19.202  0.00  0.00    +0.000 A 
ENDBRANCH  16  29
ENDBRANCH   1  19
TORSDOF 3
ENDMDL
MODEL 6
REMARK VINA RESULT:      -7.9      2.452      3.899
REMARK  Name = 
REMARK  4 active torsions:
REMARK  status: ('A' for Active; 'I' for Inactive)
REMARK    1  A    between atoms: C_1  and  C_2
REMARK    2  A    between atoms: C_8  and  N_9
REMARK    3  A    between atoms: N_12  and  N_13
REMARK    4  A    between atoms: N_13  and  C_14
REMARK                            x       y       z     vdW  Elec       q    Type
REMARK                         _______ _______ _______ _____ _____    ______ ____
ROOT
ATOM      1  N   UNL     1       2.310   6.326  20.730  0.00  0.00    +0.000 N 
ATOM      2  H   UNL     1       2.837   6.541  21.575  0.00  0.00    +0.000 HD
ENDROOT
BRANCH   1   3
ATOM      3  C   UNL     1       2.285   4.947  20.444  0.00  0.00    +0.000 A 
ATOM      4  N   UNL     1       1.618   4.121  21.293  0.00  0.00    +0.000 NA
ATOM      5  C   UNL     1       1.508   2.822  20.979  0.00  0.00    +0.000 A 
ATOM      6  N   UNL     1       1.981   2.203  19.900  0.00  0.00    +0.000 NA
ATOM      7  C   UNL     1       2.654   3.036  19.086  0.00  0.00    +0.000 A 
ATOM      8  S   UNL     1       3.347   2.439  17.650  0.00  0.00    +0.000 S 
ATOM      9  C   UNL     1       3.999   3.957  17.263  0.00  0.00    +0.000 A 
ATOM     10  C   UNL     1       3.674   4.933  18.190  0.00  0.00    +0.000 A 
ATOM     11  C   UNL     1       2.864   4.396  19.274  0.00  0.00    +0.000 A 
ATOM     12  C   UNL     1       4.204   6.334  18.052  0.00  0.00    +0.000 C 
ATOM     13  C   UNL     1       4.783   6.617  16.659  0.00  0.00    +0.000 C 
ATOM     14  C   UNL     1       5.641   5.458  16.146  0.00  0.00    +0.000 C 
ATOM     15  C   UNL     1       4.820   4.167  16.028  0.00  0.00    +0.000 C 
ENDBRANCH   1   3
BRANCH   1  19
ATOM     16  N   UNL     1      -0.235   8.824  20.743  0.00  0.00    +0.000 N 
ATOM     17  C   UNL     1       1.019   8.286  20.918  0.00  0.00    +0.000 C 
ATOM     18  O   UNL     1       2.057   8.909  21.138  0.00  0.00    +0.000 OA
ATOM     19  N   UNL     1       1.024   6.902  20.817  0.00  0.00    +0.000 N 
ATOM     20  H   UNL     1      -0.791   8.297  20.078  0.00  0.00    +0.000 HD
ATOM     21  H   UNL     1       0.306   6.391  20.311  0.00  0.00    +0.000 HD
BRANCH  16  29
ATOM     22  C   UNL     1      -0.867  10.401  23.266  0.00  0.00    +0.000 C 
ATOM     23  C   UNL     1      -0.812  10.973  21.876  0.00  0.00    +0.000 A 
ATOM     24  C   UNL     1      -1.123  12.341  21.726  0.00  0.00    +0.000 A 
ATOM     25  C   UNL     1      -1.130  12.954  20.473  0.00  0.00    +0.000 A 
ATOM     26  C   UNL     1      -0.817  12.213  19.341  0.00  0.00    +0.000 A 
ATOM     27  C   UNL     1      -0.518  10.856  19.465  0.00  0.00    +0.000 A 
ATOM     28 CL   UNL     1      -0.114   9.982  18.022  0.00  0.00    +0.000 Cl
ATOM     29  C   UNL     1      -0.498  10.221  20.725  0.00  0.00    +0.000 A 
ENDBRANCH  16  29
ENDBRANCH   1  19
TORSDOF 3
ENDMDL
MODEL 7
REMARK VINA RESULT:      -7.7      2.382      3.852
REMARK  Name = 
REMARK  4 active torsions:
REMARK  status: ('A' for Active; 'I' for Inactive)
REMARK    1  A    between atoms: C_1  and  C_2
REMARK    2  A    between atoms: C_8  and  N_9
REMARK    3  A    between atoms: N_12  and  N_13
REMARK    4  A    between atoms: N_13  and  C_14
REMARK                            x       y       z     vdW  Elec       q    Type
REMARK                         _______ _______ _______ _____ _____    ______ ____
ROOT
ATOM      1  N   UNL     1       2.474   6.831  20.447  0.00  0.00    +0.000 N 
ATOM      2  H   UNL     1       2.770   6.993  21.408  0.00  0.00    +0.000 HD
ENDROOT
BRANCH   1   3
ATOM      3  C   UNL     1       2.248   5.468  20.171  0.00  0.00    +0.000 A 
ATOM      4  N   UNL     1       1.418   4.770  20.989  0.00  0.00    +0.000 NA
ATOM      5  C   UNL     1       1.123   3.499  20.681  0.00  0.00    +0.000 A 
ATOM      6  N   UNL     1       1.549   2.797  19.634  0.00  0.00    +0.000 NA
ATOM      7  C   UNL     1       2.384   3.501  18.850  0.00  0.00    +0.000 A 
ATOM      8  S   UNL     1       3.049   2.780  17.458  0.00  0.00    +0.000 S 
ATOM      9  C   UNL     1       3.948   4.172  17.094  0.00  0.00    +0.000 A 
ATOM     10  C   UNL     1       3.732   5.202  17.995  0.00  0.00    +0.000 A 
ATOM     11  C   UNL     1       2.794   4.815  19.038  0.00  0.00    +0.000 A 
ATOM     12  C   UNL     1       4.481   6.501  17.873  0.00  0.00    +0.000 C 
ATOM     13  C   UNL     1       5.168   6.668  16.511  0.00  0.00    +0.000 C 
ATOM     14  C   UNL     1       5.860   5.381  16.054  0.00  0.00    +0.000 C 
ATOM     15  C   UNL     1       4.855   4.232  15.903  0.00  0.00    +0.000 C 
ENDBRANCH   1   3
BRANCH   1  19
ATOM     16  N   UNL     1       0.348   9.695  20.436  0.00  0.00    +0.000 N 
ATOM     17  C   UNL     1       1.282   8.805  20.918  0.00  0.00    +0.000 C 
ATOM     18  O   UNL     1       1.994   8.961  21.909  0.00  0.00    +0.000 OA
ATOM     19  N   UNL     1       1.364   7.652  20.152  0.00  0.00    +0.000 N 
ATOM     20  H   UNL     1       0.284   9.675  19.425  0.00  0.00    +0.000 HD
ATOM     21  H   UNL     1       1.075   7.624  19.178  0.00  0.00    +0.000 HD
BRANCH  16  29
ATOM     22  C   UNL     1      -1.037  10.092  23.115  0.00  0.00    +0.000 C 
ATOM     23  C   UNL     1      -0.533  11.197  22.226  0.00  0.00    +0.000 A 
ATOM     24  C   UNL     1      -0.762  12.523  22.648  0.00  0.00    +0.000 A 
ATOM     25  C   UNL     1      -0.360  13.613  21.877  0.00  0.00    +0.000 A 
ATOM     26  C   UNL     1       0.289  13.400  20.667  0.00  0.00    +0.000 A 
ATOM     27  C   UNL     1       0.515  12.097  20.225  0.00  0.00    +0.000 A 
ATOM     28 CL   UNL     1       1.348  11.887  18.718  0.00  0.00    +0.000 Cl
ATOM     29  C   UNL     1       0.123  10.981  20.996  0.00  0.00    +0.000 A 
ENDBRANCH  16  29
ENDBRANCH   1  19
TORSDOF 3
ENDMDL
MODEL 8
REMARK VINA RESULT:      -7.7      3.370      8.263
REMARK  Name = 
REMARK  4 active torsions:
REMARK  status: ('A' for Active; 'I' for Inactive)
REMARK    1  A    between atoms: C_1  and  C_2
REMARK    2  A    between atoms: C_8  and  N_9
REMARK    3  A    between atoms: N_12  and  N_13
REMARK    4  A    between atoms: N_13  and  C_14
REMARK                            x       y       z     vdW  Elec       q    Type
REMARK                         _______ _______ _______ _____ _____    ______ ____
ROOT
ATOM      1  N   UNL     1       1.198  10.168  19.220  0.00  0.00    +0.000 N 
ATOM      2  H   UNL     1       0.817   9.979  18.294  0.00  0.00    +0.000 HD
ENDROOT
BRANCH   1   3
ATOM      3  C   UNL     1       0.309  10.899  20.033  0.00  0.00    +0.000 A 
ATOM      4  N   UNL     1       0.746  11.331  21.244  0.00  0.00    +0.000 NA
ATOM      5  C   UNL     1      -0.060  12.108  21.984  0.00  0.00    +0.000 A 
ATOM      6  N   UNL     1      -1.283  12.534  21.678  0.00  0.00    +0.000 NA
ATOM      7  C   UNL     1      -1.701  12.077  20.485  0.00  0.00    +0.000 A 
ATOM      8  S   UNL     1      -3.247  12.502  19.910  0.00  0.00    +0.000 S 
ATOM      9  C   UNL     1      -3.048  11.567  18.508  0.00  0.00    +0.000 A 
ATOM     10  C   UNL     1      -1.807  10.955  18.443  0.00  0.00    +0.000 A 
ATOM     11  C   UNL     1      -0.995  11.261  19.610  0.00  0.00    +0.000 A 
ATOM     12  C   UNL     1      -1.460  10.038  17.301  0.00  0.00    +0.000 C 
ATOM     13  C   UNL     1      -2.429  10.166  16.118  0.00  0.00    +0.000 C 
ATOM     14  C   UNL     1      -3.888  10.241  16.575  0.00  0.00    +0.000 C 
ATOM     15  C   UNL     1      -4.127  11.462  17.474  0.00  0.00    +0.000 C 
ENDBRANCH   1   3
BRANCH   1  19
ATOM     16  N   UNL     1       2.483   6.851  19.477  0.00  0.00    +0.000 N 
ATOM     17  C   UNL     1       1.827   7.921  18.911  0.00  0.00    +0.000 C 
ATOM     18  O   UNL     1       1.439   8.005  17.747  0.00  0.00    +0.000 OA
ATOM     19  N   UNL     1       1.628   8.960  19.809  0.00  0.00    +0.000 N 
ATOM     20  H   UNL     1       3.159   7.141  20.175  0.00  0.00    +0.000 HD
ATOM     21  H   UNL     1       2.209   9.085  20.633  0.00  0.00    +0.000 HD
BRANCH  16  29
ATOM     22  C   UNL     1       4.667   6.905  17.361  0.00  0.00    +0.000 C 
ATOM     23  C   UNL     1       3.868   5.692  17.753  0.00  0.00    +0.000 A 
ATOM     24  C   UNL     1       4.122   4.495  17.051  0.00  0.00    +0.000 A 
ATOM     25  C   UNL     1       3.410   3.327  17.322  0.00  0.00    +0.000 A 
ATOM     26  C   UNL     1       2.433   3.327  18.309  0.00  0.00    +0.000 A 
ATOM     27  C   UNL     1       2.157   4.503  19.007  0.00  0.00    +0.000 A 
ATOM     28 CL   UNL     1       0.942   4.444  20.243  0.00  0.00    +0.000 Cl
ATOM     29  C   UNL     1       2.873   5.693  18.752  0.00  0.00    +0.000 A 
ENDBRANCH  16  29
ENDBRANCH   1  19
TORSDOF 3
ENDMDL
MODEL 9
REMARK VINA RESULT:      -7.7      4.013      8.857
REMARK  Name = 
REMARK  4 active torsions:
REMARK  status: ('A' for Active; 'I' for Inactive)
REMARK    1  A    between atoms: C_1  and  C_2
REMARK    2  A    between atoms: C_8  and  N_9
REMARK    3  A    between atoms: N_12  and  N_13
REMARK    4  A    between atoms: N_13  and  C_14
REMARK                            x       y       z     vdW  Elec       q    Type
REMARK                         _______ _______ _______ _____ _____    ______ ____
ROOT
ATOM      1  N   UNL     1       1.549   8.913  20.405  0.00  0.00    +0.000 N 
ATOM      2  H   UNL     1       1.183   8.838  19.457  0.00  0.00    +0.000 HD
ENDROOT
BRANCH   1   3
ATOM      3  C   UNL     1       0.704   9.652  21.256  0.00  0.00    +0.000 A 
ATOM      4  N   UNL     1       0.070   8.999  22.265  0.00  0.00    +0.000 NA
ATOM      5  C   UNL     1      -0.661   9.709  23.137  0.00  0.00    +0.000 A 
ATOM      6  N   UNL     1      -0.857  11.026  23.151  0.00  0.00    +0.000 NA
ATOM      7  C   UNL     1      -0.236  11.647  22.132  0.00  0.00    +0.000 A 
ATOM      8  S   UNL     1      -0.367  13.337  21.966  0.00  0.00    +0.000 S 
ATOM      9  C   UNL     1       0.561  13.328  20.545  0.00  0.00    +0.000 A 
ATOM     10  C   UNL     1       1.005  12.062  20.201  0.00  0.00    +0.000 A 
ATOM     11  C   UNL     1       0.544  11.056  21.147  0.00  0.00    +0.000 A 
ATOM     12  C   UNL     1       1.797  11.839  18.942  0.00  0.00    +0.000 C 
ATOM     13  C   UNL     1       2.339  13.142  18.340  0.00  0.00    +0.000 C 
ATOM     14  C   UNL     1       1.294  14.261  18.356  0.00  0.00    +0.000 C 
ATOM     15  C   UNL     1       0.851  14.588  19.789  0.00  0.00    +0.000 C 
ENDBRANCH   1   3
BRANCH   1  19
ATOM     16  N   UNL     1       2.656   5.523  20.430  0.00  0.00    +0.000 N 
ATOM     17  C   UNL     1       2.124   6.683  19.916  0.00  0.00    +0.000 C 
ATOM     18  O   UNL     1       1.898   6.919  18.730  0.00  0.00    +0.000 OA
ATOM     19  N   UNL     1       1.849   7.624  20.897  0.00  0.00    +0.000 N 
ATOM     20  H   UNL     1       3.244   5.694  21.238  0.00  0.00    +0.000 HD
ATOM     21  H   UNL     1       2.320   7.624  21.798  0.00  0.00    +0.000 HD
BRANCH  16  29
ATOM     22  C   UNL     1       5.412   5.440  19.144  0.00  0.00    +0.000 C 
ATOM     23  C   UNL     1       4.357   4.377  19.005  0.00  0.00    +0.000 A 
ATOM     24  C   UNL     1       4.654   3.275  18.175  0.00  0.00    +0.000 A 
ATOM     25  C   UNL     1       3.728   2.254  17.960  0.00  0.00    +0.000 A 
ATOM     26  C   UNL     1       2.485   2.309  18.578  0.00  0.00    +0.000 A 
ATOM     27  C   UNL     1       2.166   3.395  19.392  0.00  0.00    +0.000 A 
ATOM     28 CL   UNL     1       0.608   3.404  20.156  0.00  0.00    +0.000 Cl
ATOM     29  C   UNL     1       3.093   4.433  19.629  0.00  0.00    +0.000 A 
ENDBRANCH  16  29
ENDBRANCH   1  19
TORSDOF 3
ENDMDL
