MODEL 1
REMARK VINA RESULT:      -7.6      0.000      0.000
REMARK  Name = 
REMARK  2 active torsions:
REMARK  status: ('A' for Active; 'I' for Inactive)
REMARK    1  A    between atoms: C_2  and  C_18
REMARK    2  A    between atoms: C_9  and  C_10
REMARK                            x       y       z     vdW  Elec       q    Type
REMARK                         _______ _______ _______ _____ _____    ______ ____
ROOT
ATOM      1  O   UNL     1       4.642   3.442  18.092  0.00  0.00    +0.000 OA
ATOM      2  C   UNL     1       4.590   4.334  17.257  0.00  0.00    +0.000 C 
ATOM      3  N   UNL     1       3.962   5.554  17.354  0.00  0.00    +0.000 N 
ATOM      4  C   UNL     1       3.303   6.002  18.485  0.00  0.00    +0.000 A 
ATOM      5  N   UNL     1       3.247   5.330  19.635  0.00  0.00    +0.000 NA
ATOM      6  N   UNL     1       2.532   6.106  20.452  0.00  0.00    +0.000 N 
ATOM      7  C   UNL     1       2.111   7.275  19.886  0.00  0.00    +0.000 A 
ATOM      8  C   UNL     1       1.345   8.327  20.404  0.00  0.00    +0.000 A 
ATOM      9  C   UNL     1       1.050   9.399  19.550  0.00  0.00    +0.000 A 
ATOM     10  C   UNL     1       1.537   9.392  18.233  0.00  0.00    +0.000 A 
ATOM     11  C   UNL     1       2.314   8.330  17.738  0.00  0.00    +0.000 A 
ATOM     12  C   UNL     1       2.600   7.244  18.585  0.00  0.00    +0.000 A 
ATOM     13  H   UNL     1       3.978   6.184  16.569  0.00  0.00    +0.000 HD
ATOM     14  H   UNL     1       2.364   5.774  21.394  0.00  0.00    +0.000 HD
ENDROOT
BRANCH   9  15
ATOM     15  C   UNL     1       0.222  10.508  20.005  0.00  0.00    +0.000 A 
ATOM     16  C   UNL     1      -0.888  11.124  19.360  0.00  0.00    +0.000 A 
ATOM     17  C   UNL     1      -1.335  12.146  20.167  0.00  0.00    +0.000 A 
ATOM     18  N   UNL     1      -0.545  12.174  21.284  0.00  0.00    +0.000 N 
ATOM     19  C   UNL     1       0.401  11.184  21.198  0.00  0.00    +0.000 A 
ATOM     20  H   UNL     1      -0.639  12.829  22.050  0.00  0.00    +0.000 HD
ENDBRANCH   9  15
BRANCH   2  21
ATOM     21  C   UNL     1       5.301   4.139  15.950  0.00  0.00    +0.000 C 
ATOM     22  C   UNL     1       5.659   5.358  15.130  0.00  0.00    +0.000 C 
ATOM     23  C   UNL     1       6.745   4.566  15.798  0.00  0.00    +0.000 C 
ENDBRANCH   2  21
TORSDOF 2
ENDMDL
MODEL 2
REMARK VINA RESULT:      -7.1      2.440      7.625
REMARK  Name = 
REMARK  2 active torsions:
REMARK  status: ('A' for Active; 'I' for Inactive)
REMARK    1  A    between atoms: C_2  and  C_18
REMARK    2  A    between atoms: C_9  and  C_10
REMARK                            x       y       z     vdW  Elec       q    Type
REMARK                         _______ _______ _______ _____ _____    ______ ____
ROOT
ATOM      1  O   UNL     1      -0.221   9.329  22.410  0.00  0.00    +0.000 OA
ATOM      2  C   UNL     1       0.004   9.881  21.342  0.00  0.00    +0.000 C 
ATOM      3  N   UNL     1       0.761   9.420  20.289  0.00  0.00    +0.000 N 
ATOM      4  C   UNL     1       1.373   8.180  20.256  0.00  0.00    +0.000 A 
ATOM      5  N   UNL     1       1.254   7.260  21.214  0.00  0.00    +0.000 NA
ATOM      6  N   UNL     1       1.986   6.227  20.791  0.00  0.00    +0.000 N 
ATOM      7  C   UNL     1       2.587   6.426  19.581  0.00  0.00    +0.000 A 
ATOM      8  C   UNL     1       3.426   5.601  18.822  0.00  0.00    +0.000 A 
ATOM      9  C   UNL     1       3.914   6.109  17.610  0.00  0.00    +0.000 A 
ATOM     10  C   UNL     1       3.540   7.397  17.196  0.00  0.00    +0.000 A 
ATOM     11  C   UNL     1       2.687   8.203  17.969  0.00  0.00    +0.000 A 
ATOM     12  C   UNL     1       2.206   7.706  19.194  0.00  0.00    +0.000 A 
ATOM     13  H   UNL     1       0.884   9.999  19.475  0.00  0.00    +0.000 HD
ATOM     14  H   UNL     1       2.036   5.407  21.384  0.00  0.00    +0.000 HD
ENDROOT
BRANCH   9  15
ATOM     15  C   UNL     1       4.827   5.325  16.787  0.00  0.00    +0.000 A 
ATOM     16  C   UNL     1       5.610   5.739  15.672  0.00  0.00    +0.000 A 
ATOM     17  C   UNL     1       6.299   4.641  15.207  0.00  0.00    +0.000 A 
ATOM     18  N   UNL     1       5.971   3.574  15.998  0.00  0.00    +0.000 N 
ATOM     19  C   UNL     1       5.082   3.978  16.962  0.00  0.00    +0.000 A 
ATOM     20  H   UNL     1       6.324   2.632  15.886  0.00  0.00    +0.000 HD
ENDBRANCH   9  15
BRANCH   2  21
ATOM     21  C   UNL     1      -0.615  11.222  21.079  0.00  0.00    +0.000 C 
ATOM     22  C   UNL     1      -1.222  11.981  22.239  0.00  0.00    +0.000 C 
ATOM     23  C   UNL     1       0.043  12.480  21.604  0.00  0.00    +0.000 C 
ENDBRANCH   2  21
TORSDOF 2
ENDMDL
MODEL 3
REMARK VINA RESULT:      -7.1      5.419      6.244
REMARK  Name = 
REMARK  2 active torsions:
REMARK  status: ('A' for Active; 'I' for Inactive)
REMARK    1  A    between atoms: C_2  and  C_18
REMARK    2  A    between atoms: C_9  and  C_10
REMARK                            x       y       z     vdW  Elec       q    Type
REMARK                         _______ _______ _______ _____ _____    ______ ____
ROOT
ATOM      1  O   UNL     1       8.105   5.484  13.838  0.00  0.00    +0.000 OA
ATOM      2  C   UNL     1       7.168   4.750  13.555  0.00  0.00    +0.000 C 
ATOM      3  N   UNL     1       6.179   4.274  14.385  0.00  0.00    +0.000 N 
ATOM      4  C   UNL     1       6.057   4.610  15.721  0.00  0.00    +0.000 A 
ATOM      5  N   UNL     1       6.848   5.480  16.350  0.00  0.00    +0.000 NA
ATOM      6  N   UNL     1       6.389   5.517  17.603  0.00  0.00    +0.000 N 
ATOM      7  C   UNL     1       5.318   4.702  17.831  0.00  0.00    +0.000 A 
ATOM      8  C   UNL     1       4.575   4.458  18.992  0.00  0.00    +0.000 A 
ATOM      9  C   UNL     1       3.530   3.527  18.913  0.00  0.00    +0.000 A 
ATOM     10  C   UNL     1       3.254   2.895  17.690  0.00  0.00    +0.000 A 
ATOM     11  C   UNL     1       4.006   3.164  16.533  0.00  0.00    +0.000 A 
ATOM     12  C   UNL     1       5.067   4.085  16.610  0.00  0.00    +0.000 A 
ATOM     13  H   UNL     1       5.481   3.648  14.017  0.00  0.00    +0.000 HD
ATOM     14  H   UNL     1       6.861   6.125  18.262  0.00  0.00    +0.000 HD
ENDROOT
BRANCH   9  15
ATOM     15  C   UNL     1       2.741   3.189  20.091  0.00  0.00    +0.000 A 
ATOM     16  C   UNL     1       1.355   3.407  20.338  0.00  0.00    +0.000 A 
ATOM     17  C   UNL     1       1.070   2.937  21.600  0.00  0.00    +0.000 A 
ATOM     18  N   UNL     1       2.227   2.436  22.132  0.00  0.00    +0.000 N 
ATOM     19  C   UNL     1       3.246   2.580  21.225  0.00  0.00    +0.000 A 
ATOM     20  H   UNL     1       2.317   2.028  23.054  0.00  0.00    +0.000 HD
ENDBRANCH   9  15
BRANCH   2  21
ATOM     21  C   UNL     1       7.015   4.295  12.133  0.00  0.00    +0.000 C 
ATOM     22  C   UNL     1       7.208   2.829  11.815  0.00  0.00    +0.000 C 
ATOM     23  C   UNL     1       5.836   3.432  11.733  0.00  0.00    +0.000 C 
ENDBRANCH   2  21
TORSDOF 2
ENDMDL
MODEL 4
REMARK VINA RESULT:      -7.0      2.536      7.566
REMARK  Name = 
REMARK  2 active torsions:
REMARK  status: ('A' for Active; 'I' for Inactive)
REMARK    1  A    between atoms: C_2  and  C_18
REMARK    2  A    between atoms: C_9  and  C_10
REMARK                            x       y       z     vdW  Elec       q    Type
REMARK                         _______ _______ _______ _____ _____    ______ ____
ROOT
ATOM      1  O   UNL     1      -0.458  10.634  21.976  0.00  0.00    +0.000 OA
ATOM      2  C   UNL     1      -0.265  10.931  20.805  0.00  0.00    +0.000 C 
ATOM      3  N   UNL     1       0.470  10.247  19.864  0.00  0.00    +0.000 N 
ATOM      4  C   UNL     1       1.092   9.033  20.095  0.00  0.00    +0.000 A 
ATOM      5  N   UNL     1       1.005   8.353  21.238  0.00  0.00    +0.000 NA
ATOM      6  N   UNL     1       1.735   7.252  21.040  0.00  0.00    +0.000 N 
ATOM      7  C   UNL     1       2.304   7.175  19.801  0.00  0.00    +0.000 A 
ATOM      8  C   UNL     1       3.130   6.203  19.224  0.00  0.00    +0.000 A 
ATOM      9  C   UNL     1       3.583   6.427  17.917  0.00  0.00    +0.000 A 
ATOM     10  C   UNL     1       3.188   7.587  17.233  0.00  0.00    +0.000 A 
ATOM     11  C   UNL     1       2.347   8.544  17.827  0.00  0.00    +0.000 A 
ATOM     12  C   UNL     1       1.902   8.334  19.146  0.00  0.00    +0.000 A 
ATOM     13  H   UNL     1       0.567  10.628  18.938  0.00  0.00    +0.000 HD
ATOM     14  H   UNL     1       1.807   6.588  21.801  0.00  0.00    +0.000 HD
ENDROOT
BRANCH   9  15
ATOM     15  C   UNL     1       4.482   5.480  17.267  0.00  0.00    +0.000 A 
ATOM     16  C   UNL     1       5.218   5.626  16.057  0.00  0.00    +0.000 A 
ATOM     17  C   UNL     1       5.911   4.457  15.838  0.00  0.00    +0.000 A 
ATOM     18  N   UNL     1       5.631   3.604  16.871  0.00  0.00    +0.000 N 
ATOM     19  C   UNL     1       4.768   4.215  17.746  0.00  0.00    +0.000 A 
ATOM     20  H   UNL     1       5.999   2.666  16.971  0.00  0.00    +0.000 HD
ENDBRANCH   9  15
BRANCH   2  21
ATOM     21  C   UNL     1      -0.902  12.177  20.264  0.00  0.00    +0.000 C 
ATOM     22  C   UNL     1      -1.365  12.189  18.824  0.00  0.00    +0.000 C 
ATOM     23  C   UNL     1      -2.379  12.194  19.931  0.00  0.00    +0.000 C 
ENDBRANCH   2  21
TORSDOF 2
ENDMDL
MODEL 5
REMARK VINA RESULT:      -7.0      3.108      8.180
REMARK  Name = 
REMARK  2 active torsions:
REMARK  status: ('A' for Active; 'I' for Inactive)
REMARK    1  A    between atoms: C_2  and  C_18
REMARK    2  A    between atoms: C_9  and  C_10
REMARK                            x       y       z     vdW  Elec       q    Type
REMARK                         _______ _______ _______ _____ _____    ______ ____
ROOT
ATOM      1  O   UNL     1      -1.005  12.948  20.584  0.00  0.00    +0.000 OA
ATOM      2  C   UNL     1      -0.718  12.095  21.413  0.00  0.00    +0.000 C 
ATOM      3  N   UNL     1      -0.033  10.917  21.220  0.00  0.00    +0.000 N 
ATOM      4  C   UNL     1       0.507  10.521  20.009  0.00  0.00    +0.000 A 
ATOM      5  N   UNL     1       0.479  11.260  18.899  0.00  0.00    +0.000 NA
ATOM      6  N   UNL     1       1.105  10.521  17.980  0.00  0.00    +0.000 N 
ATOM      7  C   UNL     1       1.551   9.316  18.441  0.00  0.00    +0.000 A 
ATOM      8  C   UNL     1       2.231   8.276  17.795  0.00  0.00    +0.000 A 
ATOM      9  C   UNL     1       2.534   7.131  18.545  0.00  0.00    +0.000 A 
ATOM     10  C   UNL     1       2.169   7.072  19.899  0.00  0.00    +0.000 A 
ATOM     11  C   UNL     1       1.497   8.133  20.531  0.00  0.00    +0.000 A 
ATOM     12  C   UNL     1       1.176   9.278  19.779  0.00  0.00    +0.000 A 
ATOM     13  H   UNL     1       0.106  10.292  21.996  0.00  0.00    +0.000 HD
ATOM     14  H   UNL     1       1.193  10.902  17.046  0.00  0.00    +0.000 HD
ENDROOT
BRANCH   9  15
ATOM     15  C   UNL     1       3.201   5.991  17.929  0.00  0.00    +0.000 A 
ATOM     16  C   UNL     1       2.763   4.639  17.832  0.00  0.00    +0.000 A 
ATOM     17  C   UNL     1       3.742   3.922  17.181  0.00  0.00    +0.000 A 
ATOM     18  N   UNL     1       4.758   4.784  16.872  0.00  0.00    +0.000 N 
ATOM     19  C   UNL     1       4.440   6.042  17.317  0.00  0.00    +0.000 A 
ATOM     20  H   UNL     1       5.614   4.532  16.394  0.00  0.00    +0.000 HD
ENDBRANCH   9  15
BRANCH   2  21
ATOM     21  C   UNL     1      -1.119  12.317  22.841  0.00  0.00    +0.000 C 
ATOM     22  C   UNL     1      -2.123  13.405  23.153  0.00  0.00    +0.000 C 
ATOM     23  C   UNL     1      -2.517  11.964  23.303  0.00  0.00    +0.000 C 
ENDBRANCH   2  21
TORSDOF 2
ENDMDL
MODEL 6
REMARK VINA RESULT:      -7.0      3.002      4.578
REMARK  Name = 
REMARK  2 active torsions:
REMARK  status: ('A' for Active; 'I' for Inactive)
REMARK    1  A    between atoms: C_2  and  C_18
REMARK    2  A    between atoms: C_9  and  C_10
REMARK                            x       y       z     vdW  Elec       q    Type
REMARK                         _______ _______ _______ _____ _____    ______ ____
ROOT
ATOM      1  O   UNL     1       3.002   6.676  18.694  0.00  0.00    +0.000 OA
ATOM      2  C   UNL     1       2.531   6.334  19.770  0.00  0.00    +0.000 C 
ATOM      3  N   UNL     1       1.740   7.069  20.624  0.00  0.00    +0.000 N 
ATOM      4  C   UNL     1       1.294   8.352  20.360  0.00  0.00    +0.000 A 
ATOM      5  N   UNL     1       1.527   9.007  19.222  0.00  0.00    +0.000 NA
ATOM      6  N   UNL     1       0.924  10.188  19.376  0.00  0.00    +0.000 N 
ATOM      7  C   UNL     1       0.295  10.342  20.577  0.00  0.00    +0.000 A 
ATOM      8  C   UNL     1      -0.426  11.418  21.110  0.00  0.00    +0.000 A 
ATOM      9  C   UNL     1      -0.938  11.279  22.408  0.00  0.00    +0.000 A 
ATOM     10  C   UNL     1      -0.732  10.083  23.112  0.00  0.00    +0.000 A 
ATOM     11  C   UNL     1      -0.015   9.010  22.553  0.00  0.00    +0.000 A 
ATOM     12  C   UNL     1       0.515   9.149  21.257  0.00  0.00    +0.000 A 
ATOM     13  H   UNL     1       1.446   6.666  21.498  0.00  0.00    +0.000 HD
ATOM     14  H   UNL     1       0.984  10.853  18.614  0.00  0.00    +0.000 HD
ENDROOT
BRANCH   9  15
ATOM     15  C   UNL     1      -1.661  12.374  23.044  0.00  0.00    +0.000 A 
ATOM     16  C   UNL     1      -1.200  13.678  23.381  0.00  0.00    +0.000 A 
ATOM     17  C   UNL     1      -2.237  14.352  23.986  0.00  0.00    +0.000 A 
ATOM     18  N   UNL     1      -3.316  13.511  24.028  0.00  0.00    +0.000 N 
ATOM     19  C   UNL     1      -2.979  12.309  23.456  0.00  0.00    +0.000 A 
ATOM     20  H   UNL     1      -4.219  13.737  24.424  0.00  0.00    +0.000 HD
ENDBRANCH   9  15
BRANCH   2  21
ATOM     21  C   UNL     1       2.797   4.943  20.264  0.00  0.00    +0.000 C 
ATOM     22  C   UNL     1       1.684   4.198  20.967  0.00  0.00    +0.000 C 
ATOM     23  C   UNL     1       2.125   3.759  19.601  0.00  0.00    +0.000 C 
ENDBRANCH   2  21
TORSDOF 2
ENDMDL
MODEL 7
REMARK VINA RESULT:      -6.8      3.144      7.874
REMARK  Name = 
REMARK  2 active torsions:
REMARK  status: ('A' for Active; 'I' for Inactive)
REMARK    1  A    between atoms: C_2  and  C_18
REMARK    2  A    between atoms: C_9  and  C_10
REMARK                            x       y       z     vdW  Elec       q    Type
REMARK                         _______ _______ _______ _____ _____    ______ ____
ROOT
ATOM      1  O   UNL     1      -0.500  12.216  19.086  0.00  0.00    +0.000 OA
ATOM      2  C   UNL     1      -0.570  11.566  20.120  0.00  0.00    +0.000 C 
ATOM      3  N   UNL     1       0.017  10.354  20.404  0.00  0.00    +0.000 N 
ATOM      4  C   UNL     1       0.858   9.675  19.541  0.00  0.00    +0.000 A 
ATOM      5  N   UNL     1       1.247  10.142  18.354  0.00  0.00    +0.000 NA
ATOM      6  N   UNL     1       2.046   9.194  17.858  0.00  0.00    +0.000 N 
ATOM      7  C   UNL     1       2.203   8.111  18.675  0.00  0.00    +0.000 A 
ATOM      8  C   UNL     1       2.938   6.931  18.511  0.00  0.00    +0.000 A 
ATOM      9  C   UNL     1       2.877   5.978  19.537  0.00  0.00    +0.000 A 
ATOM     10  C   UNL     1       2.110   6.240  20.683  0.00  0.00    +0.000 A 
ATOM     11  C   UNL     1       1.390   7.438  20.833  0.00  0.00    +0.000 A 
ATOM     12  C   UNL     1       1.434   8.392  19.799  0.00  0.00    +0.000 A 
ATOM     13  H   UNL     1      -0.153   9.918  21.295  0.00  0.00    +0.000 HD
ATOM     14  H   UNL     1       2.454   9.349  16.944  0.00  0.00    +0.000 HD
ENDROOT
BRANCH   9  15
ATOM     15  C   UNL     1       3.580   4.706  19.417  0.00  0.00    +0.000 A 
ATOM     16  C   UNL     1       3.117   3.393  19.713  0.00  0.00    +0.000 A 
ATOM     17  C   UNL     1       4.145   2.513  19.461  0.00  0.00    +0.000 A 
ATOM     18  N   UNL     1       5.218   3.239  19.017  0.00  0.00    +0.000 N 
ATOM     19  C   UNL     1       4.885   4.569  18.983  0.00  0.00    +0.000 A 
ATOM     20  H   UNL     1       6.118   2.854  18.760  0.00  0.00    +0.000 HD
ENDBRANCH   9  15
BRANCH   2  21
ATOM     21  C   UNL     1      -1.364  12.120  21.266  0.00  0.00    +0.000 C 
ATOM     22  C   UNL     1      -1.095  11.592  22.657  0.00  0.00    +0.000 C 
ATOM     23  C   UNL     1      -0.695  12.995  22.304  0.00  0.00    +0.000 C 
ENDBRANCH   2  21
TORSDOF 2
ENDMDL
MODEL 8
REMARK VINA RESULT:      -6.8      1.863      2.800
REMARK  Name = 
REMARK  2 active torsions:
REMARK  status: ('A' for Active; 'I' for Inactive)
REMARK    1  A    between atoms: C_2  and  C_18
REMARK    2  A    between atoms: C_9  and  C_10
REMARK                            x       y       z     vdW  Elec       q    Type
REMARK                         _______ _______ _______ _____ _____    ______ ____
ROOT
ATOM      1  O   UNL     1       4.553   5.952  16.710  0.00  0.00    +0.000 OA
ATOM      2  C   UNL     1       4.215   5.504  17.797  0.00  0.00    +0.000 C 
ATOM      3  N   UNL     1       3.387   6.079  18.734  0.00  0.00    +0.000 N 
ATOM      4  C   UNL     1       2.738   7.288  18.561  0.00  0.00    +0.000 A 
ATOM      5  N   UNL     1       2.790   8.013  17.443  0.00  0.00    +0.000 NA
ATOM      6  N   UNL     1       2.032   9.083  17.691  0.00  0.00    +0.000 N 
ATOM      7  C   UNL     1       1.474   9.096  18.938  0.00  0.00    +0.000 A 
ATOM      8  C   UNL     1       0.642  10.030  19.566  0.00  0.00    +0.000 A 
ATOM      9  C   UNL     1       0.250   9.768  20.886  0.00  0.00    +0.000 A 
ATOM     10  C   UNL     1       0.680   8.591  21.518  0.00  0.00    +0.000 A 
ATOM     11  C   UNL     1       1.506   7.660  20.863  0.00  0.00    +0.000 A 
ATOM     12  C   UNL     1       1.917   7.925  19.544  0.00  0.00    +0.000 A 
ATOM     13  H   UNL     1       3.218   5.604  19.605  0.00  0.00    +0.000 HD
ATOM     14  H   UNL     1       1.938   9.778  16.960  0.00  0.00    +0.000 HD
ENDROOT
BRANCH   9  15
ATOM     15  C   UNL     1      -0.579  10.717  21.620  0.00  0.00    +0.000 A 
ATOM     16  C   UNL     1      -1.006  10.673  22.978  0.00  0.00    +0.000 A 
ATOM     17  C   UNL     1      -1.791  11.780  23.211  0.00  0.00    +0.000 A 
ATOM     18  N   UNL     1      -1.857  12.500  22.049  0.00  0.00    +0.000 N 
ATOM     19  C   UNL     1      -1.122  11.867  21.079  0.00  0.00    +0.000 A 
ATOM     20  H   UNL     1      -2.371  13.363  21.924  0.00  0.00    +0.000 HD
ENDBRANCH   9  15
BRANCH   2  21
ATOM     21  C   UNL     1       4.717   4.151  18.206  0.00  0.00    +0.000 C 
ATOM     22  C   UNL     1       4.085   3.472  19.401  0.00  0.00    +0.000 C 
ATOM     23  C   UNL     1       3.845   2.928  18.023  0.00  0.00    +0.000 C 
ENDBRANCH   2  21
TORSDOF 2
ENDMDL
MODEL 9
REMARK VINA RESULT:      -6.7      2.872      4.860
REMARK  Name = 
REMARK  2 active torsions:
REMARK  status: ('A' for Active; 'I' for Inactive)
REMARK    1  A    between atoms: C_2  and  C_18
REMARK    2  A    between atoms: C_9  and  C_10
REMARK                            x       y       z     vdW  Elec       q    Type
REMARK                         _______ _______ _______ _____ _____    ______ ____
ROOT
ATOM      1  O   UNL     1       2.765   7.753  18.150  0.00  0.00    +0.000 OA
ATOM      2  C   UNL     1       2.437   7.293  19.235  0.00  0.00    +0.000 C 
ATOM      3  N   UNL     1       1.650   7.874  20.202  0.00  0.00    +0.000 N 
ATOM      4  C   UNL     1       1.037   9.107  20.068  0.00  0.00    +0.000 A 
ATOM      5  N   UNL     1       1.088   9.853  18.964  0.00  0.00    +0.000 NA
ATOM      6  N   UNL     1       0.371  10.942  19.252  0.00  0.00    +0.000 N 
ATOM      7  C   UNL     1      -0.159  10.946  20.510  0.00  0.00    +0.000 A 
ATOM      8  C   UNL     1      -0.945  11.893  21.176  0.00  0.00    +0.000 A 
ATOM      9  C   UNL     1      -1.317  11.616  22.500  0.00  0.00    +0.000 A 
ATOM     10  C   UNL     1      -0.911  10.413  23.097  0.00  0.00    +0.000 A 
ATOM     11  C   UNL     1      -0.131   9.470  22.405  0.00  0.00    +0.000 A 
ATOM     12  C   UNL     1       0.259   9.749  21.082  0.00  0.00    +0.000 A 
ATOM     13  H   UNL     1       1.485   7.387  21.067  0.00  0.00    +0.000 HD
ATOM     14  H   UNL     1       0.283  11.654  18.537  0.00  0.00    +0.000 HD
ENDROOT
BRANCH   9  15
ATOM     15  C   UNL     1      -2.098  12.576  23.271  0.00  0.00    +0.000 A 
ATOM     16  C   UNL     1      -3.436  12.468  23.747  0.00  0.00    +0.000 A 
ATOM     17  C   UNL     1      -3.746  13.635  24.408  0.00  0.00    +0.000 A 
ATOM     18  N   UNL     1      -2.647  14.450  24.359  0.00  0.00    +0.000 N 
ATOM     19  C   UNL     1      -1.640  13.816  23.675  0.00  0.00    +0.000 A 
ATOM     20  H   UNL     1      -2.589  15.377  24.760  0.00  0.00    +0.000 HD
ENDBRANCH   9  15
BRANCH   2  21
ATOM     21  C   UNL     1       2.905   5.916  19.605  0.00  0.00    +0.000 C 
ATOM     22  C   UNL     1       2.074   5.103  20.573  0.00  0.00    +0.000 C 
ATOM     23  C   UNL     1       2.140   4.699  19.129  0.00  0.00    +0.000 C 
ENDBRANCH   2  21
TORSDOF 2
ENDMDL
