MODEL 1
REMARK VINA RESULT:      -8.4      0.000      0.000
REMARK  Name = 
REMARK  7 active torsions:
REMARK  status: ('A' for Active; 'I' for Inactive)
REMARK    1  A    between atoms: C_1  and  C_2
REMARK    2  A    between atoms: C_9  and  O_10
REMARK    3  A    between atoms: O_10  and  C_11
REMARK    4  A    between atoms: C_11  and  C_12
REMARK    5  A    between atoms: C_12  and  C_13
REMARK    6  A    between atoms: C_13  and  C_14
REMARK    7  A    between atoms: N_19  and  C_20
REMARK                            x       y       z     vdW  Elec       q    Type
REMARK                         _______ _______ _______ _____ _____    ______ ____
ROOT
ATOM      1  C   UNL     1       1.258   5.201  20.389  0.00  0.00    +0.000 C 
ENDROOT
BRANCH   1   2
ATOM      2  C   UNL     1       1.797   5.998  19.212  0.00  0.00    +0.000 C 
ATOM      3  O   UNL     1       2.109   5.443  18.159  0.00  0.00    +0.000 OA
ATOM      4  N   UNL     1       1.891   7.366  19.358  0.00  0.00    +0.000 N 
ATOM      5  C   UNL     1       2.331   8.165  18.208  0.00  0.00    +0.000 C 
ATOM      6  C   UNL     1       1.364   9.330  17.943  0.00  0.00    +0.000 C 
ATOM      7  N   UNL     1       1.241  10.130  19.173  0.00  0.00    +0.000 N 
ATOM      8  C   UNL     1       0.773   9.374  20.350  0.00  0.00    +0.000 C 
ATOM      9  C   UNL     1       1.677   8.144  20.590  0.00  0.00    +0.000 C 
BRANCH   7  10
ATOM     10  C   UNL     1       1.216  11.511  19.140  0.00  0.00    +0.000 A 
ATOM     11  C   UNL     1       2.134  12.261  18.386  0.00  0.00    +0.000 A 
ATOM     12  C   UNL     1       2.149  13.659  18.421  0.00  0.00    +0.000 A 
ATOM     13  C   UNL     1       1.234  14.329  19.218  0.00  0.00    +0.000 A 
ATOM     14  F   UNL     1       1.251  15.667  19.267  0.00  0.00    +0.000 F 
ATOM     15  C   UNL     1       0.306  13.628  19.971  0.00  0.00    +0.000 A 
ATOM     16  C   UNL     1       0.302  12.230  19.927  0.00  0.00    +0.000 A 
ENDBRANCH   7  10
ENDBRANCH   1   2
BRANCH   1  17
ATOM     17  C   UNL     1       1.246   3.692  20.127  0.00  0.00    +0.000 C 
BRANCH  17  18
ATOM     18  C   UNL     1       2.451   2.987  20.749  0.00  0.00    +0.000 C 
BRANCH  18  19
ATOM     19  O   UNL     1       3.156   2.267  19.734  0.00  0.00    +0.000 OA
BRANCH  19  28
ATOM     20  C   UNL     1       6.510   4.945  14.752  0.00  0.00    +0.000 C 
ATOM     21  C   UNL     1       6.547   5.165  16.237  0.00  0.00    +0.000 A 
ATOM     22  C   UNL     1       7.401   6.036  16.789  0.00  0.00    +0.000 A 
ATOM     23  C   UNL     1       7.487   6.282  18.240  0.00  0.00    +0.000 A 
ATOM     24  O   UNL     1       8.291   7.088  18.692  0.00  0.00    +0.000 OA
ATOM     25  O   UNL     1       6.630   5.555  19.045  0.00  0.00    +0.000 OA
ATOM     26  C   UNL     1       5.722   4.632  18.492  0.00  0.00    +0.000 A 
ATOM     27  C   UNL     1       4.913   3.954  19.408  0.00  0.00    +0.000 A 
ATOM     28  C   UNL     1       3.991   3.017  18.948  0.00  0.00    +0.000 A 
ATOM     29  C   UNL     1       3.887   2.791  17.575  0.00  0.00    +0.000 A 
ATOM     30  C   UNL     1       4.703   3.481  16.666  0.00  0.00    +0.000 A 
ATOM     31  C   UNL     1       5.643   4.413  17.117  0.00  0.00    +0.000 A 
ENDBRANCH  19  28
ENDBRANCH  18  19
ENDBRANCH  17  18
ENDBRANCH   1  17
TORSDOF 6
ENDMDL
MODEL 2
REMARK VINA RESULT:      -8.4      1.417      1.709
REMARK  Name = 
REMARK  7 active torsions:
REMARK  status: ('A' for Active; 'I' for Inactive)
REMARK    1  A    between atoms: C_1  and  C_2
REMARK    2  A    between atoms: C_9  and  O_10
REMARK    3  A    between atoms: O_10  and  C_11
REMARK    4  A    between atoms: C_11  and  C_12
REMARK    5  A    between atoms: C_12  and  C_13
REMARK    6  A    between atoms: C_13  and  C_14
REMARK    7  A    between atoms: N_19  and  C_20
REMARK                            x       y       z     vdW  Elec       q    Type
REMARK                         _______ _______ _______ _____ _____    ______ ____
ROOT
ATOM      1  C   UNL     1       1.769   5.333  20.855  0.00  0.00    +0.000 C 
ENDROOT
BRANCH   1   2
ATOM      2  C   UNL     1       1.916   6.477  19.864  0.00  0.00    +0.000 C 
ATOM      3  O   UNL     1       2.206   6.264  18.687  0.00  0.00    +0.000 OA
ATOM      4  N   UNL     1       1.678   7.755  20.325  0.00  0.00    +0.000 N 
ATOM      5  C   UNL     1       1.734   8.867  19.369  0.00  0.00    +0.000 C 
ATOM      6  C   UNL     1       0.475   9.744  19.469  0.00  0.00    +0.000 C 
ATOM      7  N   UNL     1       0.328  10.202  20.860  0.00  0.00    +0.000 N 
ATOM      8  C   UNL     1       0.239   9.116  21.855  0.00  0.00    +0.000 C 
ATOM      9  C   UNL     1       1.451   8.166  21.721  0.00  0.00    +0.000 C 
BRANCH   7  10
ATOM     10  C   UNL     1      -0.051  11.496  21.160  0.00  0.00    +0.000 A 
ATOM     11  C   UNL     1       0.280  12.586  20.338  0.00  0.00    +0.000 A 
ATOM     12  C   UNL     1      -0.042  13.900  20.692  0.00  0.00    +0.000 A 
ATOM     13  C   UNL     1      -0.707  14.140  21.884  0.00  0.00    +0.000 A 
ATOM     14  F   UNL     1      -1.006  15.397  22.235  0.00  0.00    +0.000 F 
ATOM     15  C   UNL     1      -1.059  13.094  22.720  0.00  0.00    +0.000 A 
ATOM     16  C   UNL     1      -0.732  11.784  22.355  0.00  0.00    +0.000 A 
ENDBRANCH   7  10
ENDBRANCH   1   2
BRANCH   1  17
ATOM     17  C   UNL     1       1.066   4.114  20.251  0.00  0.00    +0.000 C 
BRANCH  17  18
ATOM     18  C   UNL     1       1.698   2.798  20.703  0.00  0.00    +0.000 C 
BRANCH  18  19
ATOM     19  O   UNL     1       2.304   2.152  19.580  0.00  0.00    +0.000 OA
BRANCH  19  28
ATOM     20  C   UNL     1       5.887   5.259  15.023  0.00  0.00    +0.000 C 
ATOM     21  C   UNL     1       6.048   5.097  16.508  0.00  0.00    +0.000 A 
ATOM     22  C   UNL     1       7.098   5.623  17.153  0.00  0.00    +0.000 A 
ATOM     23  C   UNL     1       7.311   5.483  18.605  0.00  0.00    +0.000 A 
ATOM     24  O   UNL     1       8.292   5.981  19.145  0.00  0.00    +0.000 OA
ATOM     25  O   UNL     1       6.362   4.764  19.306  0.00  0.00    +0.000 OA
ATOM     26  C   UNL     1       5.249   4.201  18.654  0.00  0.00    +0.000 A 
ATOM     27  C   UNL     1       4.363   3.491  19.468  0.00  0.00    +0.000 A 
ATOM     28  C   UNL     1       3.238   2.894  18.904  0.00  0.00    +0.000 A 
ATOM     29  C   UNL     1       3.016   3.036  17.533  0.00  0.00    +0.000 A 
ATOM     30  C   UNL     1       3.911   3.755  16.728  0.00  0.00    +0.000 A 
ATOM     31  C   UNL     1       5.052   4.345  17.280  0.00  0.00    +0.000 A 
ENDBRANCH  19  28
ENDBRANCH  18  19
ENDBRANCH  17  18
ENDBRANCH   1  17
TORSDOF 6
ENDMDL
MODEL 3
REMARK VINA RESULT:      -7.8      1.732      2.347
REMARK  Name = 
REMARK  7 active torsions:
REMARK  status: ('A' for Active; 'I' for Inactive)
REMARK    1  A    between atoms: C_1  and  C_2
REMARK    2  A    between atoms: C_9  and  O_10
REMARK    3  A    between atoms: O_10  and  C_11
REMARK    4  A    between atoms: C_11  and  C_12
REMARK    5  A    between atoms: C_12  and  C_13
REMARK    6  A    between atoms: C_13  and  C_14
REMARK    7  A    between atoms: N_19  and  C_20
REMARK                            x       y       z     vdW  Elec       q    Type
REMARK                         _______ _______ _______ _____ _____    ______ ____
ROOT
ATOM      1  C   UNL     1       1.563   4.996  20.359  0.00  0.00    +0.000 C 
ENDROOT
BRANCH   1   2
ATOM      2  C   UNL     1       1.930   6.209  19.519  0.00  0.00    +0.000 C 
ATOM      3  O   UNL     1       2.383   6.080  18.381  0.00  0.00    +0.000 OA
ATOM      4  N   UNL     1       1.706   7.455  20.065  0.00  0.00    +0.000 N 
ATOM      5  C   UNL     1       1.975   8.640  19.243  0.00  0.00    +0.000 C 
ATOM      6  C   UNL     1       0.773   9.598  19.245  0.00  0.00    +0.000 C 
ATOM      7  N   UNL     1       0.444   9.941  20.639  0.00  0.00    +0.000 N 
ATOM      8  C   UNL     1       0.137   8.781  21.497  0.00  0.00    +0.000 C 
ATOM      9  C   UNL     1       1.294   7.757  21.447  0.00  0.00    +0.000 C 
BRANCH   7  10
ATOM     10  C   UNL     1       0.105  11.228  21.008  0.00  0.00    +0.000 A 
ATOM     11  C   UNL     1       0.463  12.349  20.240  0.00  0.00    +0.000 A 
ATOM     12  C   UNL     1       0.182  13.652  20.663  0.00  0.00    +0.000 A 
ATOM     13  C   UNL     1      -0.469  13.850  21.871  0.00  0.00    +0.000 A 
ATOM     14  F   UNL     1      -0.728  15.095  22.288  0.00  0.00    +0.000 F 
ATOM     15  C   UNL     1      -0.846  12.772  22.655  0.00  0.00    +0.000 A 
ATOM     16  C   UNL     1      -0.559  11.474  22.220  0.00  0.00    +0.000 A 
ENDBRANCH   7  10
ENDBRANCH   1   2
BRANCH   1  17
ATOM     17  C   UNL     1       1.190   3.778  19.509  0.00  0.00    +0.000 C 
BRANCH  17  18
ATOM     18  C   UNL     1       1.901   2.507  19.973  0.00  0.00    +0.000 C 
BRANCH  18  19
ATOM     19  O   UNL     1       2.719   2.007  18.912  0.00  0.00    +0.000 OA
BRANCH  19  28
ATOM     20  C   UNL     1       7.800   6.175  18.673  0.00  0.00    +0.000 C 
ATOM     21  C   UNL     1       6.986   5.501  17.605  0.00  0.00    +0.000 A 
ATOM     22  C   UNL     1       7.225   5.722  16.306  0.00  0.00    +0.000 A 
ATOM     23  C   UNL     1       6.451   5.098  15.219  0.00  0.00    +0.000 A 
ATOM     24  O   UNL     1       6.710   5.338  14.046  0.00  0.00    +0.000 OA
ATOM     25  O   UNL     1       5.429   4.246  15.595  0.00  0.00    +0.000 OA
ATOM     26  C   UNL     1       5.155   3.995  16.953  0.00  0.00    +0.000 A 
ATOM     27  C   UNL     1       4.093   3.122  17.207  0.00  0.00    +0.000 A 
ATOM     28  C   UNL     1       3.748   2.824  18.522  0.00  0.00    +0.000 A 
ATOM     29  C   UNL     1       4.488   3.395  19.559  0.00  0.00    +0.000 A 
ATOM     30  C   UNL     1       5.553   4.266  19.291  0.00  0.00    +0.000 A 
ATOM     31  C   UNL     1       5.899   4.586  17.974  0.00  0.00    +0.000 A 
ENDBRANCH  19  28
ENDBRANCH  18  19
ENDBRANCH  17  18
ENDBRANCH   1  17
TORSDOF 6
ENDMDL
MODEL 4
REMARK VINA RESULT:      -7.7      1.916      2.307
REMARK  Name = 
REMARK  7 active torsions:
REMARK  status: ('A' for Active; 'I' for Inactive)
REMARK    1  A    between atoms: C_1  and  C_2
REMARK    2  A    between atoms: C_9  and  O_10
REMARK    3  A    between atoms: O_10  and  C_11
REMARK    4  A    between atoms: C_11  and  C_12
REMARK    5  A    between atoms: C_12  and  C_13
REMARK    6  A    between atoms: C_13  and  C_14
REMARK    7  A    between atoms: N_19  and  C_20
REMARK                            x       y       z     vdW  Elec       q    Type
REMARK                         _______ _______ _______ _____ _____    ______ ____
ROOT
ATOM      1  C   UNL     1       1.798   5.707  20.862  0.00  0.00    +0.000 C 
ENDROOT
BRANCH   1   2
ATOM      2  C   UNL     1       1.805   6.944  19.978  0.00  0.00    +0.000 C 
ATOM      3  O   UNL     1       2.049   6.864  18.774  0.00  0.00    +0.000 OA
ATOM      4  N   UNL     1       1.494   8.152  20.568  0.00  0.00    +0.000 N 
ATOM      5  C   UNL     1       1.414   9.347  19.721  0.00  0.00    +0.000 C 
ATOM      6  C   UNL     1       0.098  10.105  19.959  0.00  0.00    +0.000 C 
ATOM      7  N   UNL     1      -0.011  10.421  21.393  0.00  0.00    +0.000 N 
ATOM      8  C   UNL     1       0.035   9.246  22.283  0.00  0.00    +0.000 C 
ATOM      9  C   UNL     1       1.308   8.414  22.006  0.00  0.00    +0.000 C 
BRANCH   7  10
ATOM     10  C   UNL     1      -0.472  11.647  21.831  0.00  0.00    +0.000 A 
ATOM     11  C   UNL     1       0.099  12.860  21.411  0.00  0.00    +0.000 A 
ATOM     12  C   UNL     1      -0.325  14.091  21.921  0.00  0.00    +0.000 A 
ATOM     13  C   UNL     1      -1.339  14.123  22.866  0.00  0.00    +0.000 A 
ATOM     14  F   UNL     1      -1.741  15.297  23.368  0.00  0.00    +0.000 F 
ATOM     15  C   UNL     1      -1.935  12.951  23.302  0.00  0.00    +0.000 A 
ATOM     16  C   UNL     1      -1.502  11.726  22.784  0.00  0.00    +0.000 A 
ENDBRANCH   7  10
ENDBRANCH   1   2
BRANCH   1  17
ATOM     17  C   UNL     1       1.010   4.546  20.248  0.00  0.00    +0.000 C 
BRANCH  17  18
ATOM     18  C   UNL     1       1.804   3.239  20.254  0.00  0.00    +0.000 C 
BRANCH  18  19
ATOM     19  O   UNL     1       3.189   3.527  20.464  0.00  0.00    +0.000 OA
BRANCH  19  28
ATOM     20  C   UNL     1       5.835   3.836  14.451  0.00  0.00    +0.000 C 
ATOM     21  C   UNL     1       6.039   4.652  15.696  0.00  0.00    +0.000 A 
ATOM     22  C   UNL     1       6.921   5.660  15.728  0.00  0.00    +0.000 A 
ATOM     23  C   UNL     1       7.169   6.484  16.924  0.00  0.00    +0.000 A 
ATOM     24  O   UNL     1       7.991   7.392  16.900  0.00  0.00    +0.000 OA
ATOM     25  O   UNL     1       6.439   6.172  18.056  0.00  0.00    +0.000 OA
ATOM     26  C   UNL     1       5.505   5.119  18.050  0.00  0.00    +0.000 A 
ATOM     27  C   UNL     1       4.834   4.896  19.256  0.00  0.00    +0.000 A 
ATOM     28  C   UNL     1       3.898   3.868  19.342  0.00  0.00    +0.000 A 
ATOM     29  C   UNL     1       3.641   3.094  18.209  0.00  0.00    +0.000 A 
ATOM     30  C   UNL     1       4.319   3.331  17.004  0.00  0.00    +0.000 A 
ATOM     31  C   UNL     1       5.272   4.349  16.910  0.00  0.00    +0.000 A 
ENDBRANCH  19  28
ENDBRANCH  18  19
ENDBRANCH  17  18
ENDBRANCH   1  17
TORSDOF 6
ENDMDL
MODEL 5
REMARK VINA RESULT:      -7.6      2.866      3.565
REMARK  Name = 
REMARK  7 active torsions:
REMARK  status: ('A' for Active; 'I' for Inactive)
REMARK    1  A    between atoms: C_1  and  C_2
REMARK    2  A    between atoms: C_9  and  O_10
REMARK    3  A    between atoms: O_10  and  C_11
REMARK    4  A    between atoms: C_11  and  C_12
REMARK    5  A    between atoms: C_12  and  C_13
REMARK    6  A    between atoms: C_13  and  C_14
REMARK    7  A    between atoms: N_19  and  C_20
REMARK                            x       y       z     vdW  Elec       q    Type
REMARK                         _______ _______ _______ _____ _____    ______ ____
ROOT
ATOM      1  C   UNL     1       1.619   7.049  21.163  0.00  0.00    +0.000 C 
ENDROOT
BRANCH   1   2
ATOM      2  C   UNL     1       1.444   8.393  20.474  0.00  0.00    +0.000 C 
ATOM      3  O   UNL     1       1.756   8.547  19.293  0.00  0.00    +0.000 OA
ATOM      4  N   UNL     1       0.890   9.420  21.210  0.00  0.00    +0.000 N 
ATOM      5  C   UNL     1       0.635  10.702  20.544  0.00  0.00    +0.000 C 
ATOM      6  C   UNL     1      -0.807  11.175  20.791  0.00  0.00    +0.000 C 
ATOM      7  N   UNL     1      -1.041  11.237  22.243  0.00  0.00    +0.000 N 
ATOM      8  C   UNL     1      -0.824   9.961  22.952  0.00  0.00    +0.000 C 
ATOM      9  C   UNL     1       0.590   9.416  22.652  0.00  0.00    +0.000 C 
BRANCH   7  10
ATOM     10  C   UNL     1      -1.738  12.280  22.821  0.00  0.00    +0.000 A 
ATOM     11  C   UNL     1      -2.842  12.070  23.664  0.00  0.00    +0.000 A 
ATOM     12  C   UNL     1      -3.588  13.135  24.180  0.00  0.00    +0.000 A 
ATOM     13  C   UNL     1      -3.232  14.434  23.857  0.00  0.00    +0.000 A 
ATOM     14  F   UNL     1      -3.950  15.457  24.337  0.00  0.00    +0.000 F 
ATOM     15  C   UNL     1      -2.146  14.686  23.035  0.00  0.00    +0.000 A 
ATOM     16  C   UNL     1      -1.408  13.613  22.525  0.00  0.00    +0.000 A 
ENDBRANCH   7  10
ENDBRANCH   1   2
BRANCH   1  17
ATOM     17  C   UNL     1       1.877   5.907  20.176  0.00  0.00    +0.000 C 
BRANCH  17  18
ATOM     18  C   UNL     1       1.155   4.621  20.576  0.00  0.00    +0.000 C 
BRANCH  18  19
ATOM     19  O   UNL     1       1.548   3.563  19.698  0.00  0.00    +0.000 OA
BRANCH  19  28
ATOM     20  C   UNL     1       5.949   4.347  14.876  0.00  0.00    +0.000 C 
ATOM     21  C   UNL     1       6.058   4.412  16.372  0.00  0.00    +0.000 A 
ATOM     22  C   UNL     1       7.231   4.647  16.974  0.00  0.00    +0.000 A 
ATOM     23  C   UNL     1       7.397   4.708  18.437  0.00  0.00    +0.000 A 
ATOM     24  O   UNL     1       8.495   4.923  18.935  0.00  0.00    +0.000 OA
ATOM     25  O   UNL     1       6.262   4.504  19.199  0.00  0.00    +0.000 OA
ATOM     26  C   UNL     1       5.015   4.255  18.594  0.00  0.00    +0.000 A 
ATOM     27  C   UNL     1       3.944   4.058  19.469  0.00  0.00    +0.000 A 
ATOM     28  C   UNL     1       2.676   3.797  18.957  0.00  0.00    +0.000 A 
ATOM     29  C   UNL     1       2.504   3.756  17.572  0.00  0.00    +0.000 A 
ATOM     30  C   UNL     1       3.587   3.960  16.704  0.00  0.00    +0.000 A 
ATOM     31  C   UNL     1       4.868   4.206  17.208  0.00  0.00    +0.000 A 
ENDBRANCH  19  28
ENDBRANCH  18  19
ENDBRANCH  17  18
ENDBRANCH   1  17
TORSDOF 6
ENDMDL
MODEL 6
REMARK VINA RESULT:      -7.6      5.782      7.641
REMARK  Name = 
REMARK  7 active torsions:
REMARK  status: ('A' for Active; 'I' for Inactive)
REMARK    1  A    between atoms: C_1  and  C_2
REMARK    2  A    between atoms: C_9  and  O_10
REMARK    3  A    between atoms: O_10  and  C_11
REMARK    4  A    between atoms: C_11  and  C_12
REMARK    5  A    between atoms: C_12  and  C_13
REMARK    6  A    between atoms: C_13  and  C_14
REMARK    7  A    between atoms: N_19  and  C_20
REMARK                            x       y       z     vdW  Elec       q    Type
REMARK                         _______ _______ _______ _____ _____    ______ ____
ROOT
ATOM      1  C   UNL     1       9.271   9.790  19.034  0.00  0.00    +0.000 C 
ENDROOT
BRANCH   1   2
ATOM      2  C   UNL     1       9.843  11.170  18.749  0.00  0.00    +0.000 C 
ATOM      3  O   UNL     1      10.290  11.455  17.638  0.00  0.00    +0.000 OA
ATOM      4  N   UNL     1       9.809  12.098  19.768  0.00  0.00    +0.000 N 
ATOM      5  C   UNL     1      10.278  13.461  19.492  0.00  0.00    +0.000 C 
ATOM      6  C   UNL     1       9.244  14.504  19.945  0.00  0.00    +0.000 C 
ATOM      7  N   UNL     1       8.948  14.286  21.371  0.00  0.00    +0.000 N 
ATOM      8  C   UNL     1       8.444  12.937  21.692  0.00  0.00    +0.000 C 
ATOM      9  C   UNL     1       9.424  11.862  21.170  0.00  0.00    +0.000 C 
BRANCH   7  10
ATOM     10  C   UNL     1       8.810  15.341  22.251  0.00  0.00    +0.000 A 
ATOM     11  C   UNL     1       7.838  16.341  22.081  0.00  0.00    +0.000 A 
ATOM     12  C   UNL     1       7.759  17.446  22.935  0.00  0.00    +0.000 A 
ATOM     13  C   UNL     1       8.660  17.563  23.981  0.00  0.00    +0.000 A 
ATOM     14  F   UNL     1       8.599  18.625  24.793  0.00  0.00    +0.000 F 
ATOM     15  C   UNL     1       9.630  16.596  24.190  0.00  0.00    +0.000 A 
ATOM     16  C   UNL     1       9.698  15.496  23.329  0.00  0.00    +0.000 A 
ENDBRANCH   7  10
ENDBRANCH   1   2
BRANCH   1  17
ATOM     17  C   UNL     1       8.199   9.372  18.023  0.00  0.00    +0.000 C 
BRANCH  17  18
ATOM     18  C   UNL     1       8.106   7.854  17.871  0.00  0.00    +0.000 C 
BRANCH  18  19
ATOM     19  O   UNL     1       7.103   7.535  16.903  0.00  0.00    +0.000 OA
BRANCH  19  28
ATOM     20  C   UNL     1       1.592   4.094  17.919  0.00  0.00    +0.000 C 
ATOM     21  C   UNL     1       2.993   3.948  18.441  0.00  0.00    +0.000 A 
ATOM     22  C   UNL     1       3.313   2.979  19.309  0.00  0.00    +0.000 A 
ATOM     23  C   UNL     1       4.667   2.798  19.861  0.00  0.00    +0.000 A 
ATOM     24  O   UNL     1       4.905   1.897  20.655  0.00  0.00    +0.000 OA
ATOM     25  O   UNL     1       5.633   3.695  19.444  0.00  0.00    +0.000 OA
ATOM     26  C   UNL     1       5.325   4.723  18.533  0.00  0.00    +0.000 A 
ATOM     27  C   UNL     1       6.383   5.570  18.192  0.00  0.00    +0.000 A 
ATOM     28  C   UNL     1       6.165   6.620  17.303  0.00  0.00    +0.000 A 
ATOM     29  C   UNL     1       4.891   6.788  16.759  0.00  0.00    +0.000 A 
ATOM     30  C   UNL     1       3.838   5.928  17.106  0.00  0.00    +0.000 A 
ATOM     31  C   UNL     1       4.041   4.881  18.010  0.00  0.00    +0.000 A 
ENDBRANCH  19  28
ENDBRANCH  18  19
ENDBRANCH  17  18
ENDBRANCH   1  17
TORSDOF 6
ENDMDL
MODEL 7
REMARK VINA RESULT:      -7.5      2.651      3.580
REMARK  Name = 
REMARK  7 active torsions:
REMARK  status: ('A' for Active; 'I' for Inactive)
REMARK    1  A    between atoms: C_1  and  C_2
REMARK    2  A    between atoms: C_9  and  O_10
REMARK    3  A    between atoms: O_10  and  C_11
REMARK    4  A    between atoms: C_11  and  C_12
REMARK    5  A    between atoms: C_12  and  C_13
REMARK    6  A    between atoms: C_13  and  C_14
REMARK    7  A    between atoms: N_19  and  C_20
REMARK                            x       y       z     vdW  Elec       q    Type
REMARK                         _______ _______ _______ _____ _____    ______ ____
ROOT
ATOM      1  C   UNL     1       2.371   6.838  19.347  0.00  0.00    +0.000 C 
ENDROOT
BRANCH   1   2
ATOM      2  C   UNL     1       2.094   8.206  18.743  0.00  0.00    +0.000 C 
ATOM      3  O   UNL     1       2.401   8.460  17.578  0.00  0.00    +0.000 OA
ATOM      4  N   UNL     1       1.457   9.137  19.537  0.00  0.00    +0.000 N 
ATOM      5  C   UNL     1       1.105  10.435  18.951  0.00  0.00    +0.000 C 
ATOM      6  C   UNL     1      -0.370  10.777  19.211  0.00  0.00    +0.000 C 
ATOM      7  N   UNL     1      -0.618  10.727  20.661  0.00  0.00    +0.000 N 
ATOM      8  C   UNL     1      -0.306   9.429  21.290  0.00  0.00    +0.000 C 
ATOM      9  C   UNL     1       1.149   9.016  20.972  0.00  0.00    +0.000 C 
BRANCH   7  10
ATOM     10  C   UNL     1      -1.399  11.672  21.296  0.00  0.00    +0.000 A 
ATOM     11  C   UNL     1      -2.216  12.571  20.589  0.00  0.00    +0.000 A 
ATOM     12  C   UNL     1      -2.942  13.574  21.238  0.00  0.00    +0.000 A 
ATOM     13  C   UNL     1      -2.860  13.690  22.616  0.00  0.00    +0.000 A 
ATOM     14  F   UNL     1      -3.542  14.657  23.242  0.00  0.00    +0.000 F 
ATOM     15  C   UNL     1      -2.073  12.820  23.353  0.00  0.00    +0.000 A 
ATOM     16  C   UNL     1      -1.351  11.821  22.692  0.00  0.00    +0.000 A 
ENDBRANCH   7  10
ENDBRANCH   1   2
BRANCH   1  17
ATOM     17  C   UNL     1       3.331   5.999  18.498  0.00  0.00    +0.000 C 
BRANCH  17  18
ATOM     18  C   UNL     1       4.014   4.900  19.311  0.00  0.00    +0.000 C 
BRANCH  18  19
ATOM     19  O   UNL     1       5.389   4.811  18.928  0.00  0.00    +0.000 OA
BRANCH  19  28
ATOM     20  C   UNL     1       5.265   3.049  12.593  0.00  0.00    +0.000 C 
ATOM     21  C   UNL     1       6.153   3.975  13.374  0.00  0.00    +0.000 A 
ATOM     22  C   UNL     1       7.173   4.616  12.789  0.00  0.00    +0.000 A 
ATOM     23  C   UNL     1       8.082   5.525  13.510  0.00  0.00    +0.000 A 
ATOM     24  O   UNL     1       9.003   6.084  12.926  0.00  0.00    +0.000 OA
ATOM     25  O   UNL     1       7.843   5.700  14.860  0.00  0.00    +0.000 OA
ATOM     26  C   UNL     1       6.778   5.039  15.501  0.00  0.00    +0.000 A 
ATOM     27  C   UNL     1       6.643   5.291  16.869  0.00  0.00    +0.000 A 
ATOM     28  C   UNL     1       5.621   4.672  17.584  0.00  0.00    +0.000 A 
ATOM     29  C   UNL     1       4.742   3.824  16.907  0.00  0.00    +0.000 A 
ATOM     30  C   UNL     1       4.887   3.584  15.533  0.00  0.00    +0.000 A 
ATOM     31  C   UNL     1       5.919   4.187  14.808  0.00  0.00    +0.000 A 
ENDBRANCH  19  28
ENDBRANCH  18  19
ENDBRANCH  17  18
ENDBRANCH   1  17
TORSDOF 6
ENDMDL
MODEL 8
REMARK VINA RESULT:      -7.5      2.613      4.733
REMARK  Name = 
REMARK  7 active torsions:
REMARK  status: ('A' for Active; 'I' for Inactive)
REMARK    1  A    between atoms: C_1  and  C_2
REMARK    2  A    between atoms: C_9  and  O_10
REMARK    3  A    between atoms: O_10  and  C_11
REMARK    4  A    between atoms: C_11  and  C_12
REMARK    5  A    between atoms: C_12  and  C_13
REMARK    6  A    between atoms: C_13  and  C_14
REMARK    7  A    between atoms: N_19  and  C_20
REMARK                            x       y       z     vdW  Elec       q    Type
REMARK                         _______ _______ _______ _____ _____    ______ ____
ROOT
ATOM      1  C   UNL     1      -0.116   9.706  22.845  0.00  0.00    +0.000 C 
ENDROOT
BRANCH   1   2
ATOM      2  C   UNL     1      -0.862  10.993  22.532  0.00  0.00    +0.000 C 
ATOM      3  O   UNL     1      -1.863  11.319  23.171  0.00  0.00    +0.000 OA
ATOM      4  N   UNL     1      -0.357  11.797  21.532  0.00  0.00    +0.000 N 
ATOM      5  C   UNL     1      -1.011  13.084  21.268  0.00  0.00    +0.000 C 
ATOM      6  C   UNL     1       0.013  14.229  21.241  0.00  0.00    +0.000 C 
ATOM      7  N   UNL     1       1.053  13.910  20.249  0.00  0.00    +0.000 N 
ATOM      8  C   UNL     1       1.759  12.638  20.491  0.00  0.00    +0.000 C 
ATOM      9  C   UNL     1       0.746  11.477  20.609  0.00  0.00    +0.000 C 
BRANCH   7  10
ATOM     10  C   UNL     1       1.558  14.870  19.395  0.00  0.00    +0.000 A 
ATOM     11  C   UNL     1       0.904  16.093  19.167  0.00  0.00    +0.000 A 
ATOM     12  C   UNL     1       1.385  17.025  18.241  0.00  0.00    +0.000 A 
ATOM     13  C   UNL     1       2.540  16.742  17.528  0.00  0.00    +0.000 A 
ATOM     14  F   UNL     1       2.998  17.624  16.632  0.00  0.00    +0.000 F 
ATOM     15  C   UNL     1       3.220  15.552  17.729  0.00  0.00    +0.000 A 
ATOM     16  C   UNL     1       2.729  14.628  18.657  0.00  0.00    +0.000 A 
ENDBRANCH   7  10
ENDBRANCH   1   2
BRANCH   1  17
ATOM     17  C   UNL     1      -0.291   8.641  21.758  0.00  0.00    +0.000 C 
BRANCH  17  18
ATOM     18  C   UNL     1       1.010   7.895  21.463  0.00  0.00    +0.000 C 
BRANCH  18  19
ATOM     19  O   UNL     1       1.530   8.328  20.203  0.00  0.00    +0.000 OA
BRANCH  19  28
ATOM     20  C   UNL     1       5.043   5.037  15.723  0.00  0.00    +0.000 C 
ATOM     21  C   UNL     1       4.354   4.611  16.988  0.00  0.00    +0.000 A 
ATOM     22  C   UNL     1       4.362   3.332  17.387  0.00  0.00    +0.000 A 
ATOM     23  C   UNL     1       3.692   2.859  18.611  0.00  0.00    +0.000 A 
ATOM     24  O   UNL     1       3.727   1.676  18.928  0.00  0.00    +0.000 OA
ATOM     25  O   UNL     1       3.027   3.810  19.363  0.00  0.00    +0.000 OA
ATOM     26  C   UNL     1       3.002   5.161  18.968  0.00  0.00    +0.000 A 
ATOM     27  C   UNL     1       2.292   6.025  19.806  0.00  0.00    +0.000 A 
ATOM     28  C   UNL     1       2.210   7.378  19.486  0.00  0.00    +0.000 A 
ATOM     29  C   UNL     1       2.857   7.841  18.339  0.00  0.00    +0.000 A 
ATOM     30  C   UNL     1       3.569   6.963  17.509  0.00  0.00    +0.000 A 
ATOM     31  C   UNL     1       3.646   5.600  17.811  0.00  0.00    +0.000 A 
ENDBRANCH  19  28
ENDBRANCH  18  19
ENDBRANCH  17  18
ENDBRANCH   1  17
TORSDOF 6
ENDMDL
MODEL 9
REMARK VINA RESULT:      -7.5      2.346      3.054
REMARK  Name = 
REMARK  7 active torsions:
REMARK  status: ('A' for Active; 'I' for Inactive)
REMARK    1  A    between atoms: C_1  and  C_2
REMARK    2  A    between atoms: C_9  and  O_10
REMARK    3  A    between atoms: O_10  and  C_11
REMARK    4  A    between atoms: C_11  and  C_12
REMARK    5  A    between atoms: C_12  and  C_13
REMARK    6  A    between atoms: C_13  and  C_14
REMARK    7  A    between atoms: N_19  and  C_20
REMARK                            x       y       z     vdW  Elec       q    Type
REMARK                         _______ _______ _______ _____ _____    ______ ____
ROOT
ATOM      1  C   UNL     1       2.021   6.052  20.648  0.00  0.00    +0.000 C 
ENDROOT
BRANCH   1   2
ATOM      2  C   UNL     1       1.882   7.278  19.760  0.00  0.00    +0.000 C 
ATOM      3  O   UNL     1       2.178   7.235  18.566  0.00  0.00    +0.000 OA
ATOM      4  N   UNL     1       1.382   8.428  20.334  0.00  0.00    +0.000 N 
ATOM      5  C   UNL     1       1.161   9.600  19.480  0.00  0.00    +0.000 C 
ATOM      6  C   UNL     1      -0.257  10.163  19.669  0.00  0.00    +0.000 C 
ATOM      7  N   UNL     1      -0.460  10.459  21.096  0.00  0.00    +0.000 N 
ATOM      8  C   UNL     1      -0.278   9.301  21.993  0.00  0.00    +0.000 C 
ATOM      9  C   UNL     1       1.109   8.660  21.763  0.00  0.00    +0.000 C 
BRANCH   7  10
ATOM     10  C   UNL     1      -1.107  11.606  21.513  0.00  0.00    +0.000 A 
ATOM     11  C   UNL     1      -1.787  12.452  20.621  0.00  0.00    +0.000 A 
ATOM     12  C   UNL     1      -2.371  13.651  21.043  0.00  0.00    +0.000 A 
ATOM     13  C   UNL     1      -2.284  14.018  22.376  0.00  0.00    +0.000 A 
ATOM     14  F   UNL     1      -2.830  15.171  22.783  0.00  0.00    +0.000 F 
ATOM     15  C   UNL     1      -1.630  13.209  23.290  0.00  0.00    +0.000 A 
ATOM     16  C   UNL     1      -1.050  12.013  22.856  0.00  0.00    +0.000 A 
ENDBRANCH   7  10
ENDBRANCH   1   2
BRANCH   1  17
ATOM     17  C   UNL     1       0.948   4.995  20.369  0.00  0.00    +0.000 C 
BRANCH  17  18
ATOM     18  C   UNL     1       1.426   3.582  20.703  0.00  0.00    +0.000 C 
BRANCH  18  19
ATOM     19  O   UNL     1       1.784   2.904  19.495  0.00  0.00    +0.000 OA
BRANCH  19  28
ATOM     20  C   UNL     1       7.871   5.099  18.322  0.00  0.00    +0.000 C 
ATOM     21  C   UNL     1       6.755   4.662  17.416  0.00  0.00    +0.000 A 
ATOM     22  C   UNL     1       6.889   4.697  16.084  0.00  0.00    +0.000 A 
ATOM     23  C   UNL     1       5.823   4.292  15.151  0.00  0.00    +0.000 A 
ATOM     24  O   UNL     1       5.996   4.347  13.939  0.00  0.00    +0.000 OA
ATOM     25  O   UNL     1       4.635   3.862  15.712  0.00  0.00    +0.000 OA
ATOM     26  C   UNL     1       4.467   3.815  17.109  0.00  0.00    +0.000 A 
ATOM     27  C   UNL     1       3.220   3.369  17.556  0.00  0.00    +0.000 A 
ATOM     28  C   UNL     1       2.965   3.299  18.923  0.00  0.00    +0.000 A 
ATOM     29  C   UNL     1       3.974   3.661  19.817  0.00  0.00    +0.000 A 
ATOM     30  C   UNL     1       5.223   4.103  19.355  0.00  0.00    +0.000 A 
ATOM     31  C   UNL     1       5.485   4.193  17.985  0.00  0.00    +0.000 A 
ENDBRANCH  19  28
ENDBRANCH  18  19
ENDBRANCH  17  18
ENDBRANCH   1  17
TORSDOF 6
ENDMDL
