MODEL 1
REMARK VINA RESULT:      -6.4      0.000      0.000
REMARK  Name = 
REMARK  8 active torsions:
REMARK  status: ('A' for Active; 'I' for Inactive)
REMARK    1  A    between atoms: C_1  and  O_2
REMARK    2  A    between atoms: O_2  and  C_3
REMARK    3  A    between atoms: C_6  and  C_7
REMARK    4  A    between atoms: C_7  and  O_9
REMARK    5  A    between atoms: O_9  and  C_10
REMARK    6  A    between atoms: C_10  and  C_11
REMARK    7  A    between atoms: C_11  and  N_12
REMARK    8  A    between atoms: N_12  and  C_13
REMARK                            x       y       z     vdW  Elec       q    Type
REMARK                         _______ _______ _______ _____ _____    ______ ____
ROOT
ATOM      1  C   UNL     1       7.004   6.069  18.478  0.00  0.00    +0.000 C 
ATOM      2  O   UNL     1       7.998   6.781  18.552  0.00  0.00    +0.000 OA
ENDROOT
BRANCH   1   6
ATOM      3  C   UNL     1       5.778   4.597  14.616  0.00  0.00    +0.000 A 
ATOM      4  C   UNL     1       5.237   5.788  15.137  0.00  0.00    +0.000 A 
ATOM      5  C   UNL     1       5.628   6.253  16.393  0.00  0.00    +0.000 A 
ATOM      6  C   UNL     1       6.567   5.543  17.160  0.00  0.00    +0.000 A 
ATOM      7  C   UNL     1       7.111   4.354  16.639  0.00  0.00    +0.000 A 
ATOM      8  C   UNL     1       6.718   3.889  15.377  0.00  0.00    +0.000 A 
BRANCH   3  10
ATOM      9  C   UNL     1       6.277   3.514  12.495  0.00  0.00    +0.000 C 
ATOM     10  O   UNL     1       5.419   4.106  13.401  0.00  0.00    +0.000 OA
ENDBRANCH   3  10
ENDBRANCH   1   6
BRANCH   1  11
ATOM     11  O   UNL     1       6.372   5.685  19.617  0.00  0.00    +0.000 OA
BRANCH  11  12
ATOM     12  C   UNL     1       5.377   4.726  19.617  0.00  0.00    +0.000 C 
BRANCH  12  13
ATOM     13  C   UNL     1       3.954   5.336  19.641  0.00  0.00    +0.000 C 
BRANCH  13  14
ATOM     14  N   UNL     1       2.909   4.502  18.951  0.00  0.00    +0.000 N 
ATOM     15  C   UNL     1       2.232   5.320  17.908  0.00  0.00    +0.000 C 
ATOM     16  C   UNL     1       3.530   3.278  18.360  0.00  0.00    +0.000 C 
ATOM     17  C   UNL     1       2.480   2.267  17.871  0.00  0.00    +0.000 C 
ATOM     18  O   UNL     1       1.635   1.874  18.931  0.00  0.00    +0.000 OA
ATOM     19  C   UNL     1       0.931   3.002  19.413  0.00  0.00    +0.000 C 
ATOM     20  C   UNL     1       1.912   4.058  19.974  0.00  0.00    +0.000 C 
ENDBRANCH  13  14
ENDBRANCH  12  13
ENDBRANCH  11  12
ENDBRANCH   1  11
TORSDOF 6
ENDMDL
MODEL 2
REMARK VINA RESULT:      -6.3      1.017      1.900
REMARK  Name = 
REMARK  8 active torsions:
REMARK  status: ('A' for Active; 'I' for Inactive)
REMARK    1  A    between atoms: C_1  and  O_2
REMARK    2  A    between atoms: O_2  and  C_3
REMARK    3  A    between atoms: C_6  and  C_7
REMARK    4  A    between atoms: C_7  and  O_9
REMARK    5  A    between atoms: O_9  and  C_10
REMARK    6  A    between atoms: C_10  and  C_11
REMARK    7  A    between atoms: C_11  and  N_12
REMARK    8  A    between atoms: N_12  and  C_13
REMARK                            x       y       z     vdW  Elec       q    Type
REMARK                         _______ _______ _______ _____ _____    ______ ____
ROOT
ATOM      1  C   UNL     1       6.963   5.854  18.520  0.00  0.00    +0.000 C 
ATOM      2  O   UNL     1       7.903   6.620  18.684  0.00  0.00    +0.000 OA
ENDROOT
BRANCH   1   6
ATOM      3  C   UNL     1       5.797   4.592  14.566  0.00  0.00    +0.000 A 
ATOM      4  C   UNL     1       6.732   3.849  15.312  0.00  0.00    +0.000 A 
ATOM      5  C   UNL     1       7.115   4.270  16.586  0.00  0.00    +0.000 A 
ATOM      6  C   UNL     1       6.577   5.439  17.147  0.00  0.00    +0.000 A 
ATOM      7  C   UNL     1       5.638   6.180  16.405  0.00  0.00    +0.000 A 
ATOM      8  C   UNL     1       5.254   5.757  15.126  0.00  0.00    +0.000 A 
BRANCH   3  10
ATOM      9  C   UNL     1       6.116   3.405  12.466  0.00  0.00    +0.000 C 
ATOM     10  O   UNL     1       5.401   4.221  13.320  0.00  0.00    +0.000 OA
ENDBRANCH   3  10
ENDBRANCH   1   6
BRANCH   1  11
ATOM     11  O   UNL     1       6.348   5.310  19.602  0.00  0.00    +0.000 OA
BRANCH  11  12
ATOM     12  C   UNL     1       5.020   4.929  19.577  0.00  0.00    +0.000 C 
BRANCH  12  13
ATOM     13  C   UNL     1       4.835   3.401  19.411  0.00  0.00    +0.000 C 
BRANCH  13  14
ATOM     14  N   UNL     1       3.401   2.946  19.393  0.00  0.00    +0.000 N 
ATOM     15  C   UNL     1       3.305   1.639  18.688  0.00  0.00    +0.000 C 
ATOM     16  C   UNL     1       2.872   2.848  20.788  0.00  0.00    +0.000 C 
ATOM     17  C   UNL     1       1.349   2.640  20.823  0.00  0.00    +0.000 C 
ATOM     18  O   UNL     1       0.686   3.699  20.165  0.00  0.00    +0.000 OA
ATOM     19  C   UNL     1       1.071   3.719  18.804  0.00  0.00    +0.000 C 
ATOM     20  C   UNL     1       2.591   3.974  18.670  0.00  0.00    +0.000 C 
ENDBRANCH  13  14
ENDBRANCH  12  13
ENDBRANCH  11  12
ENDBRANCH   1  11
TORSDOF 6
ENDMDL
MODEL 3
REMARK VINA RESULT:      -6.3      2.050      2.736
REMARK  Name = 
REMARK  8 active torsions:
REMARK  status: ('A' for Active; 'I' for Inactive)
REMARK    1  A    between atoms: C_1  and  O_2
REMARK    2  A    between atoms: O_2  and  C_3
REMARK    3  A    between atoms: C_6  and  C_7
REMARK    4  A    between atoms: C_7  and  O_9
REMARK    5  A    between atoms: O_9  and  C_10
REMARK    6  A    between atoms: C_10  and  C_11
REMARK    7  A    between atoms: C_11  and  N_12
REMARK    8  A    between atoms: N_12  and  C_13
REMARK                            x       y       z     vdW  Elec       q    Type
REMARK                         _______ _______ _______ _____ _____    ______ ____
ROOT
ATOM      1  C   UNL     1       3.408   6.863  18.131  0.00  0.00    +0.000 C 
ATOM      2  O   UNL     1       2.936   7.928  17.755  0.00  0.00    +0.000 OA
ENDROOT
BRANCH   1   6
ATOM      3  C   UNL     1       5.561   4.384  15.337  0.00  0.00    +0.000 A 
ATOM      4  C   UNL     1       4.797   3.808  16.370  0.00  0.00    +0.000 A 
ATOM      5  C   UNL     1       4.113   4.616  17.279  0.00  0.00    +0.000 A 
ATOM      6  C   UNL     1       4.173   6.016  17.182  0.00  0.00    +0.000 A 
ATOM      7  C   UNL     1       4.933   6.593  16.147  0.00  0.00    +0.000 A 
ATOM      8  C   UNL     1       5.619   5.781  15.234  0.00  0.00    +0.000 A 
BRANCH   3  10
ATOM      9  C   UNL     1       6.583   4.033  13.157  0.00  0.00    +0.000 C 
ATOM     10  O   UNL     1       6.247   3.634  14.436  0.00  0.00    +0.000 OA
ENDBRANCH   3  10
ENDBRANCH   1   6
BRANCH   1  11
ATOM     11  O   UNL     1       3.315   6.517  19.441  0.00  0.00    +0.000 OA
BRANCH  11  12
ATOM     12  C   UNL     1       2.129   6.082  20.003  0.00  0.00    +0.000 C 
BRANCH  12  13
ATOM     13  C   UNL     1       2.335   4.944  21.032  0.00  0.00    +0.000 C 
BRANCH  13  14
ATOM     14  N   UNL     1       2.038   3.567  20.503  0.00  0.00    +0.000 N 
ATOM     15  C   UNL     1       1.493   2.722  21.600  0.00  0.00    +0.000 C 
ATOM     16  C   UNL     1       1.082   3.647  19.356  0.00  0.00    +0.000 C 
ATOM     17  C   UNL     1       0.943   2.308  18.615  0.00  0.00    +0.000 C 
ATOM     18  O   UNL     1       2.196   1.877  18.126  0.00  0.00    +0.000 OA
ATOM     19  C   UNL     1       3.075   1.660  19.213  0.00  0.00    +0.000 C 
ATOM     20  C   UNL     1       3.313   2.975  19.992  0.00  0.00    +0.000 C 
ENDBRANCH  13  14
ENDBRANCH  12  13
ENDBRANCH  11  12
ENDBRANCH   1  11
TORSDOF 6
ENDMDL
MODEL 4
REMARK VINA RESULT:      -6.3      1.323      1.521
REMARK  Name = 
REMARK  8 active torsions:
REMARK  status: ('A' for Active; 'I' for Inactive)
REMARK    1  A    between atoms: C_1  and  O_2
REMARK    2  A    between atoms: O_2  and  C_3
REMARK    3  A    between atoms: C_6  and  C_7
REMARK    4  A    between atoms: C_7  and  O_9
REMARK    5  A    between atoms: O_9  and  C_10
REMARK    6  A    between atoms: C_10  and  C_11
REMARK    7  A    between atoms: C_11  and  N_12
REMARK    8  A    between atoms: N_12  and  C_13
REMARK                            x       y       z     vdW  Elec       q    Type
REMARK                         _______ _______ _______ _____ _____    ______ ____
ROOT
ATOM      1  C   UNL     1       6.988   4.981  17.721  0.00  0.00    +0.000 C 
ATOM      2  O   UNL     1       7.929   4.448  18.295  0.00  0.00    +0.000 OA
ENDROOT
BRANCH   1   6
ATOM      3  C   UNL     1       6.233   3.984  13.595  0.00  0.00    +0.000 A 
ATOM      4  C   UNL     1       7.302   4.829  13.947  0.00  0.00    +0.000 A 
ATOM      5  C   UNL     1       7.533   5.159  15.283  0.00  0.00    +0.000 A 
ATOM      6  C   UNL     1       6.706   4.654  16.300  0.00  0.00    +0.000 A 
ATOM      7  C   UNL     1       5.640   3.805  15.950  0.00  0.00    +0.000 A 
ATOM      8  C   UNL     1       5.409   3.474  14.608  0.00  0.00    +0.000 A 
BRANCH   3  10
ATOM      9  C   UNL     1       4.730   3.281  11.815  0.00  0.00    +0.000 C 
ATOM     10  O   UNL     1       5.969   3.644  12.307  0.00  0.00    +0.000 OA
ENDBRANCH   3  10
ENDBRANCH   1   6
BRANCH   1  11
ATOM     11  O   UNL     1       6.149   5.786  18.422  0.00  0.00    +0.000 OA
BRANCH  11  12
ATOM     12  C   UNL     1       5.118   5.281  19.191  0.00  0.00    +0.000 C 
BRANCH  12  13
ATOM     13  C   UNL     1       3.720   5.606  18.611  0.00  0.00    +0.000 C 
BRANCH  13  14
ATOM     14  N   UNL     1       2.684   4.542  18.853  0.00  0.00    +0.000 N 
ATOM     15  C   UNL     1       1.672   4.580  17.762  0.00  0.00    +0.000 C 
ATOM     16  C   UNL     1       3.333   3.198  18.942  0.00  0.00    +0.000 C 
ATOM     17  C   UNL     1       2.365   2.113  19.441  0.00  0.00    +0.000 C 
ATOM     18  O   UNL     1       1.852   2.449  20.713  0.00  0.00    +0.000 OA
ATOM     19  C   UNL     1       1.114   3.652  20.618  0.00  0.00    +0.000 C 
ATOM     20  C   UNL     1       2.025   4.817  20.166  0.00  0.00    +0.000 C 
ENDBRANCH  13  14
ENDBRANCH  12  13
ENDBRANCH  11  12
ENDBRANCH   1  11
TORSDOF 6
ENDMDL
MODEL 5
REMARK VINA RESULT:      -6.3      1.923      4.051
REMARK  Name = 
REMARK  8 active torsions:
REMARK  status: ('A' for Active; 'I' for Inactive)
REMARK    1  A    between atoms: C_1  and  O_2
REMARK    2  A    between atoms: O_2  and  C_3
REMARK    3  A    between atoms: C_6  and  C_7
REMARK    4  A    between atoms: C_7  and  O_9
REMARK    5  A    between atoms: O_9  and  C_10
REMARK    6  A    between atoms: C_10  and  C_11
REMARK    7  A    between atoms: C_11  and  N_12
REMARK    8  A    between atoms: N_12  and  C_13
REMARK                            x       y       z     vdW  Elec       q    Type
REMARK                         _______ _______ _______ _____ _____    ______ ____
ROOT
ATOM      1  C   UNL     1       5.774   4.047  15.961  0.00  0.00    +0.000 C 
ATOM      2  O   UNL     1       6.370   3.442  15.079  0.00  0.00    +0.000 OA
ENDROOT
BRANCH   1   6
ATOM      3  C   UNL     1       7.870   7.094  18.176  0.00  0.00    +0.000 A 
ATOM      4  C   UNL     1       8.021   5.734  18.504  0.00  0.00    +0.000 A 
ATOM      5  C   UNL     1       7.330   4.753  17.792  0.00  0.00    +0.000 A 
ATOM      6  C   UNL     1       6.472   5.104  16.736  0.00  0.00    +0.000 A 
ATOM      7  C   UNL     1       6.324   6.463  16.404  0.00  0.00    +0.000 A 
ATOM      8  C   UNL     1       7.019   7.447  17.119  0.00  0.00    +0.000 A 
BRANCH   3  10
ATOM      9  C   UNL     1       8.607   9.398  18.442  0.00  0.00    +0.000 C 
ATOM     10  O   UNL     1       8.519   8.081  18.848  0.00  0.00    +0.000 OA
ENDBRANCH   3  10
ENDBRANCH   1   6
BRANCH   1  11
ATOM     11  O   UNL     1       4.449   3.818  16.149  0.00  0.00    +0.000 OA
BRANCH  11  12
ATOM     12  C   UNL     1       3.854   3.931  17.392  0.00  0.00    +0.000 C 
BRANCH  12  13
ATOM     13  C   UNL     1       2.736   2.884  17.620  0.00  0.00    +0.000 C 
BRANCH  13  14
ATOM     14  N   UNL     1       2.029   3.008  18.943  0.00  0.00    +0.000 N 
ATOM     15  C   UNL     1       0.723   2.297  18.874  0.00  0.00    +0.000 C 
ATOM     16  C   UNL     1       2.885   2.462  20.040  0.00  0.00    +0.000 C 
ATOM     17  C   UNL     1       2.330   2.793  21.435  0.00  0.00    +0.000 C 
ATOM     18  O   UNL     1       2.217   4.190  21.607  0.00  0.00    +0.000 OA
ATOM     19  C   UNL     1       1.299   4.706  20.662  0.00  0.00    +0.000 C 
ATOM     20  C   UNL     1       1.803   4.460  19.221  0.00  0.00    +0.000 C 
ENDBRANCH  13  14
ENDBRANCH  12  13
ENDBRANCH  11  12
ENDBRANCH   1  11
TORSDOF 6
ENDMDL
MODEL 6
REMARK VINA RESULT:      -6.2      2.006      3.846
REMARK  Name = 
REMARK  8 active torsions:
REMARK  status: ('A' for Active; 'I' for Inactive)
REMARK    1  A    between atoms: C_1  and  O_2
REMARK    2  A    between atoms: O_2  and  C_3
REMARK    3  A    between atoms: C_6  and  C_7
REMARK    4  A    between atoms: C_7  and  O_9
REMARK    5  A    between atoms: O_9  and  C_10
REMARK    6  A    between atoms: C_10  and  C_11
REMARK    7  A    between atoms: C_11  and  N_12
REMARK    8  A    between atoms: N_12  and  C_13
REMARK                            x       y       z     vdW  Elec       q    Type
REMARK                         _______ _______ _______ _____ _____    ______ ____
ROOT
ATOM      1  C   UNL     1       5.307   4.134  16.578  0.00  0.00    +0.000 C 
ATOM      2  O   UNL     1       5.734   3.340  15.750  0.00  0.00    +0.000 OA
ENDROOT
BRANCH   1   6
ATOM      3  C   UNL     1       7.855   7.193  18.233  0.00  0.00    +0.000 A 
ATOM      4  C   UNL     1       7.186   7.397  17.011  0.00  0.00    +0.000 A 
ATOM      5  C   UNL     1       6.373   6.398  16.474  0.00  0.00    +0.000 A 
ATOM      6  C   UNL     1       6.207   5.173  17.141  0.00  0.00    +0.000 A 
ATOM      7  C   UNL     1       6.871   4.970  18.365  0.00  0.00    +0.000 A 
ATOM      8  C   UNL     1       7.687   5.974  18.903  0.00  0.00    +0.000 A 
BRANCH   3  10
ATOM      9  C   UNL     1       8.639   9.483  18.483  0.00  0.00    +0.000 C 
ATOM     10  O   UNL     1       8.661   8.136  18.787  0.00  0.00    +0.000 OA
ENDBRANCH   3  10
ENDBRANCH   1   6
BRANCH   1  11
ATOM     11  O   UNL     1       3.987   4.121  16.897  0.00  0.00    +0.000 OA
BRANCH  11  12
ATOM     12  C   UNL     1       3.419   5.084  17.709  0.00  0.00    +0.000 C 
BRANCH  12  13
ATOM     13  C   UNL     1       2.042   4.656  18.275  0.00  0.00    +0.000 C 
BRANCH  13  14
ATOM     14  N   UNL     1       2.102   3.521  19.261  0.00  0.00    +0.000 N 
ATOM     15  C   UNL     1       1.765   2.246  18.570  0.00  0.00    +0.000 C 
ATOM     16  C   UNL     1       3.456   3.452  19.891  0.00  0.00    +0.000 C 
ATOM     17  C   UNL     1       3.498   2.484  21.085  0.00  0.00    +0.000 C 
ATOM     18  O   UNL     1       2.563   2.868  22.071  0.00  0.00    +0.000 OA
ATOM     19  C   UNL     1       1.258   2.803  21.530  0.00  0.00    +0.000 C 
ATOM     20  C   UNL     1       1.108   3.788  20.346  0.00  0.00    +0.000 C 
ENDBRANCH  13  14
ENDBRANCH  12  13
ENDBRANCH  11  12
ENDBRANCH   1  11
TORSDOF 6
ENDMDL
MODEL 7
REMARK VINA RESULT:      -6.1      1.366      2.034
REMARK  Name = 
REMARK  8 active torsions:
REMARK  status: ('A' for Active; 'I' for Inactive)
REMARK    1  A    between atoms: C_1  and  O_2
REMARK    2  A    between atoms: O_2  and  C_3
REMARK    3  A    between atoms: C_6  and  C_7
REMARK    4  A    between atoms: C_7  and  O_9
REMARK    5  A    between atoms: O_9  and  C_10
REMARK    6  A    between atoms: C_10  and  C_11
REMARK    7  A    between atoms: C_11  and  N_12
REMARK    8  A    between atoms: N_12  and  C_13
REMARK                            x       y       z     vdW  Elec       q    Type
REMARK                         _______ _______ _______ _____ _____    ______ ____
ROOT
ATOM      1  C   UNL     1       6.985   5.805  16.663  0.00  0.00    +0.000 C 
ATOM      2  O   UNL     1       7.676   6.814  16.626  0.00  0.00    +0.000 OA
ENDROOT
BRANCH   1   6
ATOM      3  C   UNL     1       5.949   3.756  13.014  0.00  0.00    +0.000 A 
ATOM      4  C   UNL     1       7.110   4.548  13.090  0.00  0.00    +0.000 A 
ATOM      5  C   UNL     1       7.434   5.219  14.270  0.00  0.00    +0.000 A 
ATOM      6  C   UNL     1       6.608   5.118  15.402  0.00  0.00    +0.000 A 
ATOM      7  C   UNL     1       5.449   4.323  15.329  0.00  0.00    +0.000 A 
ATOM      8  C   UNL     1       5.125   3.649  14.143  0.00  0.00    +0.000 A 
BRANCH   3  10
ATOM      9  C   UNL     1       4.329   3.078  11.330  0.00  0.00    +0.000 C 
ATOM     10  O   UNL     1       5.594   3.092  11.883  0.00  0.00    +0.000 OA
ENDBRANCH   3  10
ENDBRANCH   1   6
BRANCH   1  11
ATOM     11  O   UNL     1       6.656   5.265  17.865  0.00  0.00    +0.000 OA
BRANCH  11  12
ATOM     12  C   UNL     1       5.537   5.667  18.569  0.00  0.00    +0.000 C 
BRANCH  12  13
ATOM     13  C   UNL     1       4.992   4.566  19.512  0.00  0.00    +0.000 C 
BRANCH  13  14
ATOM     14  N   UNL     1       3.539   4.237  19.307  0.00  0.00    +0.000 N 
ATOM     15  C   UNL     1       2.762   4.659  20.505  0.00  0.00    +0.000 C 
ATOM     16  C   UNL     1       3.026   4.900  18.069  0.00  0.00    +0.000 C 
ATOM     17  C   UNL     1       1.629   4.396  17.670  0.00  0.00    +0.000 C 
ATOM     18  O   UNL     1       1.646   3.000  17.458  0.00  0.00    +0.000 OA
ATOM     19  C   UNL     1       1.994   2.346  18.663  0.00  0.00    +0.000 C 
ATOM     20  C   UNL     1       3.414   2.759  19.117  0.00  0.00    +0.000 C 
ENDBRANCH  13  14
ENDBRANCH  12  13
ENDBRANCH  11  12
ENDBRANCH   1  11
TORSDOF 6
ENDMDL
MODEL 8
REMARK VINA RESULT:      -6.0      4.651      7.729
REMARK  Name = 
REMARK  8 active torsions:
REMARK  status: ('A' for Active; 'I' for Inactive)
REMARK    1  A    between atoms: C_1  and  O_2
REMARK    2  A    between atoms: O_2  and  C_3
REMARK    3  A    between atoms: C_6  and  C_7
REMARK    4  A    between atoms: C_7  and  O_9
REMARK    5  A    between atoms: O_9  and  C_10
REMARK    6  A    between atoms: C_10  and  C_11
REMARK    7  A    between atoms: C_11  and  N_12
REMARK    8  A    between atoms: N_12  and  C_13
REMARK                            x       y       z     vdW  Elec       q    Type
REMARK                         _______ _______ _______ _____ _____    ______ ____
ROOT
ATOM      1  C   UNL     1       1.916   8.669  18.201  0.00  0.00    +0.000 C 
ATOM      2  O   UNL     1       2.226   9.520  17.377  0.00  0.00    +0.000 OA
ENDROOT
BRANCH   1   6
ATOM      3  C   UNL     1      -0.053   9.859  21.848  0.00  0.00    +0.000 A 
ATOM      4  C   UNL     1       0.852   8.780  21.837  0.00  0.00    +0.000 A 
ATOM      5  C   UNL     1       1.476   8.391  20.652  0.00  0.00    +0.000 A 
ATOM      6  C   UNL     1       1.214   9.067  19.448  0.00  0.00    +0.000 A 
ATOM      7  C   UNL     1       0.313  10.149  19.458  0.00  0.00    +0.000 A 
ATOM      8  C   UNL     1      -0.313  10.538  20.649  0.00  0.00    +0.000 A 
BRANCH   3  10
ATOM      9  C   UNL     1      -1.546  11.343  23.068  0.00  0.00    +0.000 C 
ATOM     10  O   UNL     1      -0.687  10.265  22.978  0.00  0.00    +0.000 OA
ENDBRANCH   3  10
ENDBRANCH   1   6
BRANCH   1  11
ATOM     11  O   UNL     1       2.125   7.358  17.918  0.00  0.00    +0.000 OA
BRANCH  11  12
ATOM     12  C   UNL     1       3.293   6.707  18.270  0.00  0.00    +0.000 C 
BRANCH  12  13
ATOM     13  C   UNL     1       4.409   6.861  17.209  0.00  0.00    +0.000 C 
BRANCH  13  14
ATOM     14  N   UNL     1       5.215   5.613  16.969  0.00  0.00    +0.000 N 
ATOM     15  C   UNL     1       4.422   4.425  17.387  0.00  0.00    +0.000 C 
ATOM     16  C   UNL     1       5.611   5.520  15.531  0.00  0.00    +0.000 C 
ATOM     17  C   UNL     1       6.646   4.411  15.279  0.00  0.00    +0.000 C 
ATOM     18  O   UNL     1       7.807   4.628  16.052  0.00  0.00    +0.000 OA
ATOM     19  C   UNL     1       7.473   4.579  17.425  0.00  0.00    +0.000 C 
ATOM     20  C   UNL     1       6.468   5.699  17.782  0.00  0.00    +0.000 C 
ENDBRANCH  13  14
ENDBRANCH  12  13
ENDBRANCH  11  12
ENDBRANCH   1  11
TORSDOF 6
ENDMDL
MODEL 9
REMARK VINA RESULT:      -6.0      3.614      6.454
REMARK  Name = 
REMARK  8 active torsions:
REMARK  status: ('A' for Active; 'I' for Inactive)
REMARK    1  A    between atoms: C_1  and  O_2
REMARK    2  A    between atoms: O_2  and  C_3
REMARK    3  A    between atoms: C_6  and  C_7
REMARK    4  A    between atoms: C_7  and  O_9
REMARK    5  A    between atoms: O_9  and  C_10
REMARK    6  A    between atoms: C_10  and  C_11
REMARK    7  A    between atoms: C_11  and  N_12
REMARK    8  A    between atoms: N_12  and  C_13
REMARK                            x       y       z     vdW  Elec       q    Type
REMARK                         _______ _______ _______ _____ _____    ______ ____
ROOT
ATOM      1  C   UNL     1       2.251   5.896  20.166  0.00  0.00    +0.000 C 
ATOM      2  O   UNL     1       1.480   5.190  20.804  0.00  0.00    +0.000 OA
ENDROOT
BRANCH   1   6
ATOM      3  C   UNL     1       1.190   9.962  19.200  0.00  0.00    +0.000 A 
ATOM      4  C   UNL     1       0.937   9.438  20.481  0.00  0.00    +0.000 A 
ATOM      5  C   UNL     1       1.270   8.117  20.785  0.00  0.00    +0.000 A 
ATOM      6  C   UNL     1       1.864   7.287  19.819  0.00  0.00    +0.000 A 
ATOM      7  C   UNL     1       2.122   7.812  18.538  0.00  0.00    +0.000 A 
ATOM      8  C   UNL     1       1.787   9.138  18.235  0.00  0.00    +0.000 A 
BRANCH   3  10
ATOM      9  C   UNL     1       1.776  12.278  18.739  0.00  0.00    +0.000 C 
ATOM     10  O   UNL     1       0.875  11.239  18.861  0.00  0.00    +0.000 OA
ENDBRANCH   3  10
ENDBRANCH   1   6
BRANCH   1  11
ATOM     11  O   UNL     1       3.493   5.434  19.874  0.00  0.00    +0.000 OA
BRANCH  11  12
ATOM     12  C   UNL     1       3.693   4.296  19.115  0.00  0.00    +0.000 C 
BRANCH  12  13
ATOM     13  C   UNL     1       3.804   4.595  17.600  0.00  0.00    +0.000 C 
BRANCH  13  14
ATOM     14  N   UNL     1       5.153   5.098  17.164  0.00  0.00    +0.000 N 
ATOM     15  C   UNL     1       5.058   6.549  16.840  0.00  0.00    +0.000 C 
ATOM     16  C   UNL     1       6.170   4.848  18.231  0.00  0.00    +0.000 C 
ATOM     17  C   UNL     1       7.605   5.105  17.743  0.00  0.00    +0.000 C 
ATOM     18  O   UNL     1       7.908   4.286  16.633  0.00  0.00    +0.000 OA
ATOM     19  C   UNL     1       7.042   4.609  15.562  0.00  0.00    +0.000 C 
ATOM     20  C   UNL     1       5.570   4.333  15.948  0.00  0.00    +0.000 C 
ENDBRANCH  13  14
ENDBRANCH  12  13
ENDBRANCH  11  12
ENDBRANCH   1  11
TORSDOF 6
ENDMDL
