MODEL 1
REMARK VINA RESULT:      -8.0      0.000      0.000
REMARK  Name = 
REMARK  11 active torsions:
REMARK  status: ('A' for Active; 'I' for Inactive)
REMARK    1  A    between atoms: C_1  and  O_2
REMARK    2  A    between atoms: O_2  and  C_3
REMARK    3  A    between atoms: C_4  and  C_5
REMARK    4  A    between atoms: C_7  and  O_8
REMARK    5  A    between atoms: C_9  and  O_10
REMARK    6  A    between atoms: C_11  and  O_12
REMARK    7  A    between atoms: C_17  and  O_18
REMARK    8  A    between atoms: C_20  and  O_21
REMARK    9  A    between atoms: O_21  and  C_22
REMARK   10  A    between atoms: C_22  and  C_23
REMARK   11  A    between atoms: C_23  and  N_24
REMARK                            x       y       z     vdW  Elec       q    Type
REMARK                         _______ _______ _______ _____ _____    ______ ____
ROOT
ATOM      1  C   UNL     1       2.323   7.710  18.513  0.00  0.00    +0.000 A 
ATOM      2  C   UNL     1       2.296   6.871  19.654  0.00  0.00    +0.000 A 
ATOM      3  O   UNL     1       1.678   7.284  20.758  0.00  0.00    +0.000 OA
ATOM      4  C   UNL     1       1.150   8.492  20.893  0.00  0.00    +0.000 A 
ATOM      5  C   UNL     1       0.528   8.816  22.102  0.00  0.00    +0.000 A 
ATOM      6  C   UNL     1       0.002  10.094  22.300  0.00  0.00    +0.000 A 
ATOM      7  C   UNL     1       0.130  11.057  21.302  0.00  0.00    +0.000 A 
ATOM      8  C   UNL     1       0.749  10.757  20.067  0.00  0.00    +0.000 A 
ATOM      9  C   UNL     1       1.236   9.443  19.851  0.00  0.00    +0.000 A 
ATOM     10  C   UNL     1       1.804   9.022  18.637  0.00  0.00    +0.000 A 
ATOM     11  O   UNL     1       1.856   9.790  17.690  0.00  0.00    +0.000 OA
ENDROOT
BRANCH   2  12
ATOM     12  C   UNL     1       2.968   5.535  19.716  0.00  0.00    +0.000 A 
ATOM     13  C   UNL     1       2.255   4.362  20.036  0.00  0.00    +0.000 A 
ATOM     14  C   UNL     1       2.876   3.107  20.008  0.00  0.00    +0.000 A 
ATOM     15  C   UNL     1       4.235   3.006  19.673  0.00  0.00    +0.000 A 
ATOM     16  C   UNL     1       4.961   4.168  19.352  0.00  0.00    +0.000 A 
ATOM     17  C   UNL     1       4.324   5.416  19.360  0.00  0.00    +0.000 A 
BRANCH  14  18
ATOM     18  O   UNL     1       2.163   1.995  20.286  0.00  0.00    +0.000 OA
ATOM     19  H   UNL     1       2.497   1.299  20.869  0.00  0.00    +0.000 HD
ENDBRANCH  14  18
BRANCH  15  20
ATOM     20  O   UNL     1       4.850   1.803  19.638  0.00  0.00    +0.000 OA
ATOM     21  H   UNL     1       5.800   1.704  19.480  0.00  0.00    +0.000 HD
ENDBRANCH  15  20
BRANCH  16  22
ATOM     22  O   UNL     1       6.268   4.104  19.020  0.00  0.00    +0.000 OA
ATOM     23  H   UNL     1       6.958   3.860  19.654  0.00  0.00    +0.000 HD
ENDBRANCH  16  22
ENDBRANCH   2  12
BRANCH   1  25
ATOM     24  C   UNL     1       4.076   7.336  16.846  0.00  0.00    +0.000 C 
ATOM     25  O   UNL     1       2.793   7.206  17.341  0.00  0.00    +0.000 OA
ENDBRANCH   1  25
BRANCH   6  26
ATOM     26  O   UNL     1      -0.619  10.417  23.451  0.00  0.00    +0.000 OA
ATOM     27  H   UNL     1      -1.342  11.059  23.483  0.00  0.00    +0.000 HD
ENDBRANCH   6  26
BRANCH   8  28
ATOM     28  O   UNL     1       0.910  11.718  19.106  0.00  0.00    +0.000 OA
BRANCH  28  29
ATOM     29  C   UNL     1      -0.001  12.736  18.881  0.00  0.00    +0.000 C 
BRANCH  29  30
ATOM     30  C   UNL     1      -1.028  12.366  17.807  0.00  0.00    +0.000 C 
BRANCH  30  31
ATOM     31  N   UNL     1      -1.876  11.199  18.199  0.00  0.00    +0.000 NA
ATOM     32  C   UNL     1      -1.706  10.014  17.336  0.00  0.00    +0.000 C 
ATOM     33  C   UNL     1      -2.608  10.257  16.150  0.00  0.00    +0.000 C 
ATOM     34  C   UNL     1      -3.859  10.676  16.883  0.00  0.00    +0.000 C 
ATOM     35  C   UNL     1      -3.314  11.542  18.029  0.00  0.00    +0.000 C 
ENDBRANCH  30  31
ENDBRANCH  29  30
ENDBRANCH  28  29
ENDBRANCH   8  28
TORSDOF 10
ENDMDL
MODEL 2
REMARK VINA RESULT:      -7.9      0.138      1.497
REMARK  Name = 
REMARK  11 active torsions:
REMARK  status: ('A' for Active; 'I' for Inactive)
REMARK    1  A    between atoms: C_1  and  O_2
REMARK    2  A    between atoms: O_2  and  C_3
REMARK    3  A    between atoms: C_4  and  C_5
REMARK    4  A    between atoms: C_7  and  O_8
REMARK    5  A    between atoms: C_9  and  O_10
REMARK    6  A    between atoms: C_11  and  O_12
REMARK    7  A    between atoms: C_17  and  O_18
REMARK    8  A    between atoms: C_20  and  O_21
REMARK    9  A    between atoms: O_21  and  C_22
REMARK   10  A    between atoms: C_22  and  C_23
REMARK   11  A    between atoms: C_23  and  N_24
REMARK                            x       y       z     vdW  Elec       q    Type
REMARK                         _______ _______ _______ _____ _____    ______ ____
ROOT
ATOM      1  C   UNL     1       2.350   7.748  18.449  0.00  0.00    +0.000 A 
ATOM      2  C   UNL     1       2.338   6.881  19.570  0.00  0.00    +0.000 A 
ATOM      3  O   UNL     1       1.726   7.262  20.688  0.00  0.00    +0.000 OA
ATOM      4  C   UNL     1       1.190   8.463  20.857  0.00  0.00    +0.000 A 
ATOM      5  C   UNL     1       0.575   8.752  22.077  0.00  0.00    +0.000 A 
ATOM      6  C   UNL     1       0.041  10.021  22.311  0.00  0.00    +0.000 A 
ATOM      7  C   UNL     1       0.154  11.009  21.336  0.00  0.00    +0.000 A 
ATOM      8  C   UNL     1       0.766  10.744  20.089  0.00  0.00    +0.000 A 
ATOM      9  C   UNL     1       1.261   9.440  19.837  0.00  0.00    +0.000 A 
ATOM     10  C   UNL     1       1.822   9.052  18.609  0.00  0.00    +0.000 A 
ATOM     11  O   UNL     1       1.862   9.844  17.681  0.00  0.00    +0.000 OA
ENDROOT
BRANCH   2  12
ATOM     12  C   UNL     1       3.020   5.549  19.594  0.00  0.00    +0.000 A 
ATOM     13  C   UNL     1       4.360   5.396  19.183  0.00  0.00    +0.000 A 
ATOM     14  C   UNL     1       5.013   4.162  19.289  0.00  0.00    +0.000 A 
ATOM     15  C   UNL     1       4.327   3.048  19.797  0.00  0.00    +0.000 A 
ATOM     16  C   UNL     1       2.989   3.184  20.210  0.00  0.00    +0.000 A 
ATOM     17  C   UNL     1       2.352   4.429  20.122  0.00  0.00    +0.000 A 
BRANCH  14  18
ATOM     18  O   UNL     1       6.308   4.050  18.920  0.00  0.00    +0.000 OA
ATOM     19  H   UNL     1       6.571   3.671  18.070  0.00  0.00    +0.000 HD
ENDBRANCH  14  18
BRANCH  15  20
ATOM     20  O   UNL     1       4.943   1.850  19.910  0.00  0.00    +0.000 OA
ATOM     21  H   UNL     1       4.770   1.238  20.640  0.00  0.00    +0.000 HD
ENDBRANCH  15  20
BRANCH  16  22
ATOM     22  O   UNL     1       2.303   2.133  20.709  0.00  0.00    +0.000 OA
ATOM     23  H   UNL     1       1.347   2.031  20.595  0.00  0.00    +0.000 HD
ENDBRANCH  16  22
ENDBRANCH   2  12
BRANCH   1  25
ATOM     24  C   UNL     1       4.096   7.420  16.765  0.00  0.00    +0.000 C 
ATOM     25  O   UNL     1       2.815   7.277  17.261  0.00  0.00    +0.000 OA
ENDBRANCH   1  25
BRANCH   6  26
ATOM     26  O   UNL     1      -0.574  10.311  23.474  0.00  0.00    +0.000 OA
ATOM     27  H   UNL     1      -1.270   9.748  23.842  0.00  0.00    +0.000 HD
ENDBRANCH   6  26
BRANCH   8  28
ATOM     28  O   UNL     1       0.913  11.729  19.150  0.00  0.00    +0.000 OA
BRANCH  28  29
ATOM     29  C   UNL     1      -0.014  12.738  18.949  0.00  0.00    +0.000 C 
BRANCH  29  30
ATOM     30  C   UNL     1      -1.026  12.383  17.856  0.00  0.00    +0.000 C 
BRANCH  30  31
ATOM     31  N   UNL     1      -1.875  11.208  18.218  0.00  0.00    +0.000 NA
ATOM     32  C   UNL     1      -1.689  10.036  17.339  0.00  0.00    +0.000 C 
ATOM     33  C   UNL     1      -2.574  10.295  16.144  0.00  0.00    +0.000 C 
ATOM     34  C   UNL     1      -3.837  10.698  16.865  0.00  0.00    +0.000 C 
ATOM     35  C   UNL     1      -3.312  11.548  18.031  0.00  0.00    +0.000 C 
ENDBRANCH  30  31
ENDBRANCH  29  30
ENDBRANCH  28  29
ENDBRANCH   8  28
TORSDOF 10
ENDMDL
MODEL 3
REMARK VINA RESULT:      -7.7      2.631      8.160
REMARK  Name = 
REMARK  11 active torsions:
REMARK  status: ('A' for Active; 'I' for Inactive)
REMARK    1  A    between atoms: C_1  and  O_2
REMARK    2  A    between atoms: O_2  and  C_3
REMARK    3  A    between atoms: C_4  and  C_5
REMARK    4  A    between atoms: C_7  and  O_8
REMARK    5  A    between atoms: C_9  and  O_10
REMARK    6  A    between atoms: C_11  and  O_12
REMARK    7  A    between atoms: C_17  and  O_18
REMARK    8  A    between atoms: C_20  and  O_21
REMARK    9  A    between atoms: O_21  and  C_22
REMARK   10  A    between atoms: C_22  and  C_23
REMARK   11  A    between atoms: C_23  and  N_24
REMARK                            x       y       z     vdW  Elec       q    Type
REMARK                         _______ _______ _______ _____ _____    ______ ____
ROOT
ATOM      1  C   UNL     1       1.886   7.835  19.536  0.00  0.00    +0.000 A 
ATOM      2  C   UNL     1       1.922   8.745  18.450  0.00  0.00    +0.000 A 
ATOM      3  O   UNL     1       2.699   8.484  17.402  0.00  0.00    +0.000 OA
ATOM      4  C   UNL     1       3.527   7.451  17.342  0.00  0.00    +0.000 A 
ATOM      5  C   UNL     1       4.296   7.279  16.189  0.00  0.00    +0.000 A 
ATOM      6  C   UNL     1       5.215   6.230  16.108  0.00  0.00    +0.000 A 
ATOM      7  C   UNL     1       5.387   5.376  17.194  0.00  0.00    +0.000 A 
ATOM      8  C   UNL     1       4.618   5.521  18.372  0.00  0.00    +0.000 A 
ATOM      9  C   UNL     1       3.651   6.556  18.430  0.00  0.00    +0.000 A 
ATOM     10  C   UNL     1       2.788   6.744  19.522  0.00  0.00    +0.000 A 
ATOM     11  O   UNL     1       2.821   5.968  20.465  0.00  0.00    +0.000 OA
ENDROOT
BRANCH   2  12
ATOM     12  C   UNL     1       1.158  10.031  18.421  0.00  0.00    +0.000 A 
ATOM     13  C   UNL     1      -0.244  10.055  18.277  0.00  0.00    +0.000 A 
ATOM     14  C   UNL     1      -0.957  11.260  18.335  0.00  0.00    +0.000 A 
ATOM     15  C   UNL     1      -0.271  12.470  18.525  0.00  0.00    +0.000 A 
ATOM     16  C   UNL     1       1.128  12.462  18.671  0.00  0.00    +0.000 A 
ATOM     17  C   UNL     1       1.829  11.250  18.634  0.00  0.00    +0.000 A 
BRANCH  14  18
ATOM     18  O   UNL     1      -2.303  11.253  18.227  0.00  0.00    +0.000 OA
ATOM     19  H   UNL     1      -2.779  11.887  17.673  0.00  0.00    +0.000 HD
ENDBRANCH  14  18
BRANCH  15  20
ATOM     20  O   UNL     1      -0.944  13.641  18.588  0.00  0.00    +0.000 OA
ATOM     21  H   UNL     1      -1.207  14.138  17.799  0.00  0.00    +0.000 HD
ENDBRANCH  15  20
BRANCH  16  22
ATOM     22  O   UNL     1       1.816  13.608  18.861  0.00  0.00    +0.000 OA
ATOM     23  H   UNL     1       2.164  14.137  18.129  0.00  0.00    +0.000 HD
ENDBRANCH  16  22
ENDBRANCH   2  12
BRANCH   1  25
ATOM     24  C   UNL     1       1.138   8.694  21.703  0.00  0.00    +0.000 C 
ATOM     25  O   UNL     1       0.958   8.018  20.513  0.00  0.00    +0.000 OA
ENDBRANCH   1  25
BRANCH   6  26
ATOM     26  O   UNL     1       5.951   6.038  14.995  0.00  0.00    +0.000 OA
ATOM     27  H   UNL     1       6.863   5.719  15.031  0.00  0.00    +0.000 HD
ENDBRANCH   6  26
BRANCH   8  28
ATOM     28  O   UNL     1       4.819   4.705  19.452  0.00  0.00    +0.000 OA
BRANCH  28  29
ATOM     29  C   UNL     1       4.685   3.328  19.407  0.00  0.00    +0.000 C 
BRANCH  29  30
ATOM     30  C   UNL     1       3.486   2.892  18.558  0.00  0.00    +0.000 C 
BRANCH  30  31
ATOM     31  N   UNL     1       2.523   2.038  19.318  0.00  0.00    +0.000 NA
ATOM     32  C   UNL     1       1.107   2.277  18.976  0.00  0.00    +0.000 C 
ATOM     33  C   UNL     1       0.696   3.466  19.811  0.00  0.00    +0.000 C 
ATOM     34  C   UNL     1       1.248   3.024  21.144  0.00  0.00    +0.000 C 
ATOM     35  C   UNL     1       2.587   2.375  20.765  0.00  0.00    +0.000 C 
ENDBRANCH  30  31
ENDBRANCH  29  30
ENDBRANCH  28  29
ENDBRANCH   8  28
TORSDOF 10
ENDMDL
MODEL 4
REMARK VINA RESULT:      -7.6      2.640      8.319
REMARK  Name = 
REMARK  11 active torsions:
REMARK  status: ('A' for Active; 'I' for Inactive)
REMARK    1  A    between atoms: C_1  and  O_2
REMARK    2  A    between atoms: O_2  and  C_3
REMARK    3  A    between atoms: C_4  and  C_5
REMARK    4  A    between atoms: C_7  and  O_8
REMARK    5  A    between atoms: C_9  and  O_10
REMARK    6  A    between atoms: C_11  and  O_12
REMARK    7  A    between atoms: C_17  and  O_18
REMARK    8  A    between atoms: C_20  and  O_21
REMARK    9  A    between atoms: O_21  and  C_22
REMARK   10  A    between atoms: C_22  and  C_23
REMARK   11  A    between atoms: C_23  and  N_24
REMARK                            x       y       z     vdW  Elec       q    Type
REMARK                         _______ _______ _______ _____ _____    ______ ____
ROOT
ATOM      1  C   UNL     1       1.766   7.997  19.651  0.00  0.00    +0.000 A 
ATOM      2  C   UNL     1       1.862   8.934  18.593  0.00  0.00    +0.000 A 
ATOM      3  O   UNL     1       2.633   8.662  17.543  0.00  0.00    +0.000 OA
ATOM      4  C   UNL     1       3.404   7.587  17.460  0.00  0.00    +0.000 A 
ATOM      5  C   UNL     1       4.174   7.407  16.308  0.00  0.00    +0.000 A 
ATOM      6  C   UNL     1       5.034   6.312  16.202  0.00  0.00    +0.000 A 
ATOM      7  C   UNL     1       5.148   5.418  17.264  0.00  0.00    +0.000 A 
ATOM      8  C   UNL     1       4.377   5.570  18.439  0.00  0.00    +0.000 A 
ATOM      9  C   UNL     1       3.468   6.655  18.521  0.00  0.00    +0.000 A 
ATOM     10  C   UNL     1       2.606   6.858  19.612  0.00  0.00    +0.000 A 
ATOM     11  O   UNL     1       2.588   6.054  20.531  0.00  0.00    +0.000 OA
ENDROOT
BRANCH   2  12
ATOM     12  C   UNL     1       1.170  10.261  18.597  0.00  0.00    +0.000 A 
ATOM     13  C   UNL     1       1.891  11.472  18.636  0.00  0.00    +0.000 A 
ATOM     14  C   UNL     1       1.236  12.707  18.554  0.00  0.00    +0.000 A 
ATOM     15  C   UNL     1      -0.163  12.752  18.447  0.00  0.00    +0.000 A 
ATOM     16  C   UNL     1      -0.896  11.552  18.407  0.00  0.00    +0.000 A 
ATOM     17  C   UNL     1      -0.230  10.321  18.466  0.00  0.00    +0.000 A 
BRANCH  14  18
ATOM     18  O   UNL     1       1.952  13.852  18.560  0.00  0.00    +0.000 OA
ATOM     19  H   UNL     1       2.215  14.301  17.744  0.00  0.00    +0.000 HD
ENDBRANCH  14  18
BRANCH  15  20
ATOM     20  O   UNL     1      -0.811  13.935  18.363  0.00  0.00    +0.000 OA
ATOM     21  H   UNL     1      -0.512  14.657  17.791  0.00  0.00    +0.000 HD
ENDBRANCH  15  20
BRANCH  16  22
ATOM     22  O   UNL     1      -2.242  11.561  18.298  0.00  0.00    +0.000 OA
ATOM     23  H   UNL     1      -2.705  11.974  17.555  0.00  0.00    +0.000 HD
ENDBRANCH  16  22
ENDBRANCH   2  12
BRANCH   1  25
ATOM     24  C   UNL     1       1.045   8.836  21.835  0.00  0.00    +0.000 C 
ATOM     25  O   UNL     1       0.840   8.201  20.625  0.00  0.00    +0.000 OA
ENDBRANCH   1  25
BRANCH   6  26
ATOM     26  O   UNL     1       5.768   6.112  15.091  0.00  0.00    +0.000 OA
ATOM     27  H   UNL     1       6.034   6.840  14.512  0.00  0.00    +0.000 HD
ENDBRANCH   6  26
BRANCH   8  28
ATOM     28  O   UNL     1       4.524   4.714  19.496  0.00  0.00    +0.000 OA
BRANCH  28  29
ATOM     29  C   UNL     1       4.585   3.337  19.362  0.00  0.00    +0.000 C 
BRANCH  29  30
ATOM     30  C   UNL     1       3.462   2.791  18.475  0.00  0.00    +0.000 C 
BRANCH  30  31
ATOM     31  N   UNL     1       2.480   1.959  19.235  0.00  0.00    +0.000 NA
ATOM     32  C   UNL     1       1.069   2.235  18.900  0.00  0.00    +0.000 C 
ATOM     33  C   UNL     1       0.692   3.431  19.741  0.00  0.00    +0.000 C 
ATOM     34  C   UNL     1       1.237   2.971  21.070  0.00  0.00    +0.000 C 
ATOM     35  C   UNL     1       2.558   2.289  20.684  0.00  0.00    +0.000 C 
ENDBRANCH  30  31
ENDBRANCH  29  30
ENDBRANCH  28  29
ENDBRANCH   8  28
TORSDOF 10
ENDMDL
MODEL 5
REMARK VINA RESULT:      -7.5      2.200      3.253
REMARK  Name = 
REMARK  11 active torsions:
REMARK  status: ('A' for Active; 'I' for Inactive)
REMARK    1  A    between atoms: C_1  and  O_2
REMARK    2  A    between atoms: O_2  and  C_3
REMARK    3  A    between atoms: C_4  and  C_5
REMARK    4  A    between atoms: C_7  and  O_8
REMARK    5  A    between atoms: C_9  and  O_10
REMARK    6  A    between atoms: C_11  and  O_12
REMARK    7  A    between atoms: C_17  and  O_18
REMARK    8  A    between atoms: C_20  and  O_21
REMARK    9  A    between atoms: O_21  and  C_22
REMARK   10  A    between atoms: C_22  and  C_23
REMARK   11  A    between atoms: C_23  and  N_24
REMARK                            x       y       z     vdW  Elec       q    Type
REMARK                         _______ _______ _______ _____ _____    ______ ____
ROOT
ATOM      1  C   UNL     1       2.364   7.739  18.487  0.00  0.00    +0.000 A 
ATOM      2  C   UNL     1       2.263   6.879  19.609  0.00  0.00    +0.000 A 
ATOM      3  O   UNL     1       1.621   7.296  20.698  0.00  0.00    +0.000 OA
ATOM      4  C   UNL     1       1.136   8.521  20.839  0.00  0.00    +0.000 A 
ATOM      5  C   UNL     1       0.483   8.846  22.030  0.00  0.00    +0.000 A 
ATOM      6  C   UNL     1       0.000  10.141  22.235  0.00  0.00    +0.000 A 
ATOM      7  C   UNL     1       0.203  11.116  21.263  0.00  0.00    +0.000 A 
ATOM      8  C   UNL     1       0.855  10.815  20.045  0.00  0.00    +0.000 A 
ATOM      9  C   UNL     1       1.298   9.488  19.820  0.00  0.00    +0.000 A 
ATOM     10  C   UNL     1       1.893   9.067  18.619  0.00  0.00    +0.000 A 
ATOM     11  O   UNL     1       2.010   9.851  17.690  0.00  0.00    +0.000 OA
ENDROOT
BRANCH   2  12
ATOM     12  C   UNL     1       2.879   5.517  19.668  0.00  0.00    +0.000 A 
ATOM     13  C   UNL     1       2.112   4.369  19.954  0.00  0.00    +0.000 A 
ATOM     14  C   UNL     1       2.684   3.091  19.923  0.00  0.00    +0.000 A 
ATOM     15  C   UNL     1       4.045   2.940  19.619  0.00  0.00    +0.000 A 
ATOM     16  C   UNL     1       4.824   4.076  19.332  0.00  0.00    +0.000 A 
ATOM     17  C   UNL     1       4.238   5.348  19.342  0.00  0.00    +0.000 A 
BRANCH  14  18
ATOM     18  O   UNL     1       1.920   2.005  20.169  0.00  0.00    +0.000 OA
ATOM     19  H   UNL     1       0.958   2.017  20.071  0.00  0.00    +0.000 HD
ENDBRANCH  14  18
BRANCH  15  20
ATOM     20  O   UNL     1       4.613   1.713  19.581  0.00  0.00    +0.000 OA
ATOM     21  H   UNL     1       4.456   1.086  18.861  0.00  0.00    +0.000 HD
ENDBRANCH  15  20
BRANCH  16  22
ATOM     22  O   UNL     1       6.136   3.964  19.029  0.00  0.00    +0.000 OA
ATOM     23  H   UNL     1       6.716   3.313  19.448  0.00  0.00    +0.000 HD
ENDBRANCH  16  22
ENDBRANCH   2  12
BRANCH   1  25
ATOM     24  C   UNL     1       4.157   7.347  16.866  0.00  0.00    +0.000 C 
ATOM     25  O   UNL     1       2.858   7.239  17.322  0.00  0.00    +0.000 OA
ENDBRANCH   1  25
BRANCH   6  26
ATOM     26  O   UNL     1      -0.650  10.466  23.370  0.00  0.00    +0.000 OA
ATOM     27  H   UNL     1      -0.677  11.373  23.705  0.00  0.00    +0.000 HD
ENDBRANCH   6  26
BRANCH   8  28
ATOM     28  O   UNL     1       1.089  11.787  19.110  0.00  0.00    +0.000 OA
BRANCH  28  29
ATOM     29  C   UNL     1       1.674  13.007  19.405  0.00  0.00    +0.000 C 
BRANCH  29  30
ATOM     30  C   UNL     1       2.561  13.514  18.263  0.00  0.00    +0.000 C 
BRANCH  30  31
ATOM     31  N   UNL     1       3.346  14.729  18.641  0.00  0.00    +0.000 NA
ATOM     32  C   UNL     1       2.573  15.736  19.394  0.00  0.00    +0.000 C 
ATOM     33  C   UNL     1       1.848  16.543  18.343  0.00  0.00    +0.000 C 
ATOM     34  C   UNL     1       3.000  16.798  17.401  0.00  0.00    +0.000 C 
ATOM     35  C   UNL     1       3.758  15.463  17.413  0.00  0.00    +0.000 C 
ENDBRANCH  30  31
ENDBRANCH  29  30
ENDBRANCH  28  29
ENDBRANCH   8  28
TORSDOF 10
ENDMDL
MODEL 6
REMARK VINA RESULT:      -7.5      2.165      3.563
REMARK  Name = 
REMARK  11 active torsions:
REMARK  status: ('A' for Active; 'I' for Inactive)
REMARK    1  A    between atoms: C_1  and  O_2
REMARK    2  A    between atoms: O_2  and  C_3
REMARK    3  A    between atoms: C_4  and  C_5
REMARK    4  A    between atoms: C_7  and  O_8
REMARK    5  A    between atoms: C_9  and  O_10
REMARK    6  A    between atoms: C_11  and  O_12
REMARK    7  A    between atoms: C_17  and  O_18
REMARK    8  A    between atoms: C_20  and  O_21
REMARK    9  A    between atoms: O_21  and  C_22
REMARK   10  A    between atoms: C_22  and  C_23
REMARK   11  A    between atoms: C_23  and  N_24
REMARK                            x       y       z     vdW  Elec       q    Type
REMARK                         _______ _______ _______ _____ _____    ______ ____
ROOT
ATOM      1  C   UNL     1       2.410   7.666  18.421  0.00  0.00    +0.000 A 
ATOM      2  C   UNL     1       2.367   6.831  19.564  0.00  0.00    +0.000 A 
ATOM      3  O   UNL     1       1.741   7.251  20.660  0.00  0.00    +0.000 OA
ATOM      4  C   UNL     1       1.218   8.462  20.787  0.00  0.00    +0.000 A 
ATOM      5  C   UNL     1       0.587   8.793  21.988  0.00  0.00    +0.000 A 
ATOM      6  C   UNL     1       0.065  10.075  22.177  0.00  0.00    +0.000 A 
ATOM      7  C   UNL     1       0.209  11.034  21.178  0.00  0.00    +0.000 A 
ATOM      8  C   UNL     1       0.838  10.727  19.949  0.00  0.00    +0.000 A 
ATOM      9  C   UNL     1       1.320   9.410  19.743  0.00  0.00    +0.000 A 
ATOM     10  C   UNL     1       1.897   8.981  18.535  0.00  0.00    +0.000 A 
ATOM     11  O   UNL     1       1.963   9.746  17.587  0.00  0.00    +0.000 OA
ENDROOT
BRANCH   2  12
ATOM     12  C   UNL     1       3.031   5.491  19.636  0.00  0.00    +0.000 A 
ATOM     13  C   UNL     1       4.334   5.284  19.139  0.00  0.00    +0.000 A 
ATOM     14  C   UNL     1       4.976   4.048  19.288  0.00  0.00    +0.000 A 
ATOM     15  C   UNL     1       4.315   2.988  19.928  0.00  0.00    +0.000 A 
ATOM     16  C   UNL     1       3.015   3.180  20.429  0.00  0.00    +0.000 A 
ATOM     17  C   UNL     1       2.390   4.426  20.295  0.00  0.00    +0.000 A 
BRANCH  14  18
ATOM     18  O   UNL     1       6.237   3.884  18.833  0.00  0.00    +0.000 OA
ATOM     19  H   UNL     1       7.008   4.206  19.321  0.00  0.00    +0.000 HD
ENDBRANCH  14  18
BRANCH  15  20
ATOM     20  O   UNL     1       4.922   1.790  20.084  0.00  0.00    +0.000 OA
ATOM     21  H   UNL     1       4.441   0.987  20.332  0.00  0.00    +0.000 HD
ENDBRANCH  15  20
BRANCH  16  22
ATOM     22  O   UNL     1       2.354   2.182  21.054  0.00  0.00    +0.000 OA
ATOM     23  H   UNL     1       1.853   1.506  20.576  0.00  0.00    +0.000 HD
ENDBRANCH  16  22
ENDBRANCH   2  12
BRANCH   1  25
ATOM     24  C   UNL     1       4.161   7.327  16.744  0.00  0.00    +0.000 C 
ATOM     25  O   UNL     1       2.889   7.157  17.254  0.00  0.00    +0.000 OA
ENDBRANCH   1  25
BRANCH   6  26
ATOM     26  O   UNL     1      -0.565  10.405  23.321  0.00  0.00    +0.000 OA
ATOM     27  H   UNL     1      -1.479  10.721  23.332  0.00  0.00    +0.000 HD
ENDBRANCH   6  26
BRANCH   8  28
ATOM     28  O   UNL     1       1.014  11.684  18.987  0.00  0.00    +0.000 OA
BRANCH  28  29
ATOM     29  C   UNL     1       1.481  12.960  19.254  0.00  0.00    +0.000 C 
BRANCH  29  30
ATOM     30  C   UNL     1       2.600  13.378  18.294  0.00  0.00    +0.000 C 
BRANCH  30  31
ATOM     31  N   UNL     1       3.348  14.581  18.773  0.00  0.00    +0.000 NA
ATOM     32  C   UNL     1       2.505  15.585  19.451  0.00  0.00    +0.000 C 
ATOM     33  C   UNL     1       1.906  16.412  18.339  0.00  0.00    +0.000 C 
ATOM     34  C   UNL     1       3.156  16.669  17.533  0.00  0.00    +0.000 C 
ATOM     35  C   UNL     1       3.898  15.327  17.609  0.00  0.00    +0.000 C 
ENDBRANCH  30  31
ENDBRANCH  29  30
ENDBRANCH  28  29
ENDBRANCH   8  28
TORSDOF 10
ENDMDL
MODEL 7
REMARK VINA RESULT:      -7.5      2.234      3.443
REMARK  Name = 
REMARK  11 active torsions:
REMARK  status: ('A' for Active; 'I' for Inactive)
REMARK    1  A    between atoms: C_1  and  O_2
REMARK    2  A    between atoms: O_2  and  C_3
REMARK    3  A    between atoms: C_4  and  C_5
REMARK    4  A    between atoms: C_7  and  O_8
REMARK    5  A    between atoms: C_9  and  O_10
REMARK    6  A    between atoms: C_11  and  O_12
REMARK    7  A    between atoms: C_17  and  O_18
REMARK    8  A    between atoms: C_20  and  O_21
REMARK    9  A    between atoms: O_21  and  C_22
REMARK   10  A    between atoms: C_22  and  C_23
REMARK   11  A    between atoms: C_23  and  N_24
REMARK                            x       y       z     vdW  Elec       q    Type
REMARK                         _______ _______ _______ _____ _____    ______ ____
ROOT
ATOM      1  C   UNL     1       2.379   7.747  18.507  0.00  0.00    +0.000 A 
ATOM      2  C   UNL     1       2.260   6.876  19.618  0.00  0.00    +0.000 A 
ATOM      3  O   UNL     1       1.609   7.284  20.704  0.00  0.00    +0.000 OA
ATOM      4  C   UNL     1       1.128   8.511  20.853  0.00  0.00    +0.000 A 
ATOM      5  C   UNL     1       0.463   8.826  22.041  0.00  0.00    +0.000 A 
ATOM      6  C   UNL     1      -0.015  10.120  22.255  0.00  0.00    +0.000 A 
ATOM      7  C   UNL     1       0.204  11.105  21.296  0.00  0.00    +0.000 A 
ATOM      8  C   UNL     1       0.869  10.815  20.082  0.00  0.00    +0.000 A 
ATOM      9  C   UNL     1       1.307   9.488  19.848  0.00  0.00    +0.000 A 
ATOM     10  C   UNL     1       1.914   9.077  18.648  0.00  0.00    +0.000 A 
ATOM     11  O   UNL     1       2.046   9.870  17.730  0.00  0.00    +0.000 OA
ENDROOT
BRANCH   2  12
ATOM     12  C   UNL     1       2.869   5.510  19.669  0.00  0.00    +0.000 A 
ATOM     13  C   UNL     1       2.094   4.365  19.944  0.00  0.00    +0.000 A 
ATOM     14  C   UNL     1       2.658   3.084  19.906  0.00  0.00    +0.000 A 
ATOM     15  C   UNL     1       4.020   2.927  19.604  0.00  0.00    +0.000 A 
ATOM     16  C   UNL     1       4.806   4.060  19.328  0.00  0.00    +0.000 A 
ATOM     17  C   UNL     1       4.227   5.336  19.346  0.00  0.00    +0.000 A 
BRANCH  14  18
ATOM     18  O   UNL     1       1.888   2.000  20.140  0.00  0.00    +0.000 OA
ATOM     19  H   UNL     1       1.089   2.042  20.685  0.00  0.00    +0.000 HD
ENDBRANCH  14  18
BRANCH  15  20
ATOM     20  O   UNL     1       4.580   1.697  19.559  0.00  0.00    +0.000 OA
ATOM     21  H   UNL     1       4.949   1.261  20.341  0.00  0.00    +0.000 HD
ENDBRANCH  15  20
BRANCH  16  22
ATOM     22  O   UNL     1       6.118   3.943  19.029  0.00  0.00    +0.000 OA
ATOM     23  H   UNL     1       6.637   4.671  18.657  0.00  0.00    +0.000 HD
ENDBRANCH  16  22
ENDBRANCH   2  12
BRANCH   1  25
ATOM     24  C   UNL     1       4.184   7.382  16.893  0.00  0.00    +0.000 C 
ATOM     25  O   UNL     1       2.884   7.258  17.343  0.00  0.00    +0.000 OA
ENDBRANCH   1  25
BRANCH   6  26
ATOM     26  O   UNL     1      -0.677  10.437  23.385  0.00  0.00    +0.000 OA
ATOM     27  H   UNL     1      -0.224  10.538  24.234  0.00  0.00    +0.000 HD
ENDBRANCH   6  26
BRANCH   8  28
ATOM     28  O   UNL     1       1.119  11.796  19.161  0.00  0.00    +0.000 OA
BRANCH  28  29
ATOM     29  C   UNL     1       1.822  12.954  19.448  0.00  0.00    +0.000 C 
BRANCH  29  30
ATOM     30  C   UNL     1       2.228  13.713  18.181  0.00  0.00    +0.000 C 
BRANCH  30  31
ATOM     31  N   UNL     1       2.847  15.041  18.479  0.00  0.00    +0.000 NA
ATOM     32  C   UNL     1       3.848  15.476  17.485  0.00  0.00    +0.000 C 
ATOM     33  C   UNL     1       5.132  14.796  17.896  0.00  0.00    +0.000 C 
ATOM     34  C   UNL     1       5.113  15.121  19.370  0.00  0.00    +0.000 C 
ATOM     35  C   UNL     1       3.632  14.957  19.740  0.00  0.00    +0.000 C 
ENDBRANCH  30  31
ENDBRANCH  29  30
ENDBRANCH  28  29
ENDBRANCH   8  28
TORSDOF 10
ENDMDL
MODEL 8
REMARK VINA RESULT:      -7.4      2.250      3.778
REMARK  Name = 
REMARK  11 active torsions:
REMARK  status: ('A' for Active; 'I' for Inactive)
REMARK    1  A    between atoms: C_1  and  O_2
REMARK    2  A    between atoms: O_2  and  C_3
REMARK    3  A    between atoms: C_4  and  C_5
REMARK    4  A    between atoms: C_7  and  O_8
REMARK    5  A    between atoms: C_9  and  O_10
REMARK    6  A    between atoms: C_11  and  O_12
REMARK    7  A    between atoms: C_17  and  O_18
REMARK    8  A    between atoms: C_20  and  O_21
REMARK    9  A    between atoms: O_21  and  C_22
REMARK   10  A    between atoms: C_22  and  C_23
REMARK   11  A    between atoms: C_23  and  N_24
REMARK                            x       y       z     vdW  Elec       q    Type
REMARK                         _______ _______ _______ _____ _____    ______ ____
ROOT
ATOM      1  C   UNL     1       2.372   7.818  18.524  0.00  0.00    +0.000 A 
ATOM      2  C   UNL     1       2.300   6.895  19.596  0.00  0.00    +0.000 A 
ATOM      3  O   UNL     1       1.644   7.226  20.705  0.00  0.00    +0.000 OA
ATOM      4  C   UNL     1       1.115   8.424  20.912  0.00  0.00    +0.000 A 
ATOM      5  C   UNL     1       0.449   8.658  22.118  0.00  0.00    +0.000 A 
ATOM      6  C   UNL     1      -0.080   9.921  22.393  0.00  0.00    +0.000 A 
ATOM      7  C   UNL     1       0.089  10.956  21.478  0.00  0.00    +0.000 A 
ATOM      8  C   UNL     1       0.753  10.747  20.246  0.00  0.00    +0.000 A 
ATOM      9  C   UNL     1       1.243   9.451  19.949  0.00  0.00    +0.000 A 
ATOM     10  C   UNL     1       1.854   9.120  18.728  0.00  0.00    +0.000 A 
ATOM     11  O   UNL     1       1.944   9.958  17.845  0.00  0.00    +0.000 OA
ENDROOT
BRANCH   2  12
ATOM     12  C   UNL     1       2.965   5.554  19.580  0.00  0.00    +0.000 A 
ATOM     13  C   UNL     1       4.319   5.403  19.218  0.00  0.00    +0.000 A 
ATOM     14  C   UNL     1       4.952   4.156  19.288  0.00  0.00    +0.000 A 
ATOM     15  C   UNL     1       4.232   3.028  19.710  0.00  0.00    +0.000 A 
ATOM     16  C   UNL     1       2.880   3.162  20.075  0.00  0.00    +0.000 A 
ATOM     17  C   UNL     1       2.262   4.418  20.023  0.00  0.00    +0.000 A 
BRANCH  14  18
ATOM     18  O   UNL     1       6.260   4.044  18.967  0.00  0.00    +0.000 OA
ATOM     19  H   UNL     1       6.686   4.632  18.328  0.00  0.00    +0.000 HD
ENDBRANCH  14  18
BRANCH  15  20
ATOM     20  O   UNL     1       4.829   1.817  19.787  0.00  0.00    +0.000 OA
ATOM     21  H   UNL     1       5.126   1.329  19.006  0.00  0.00    +0.000 HD
ENDBRANCH  15  20
BRANCH  16  22
ATOM     22  O   UNL     1       2.161   2.097  20.491  0.00  0.00    +0.000 OA
ATOM     23  H   UNL     1       2.396   1.186  20.264  0.00  0.00    +0.000 HD
ENDBRANCH  16  22
ENDBRANCH   2  12
BRANCH   1  25
ATOM     24  C   UNL     1       4.189   7.549  16.905  0.00  0.00    +0.000 C 
ATOM     25  O   UNL     1       2.885   7.402  17.335  0.00  0.00    +0.000 OA
ENDBRANCH   1  25
BRANCH   6  26
ATOM     26  O   UNL     1      -0.742  10.159  23.542  0.00  0.00    +0.000 OA
ATOM     27  H   UNL     1      -0.562  10.937  24.088  0.00  0.00    +0.000 HD
ENDBRANCH   6  26
BRANCH   8  28
ATOM     28  O   UNL     1       0.953  11.778  19.368  0.00  0.00    +0.000 OA
BRANCH  28  29
ATOM     29  C   UNL     1       1.683  12.914  19.675  0.00  0.00    +0.000 C 
BRANCH  29  30
ATOM     30  C   UNL     1       2.436  13.463  18.459  0.00  0.00    +0.000 C 
BRANCH  30  31
ATOM     31  N   UNL     1       2.942  14.853  18.675  0.00  0.00    +0.000 NA
ATOM     32  C   UNL     1       3.791  15.362  17.580  0.00  0.00    +0.000 C 
ATOM     33  C   UNL     1       5.172  14.826  17.871  0.00  0.00    +0.000 C 
ATOM     34  C   UNL     1       5.264  15.183  19.334  0.00  0.00    +0.000 C 
ATOM     35  C   UNL     1       3.850  14.880  19.853  0.00  0.00    +0.000 C 
ENDBRANCH  30  31
ENDBRANCH  29  30
ENDBRANCH  28  29
ENDBRANCH   8  28
TORSDOF 10
ENDMDL
MODEL 9
REMARK VINA RESULT:      -7.3      2.817      8.103
REMARK  Name = 
REMARK  11 active torsions:
REMARK  status: ('A' for Active; 'I' for Inactive)
REMARK    1  A    between atoms: C_1  and  O_2
REMARK    2  A    between atoms: O_2  and  C_3
REMARK    3  A    between atoms: C_4  and  C_5
REMARK    4  A    between atoms: C_7  and  O_8
REMARK    5  A    between atoms: C_9  and  O_10
REMARK    6  A    between atoms: C_11  and  O_12
REMARK    7  A    between atoms: C_17  and  O_18
REMARK    8  A    between atoms: C_20  and  O_21
REMARK    9  A    between atoms: O_21  and  C_22
REMARK   10  A    between atoms: C_22  and  C_23
REMARK   11  A    between atoms: C_23  and  N_24
REMARK                            x       y       z     vdW  Elec       q    Type
REMARK                         _______ _______ _______ _____ _____    ______ ____
ROOT
ATOM      1  C   UNL     1       1.784   9.344  18.377  0.00  0.00    +0.000 A 
ATOM      2  C   UNL     1       1.040   9.310  19.582  0.00  0.00    +0.000 A 
ATOM      3  O   UNL     1       1.110   8.238  20.367  0.00  0.00    +0.000 OA
ATOM      4  C   UNL     1       1.776   7.138  20.046  0.00  0.00    +0.000 A 
ATOM      5  C   UNL     1       1.776   6.072  20.950  0.00  0.00    +0.000 A 
ATOM      6  C   UNL     1       2.427   4.879  20.627  0.00  0.00    +0.000 A 
ATOM      7  C   UNL     1       3.045   4.742  19.387  0.00  0.00    +0.000 A 
ATOM      8  C   UNL     1       3.066   5.805  18.455  0.00  0.00    +0.000 A 
ATOM      9  C   UNL     1       2.449   7.031  18.808  0.00  0.00    +0.000 A 
ATOM     10  C   UNL     1       2.473   8.171  17.986  0.00  0.00    +0.000 A 
ATOM     11  O   UNL     1       3.083   8.145  16.928  0.00  0.00    +0.000 OA
ENDROOT
BRANCH   2  12
ATOM     12  C   UNL     1       0.125  10.410  20.022  0.00  0.00    +0.000 A 
ATOM     13  C   UNL     1      -0.886  10.913  19.178  0.00  0.00    +0.000 A 
ATOM     14  C   UNL     1      -1.789  11.884  19.631  0.00  0.00    +0.000 A 
ATOM     15  C   UNL     1      -1.684  12.382  20.939  0.00  0.00    +0.000 A 
ATOM     16  C   UNL     1      -0.680  11.890  21.792  0.00  0.00    +0.000 A 
ATOM     17  C   UNL     1       0.203  10.903  21.338  0.00  0.00    +0.000 A 
BRANCH  14  18
ATOM     18  O   UNL     1      -2.770  12.325  18.814  0.00  0.00    +0.000 OA
ATOM     19  H   UNL     1      -2.813  13.242  18.508  0.00  0.00    +0.000 HD
ENDBRANCH  14  18
BRANCH  15  20
ATOM     20  O   UNL     1      -2.550  13.316  21.393  0.00  0.00    +0.000 OA
ATOM     21  H   UNL     1      -2.350  14.263  21.386  0.00  0.00    +0.000 HD
ENDBRANCH  15  20
BRANCH  16  22
ATOM     22  O   UNL     1      -0.557  12.344  23.058  0.00  0.00    +0.000 OA
ATOM     23  H   UNL     1       0.243  12.211  23.586  0.00  0.00    +0.000 HD
ENDBRANCH  16  22
ENDBRANCH   2  12
BRANCH   1  25
ATOM     24  C   UNL     1       2.560  11.640  18.030  0.00  0.00    +0.000 C 
ATOM     25  O   UNL     1       1.848  10.509  17.679  0.00  0.00    +0.000 OA
ENDBRANCH   1  25
BRANCH   6  26
ATOM     26  O   UNL     1       2.455   3.849  21.495  0.00  0.00    +0.000 OA
ATOM     27  H   UNL     1       3.153   3.180  21.477  0.00  0.00    +0.000 HD
ENDBRANCH   6  26
BRANCH   8  28
ATOM     28  O   UNL     1       3.639   5.652  17.222  0.00  0.00    +0.000 OA
BRANCH  28  29
ATOM     29  C   UNL     1       4.883   5.078  17.021  0.00  0.00    +0.000 C 
BRANCH  29  30
ATOM     30  C   UNL     1       5.777   5.936  16.120  0.00  0.00    +0.000 C 
BRANCH  30  31
ATOM     31  N   UNL     1       7.218   5.873  16.511  0.00  0.00    +0.000 NA
ATOM     32  C   UNL     1       7.525   4.840  17.519  0.00  0.00    +0.000 C 
ATOM     33  C   UNL     1       7.202   5.479  18.849  0.00  0.00    +0.000 C 
ATOM     34  C   UNL     1       7.907   6.800  18.656  0.00  0.00    +0.000 C 
ATOM     35  C   UNL     1       7.611   7.139  17.188  0.00  0.00    +0.000 C 
ENDBRANCH  30  31
ENDBRANCH  29  30
ENDBRANCH  28  29
ENDBRANCH   8  28
TORSDOF 10
ENDMDL
