MODEL 1
REMARK VINA RESULT:      -7.9      0.000      0.000
REMARK  Name = 
REMARK  5 active torsions:
REMARK  status: ('A' for Active; 'I' for Inactive)
REMARK    1  A    between atoms: C_2  and  C_4
REMARK    2  A    between atoms: N_7  and  C_8
REMARK    3  A    between atoms: C_17  and  N_18
REMARK    4  A    between atoms: N_18  and  S_19
REMARK    5  A    between atoms: S_19  and  C_22
REMARK                            x       y       z     vdW  Elec       q    Type
REMARK                         _______ _______ _______ _____ _____    ______ ____
ROOT
ATOM      1  C   UNL     1      -1.339  11.967  20.164  0.00  0.00    +0.000 A 
ATOM      2  N   UNL     1      -2.483  12.151  19.443  0.00  0.00    +0.000 NA
ATOM      3  C   UNL     1      -2.693  11.441  18.309  0.00  0.00    +0.000 A 
ATOM      4  C   UNL     1      -3.879  11.582  17.585  0.00  0.00    +0.000 A 
ATOM      5  C   UNL     1      -4.119  10.849  16.419  0.00  0.00    +0.000 A 
ATOM      6  C   UNL     1      -3.161   9.956  15.960  0.00  0.00    +0.000 A 
ATOM      7  C   UNL     1      -1.974   9.806  16.675  0.00  0.00    +0.000 A 
ATOM      8  C   UNL     1      -1.732  10.526  17.839  0.00  0.00    +0.000 A 
ATOM      9  N   UNL     1      -0.586  10.325  18.500  0.00  0.00    +0.000 NA
ATOM     10  C   UNL     1      -0.406  11.036  19.639  0.00  0.00    +0.000 A 
ENDROOT
BRANCH   1  14
ATOM     11  C   UNL     1      -1.921  14.457  23.394  0.00  0.00    +0.000 C 
ATOM     12  C   UNL     1      -2.112  12.939  23.576  0.00  0.00    +0.000 C 
ATOM     13  C   UNL     1      -1.351  12.032  22.615  0.00  0.00    +0.000 C 
ATOM     14  N   UNL     1      -1.203  12.715  21.329  0.00  0.00    +0.000 N 
ATOM     15  C   UNL     1      -0.278  13.839  21.456  0.00  0.00    +0.000 C 
ATOM     16  C   UNL     1      -0.917  14.927  22.319  0.00  0.00    +0.000 C 
BRANCH  11  18
ATOM     17  N   UNL     1      -2.830  15.640  25.318  0.00  0.00    +0.000 N 
ATOM     18  C   UNL     1      -1.695  15.126  24.749  0.00  0.00    +0.000 C 
ATOM     19  O   UNL     1      -0.612  15.236  25.310  0.00  0.00    +0.000 OA
ATOM     20  H   UNL     1      -2.736  16.163  26.178  0.00  0.00    +0.000 HD
ATOM     21  H   UNL     1      -3.719  15.643  24.841  0.00  0.00    +0.000 HD
ENDBRANCH  11  18
ENDBRANCH   1  14
BRANCH  10  22
ATOM     22  N   UNL     1       0.813  10.604  20.205  0.00  0.00    +0.000 N 
ATOM     23  H   UNL     1       1.271  11.380  20.676  0.00  0.00    +0.000 HD
BRANCH  22  24
ATOM     24  S   UNL     1       0.870   9.232  21.153  0.00  0.00    +0.000 S 
ATOM     25  O   UNL     1       1.707   9.486  22.311  0.00  0.00    +0.000 OA
ATOM     26  O   UNL     1      -0.509   8.823  21.322  0.00  0.00    +0.000 OA
BRANCH  24  27
ATOM     27  C   UNL     1       1.657   7.928  20.235  0.00  0.00    +0.000 A 
ATOM     28  C   UNL     1       1.660   6.635  20.780  0.00  0.00    +0.000 A 
ATOM     29  C   UNL     1       2.164   5.565  20.042  0.00  0.00    +0.000 A 
ATOM     30  C   UNL     1       2.664   5.789  18.761  0.00  0.00    +0.000 A 
ATOM     31 BR   UNL     1       3.365   4.338  17.770  0.00  0.00    +0.000 Br
ATOM     32  C   UNL     1       2.642   7.069  18.203  0.00  0.00    +0.000 A 
ATOM     33  C   UNL     1       2.124   8.145  18.936  0.00  0.00    +0.000 A 
ENDBRANCH  24  27
ENDBRANCH  22  24
ENDBRANCH  10  22
TORSDOF 5
ENDMDL
MODEL 2
REMARK VINA RESULT:      -7.8      0.633      1.087
REMARK  Name = 
REMARK  5 active torsions:
REMARK  status: ('A' for Active; 'I' for Inactive)
REMARK    1  A    between atoms: C_2  and  C_4
REMARK    2  A    between atoms: N_7  and  C_8
REMARK    3  A    between atoms: C_17  and  N_18
REMARK    4  A    between atoms: N_18  and  S_19
REMARK    5  A    between atoms: S_19  and  C_22
REMARK                            x       y       z     vdW  Elec       q    Type
REMARK                         _______ _______ _______ _____ _____    ______ ____
ROOT
ATOM      1  C   UNL     1      -1.462  11.902  20.406  0.00  0.00    +0.000 A 
ATOM      2  N   UNL     1      -2.594  12.082  19.664  0.00  0.00    +0.000 NA
ATOM      3  C   UNL     1      -2.750  11.424  18.491  0.00  0.00    +0.000 A 
ATOM      4  C   UNL     1      -3.921  11.560  17.743  0.00  0.00    +0.000 A 
ATOM      5  C   UNL     1      -4.106  10.879  16.536  0.00  0.00    +0.000 A 
ATOM      6  C   UNL     1      -3.105  10.045  16.059  0.00  0.00    +0.000 A 
ATOM      7  C   UNL     1      -1.931   9.900  16.797  0.00  0.00    +0.000 A 
ATOM      8  C   UNL     1      -1.745  10.568  18.002  0.00  0.00    +0.000 A 
ATOM      9  N   UNL     1      -0.609  10.374  18.683  0.00  0.00    +0.000 NA
ATOM     10  C   UNL     1      -0.484  11.032  19.860  0.00  0.00    +0.000 A 
ENDROOT
BRANCH   1  14
ATOM     11  C   UNL     1      -1.992  14.518  23.544  0.00  0.00    +0.000 C 
ATOM     12  C   UNL     1      -2.687  13.145  23.590  0.00  0.00    +0.000 C 
ATOM     13  C   UNL     1      -2.042  12.021  22.785  0.00  0.00    +0.000 C 
ATOM     14  N   UNL     1      -1.383  12.594  21.610  0.00  0.00    +0.000 N 
ATOM     15  C   UNL     1      -0.211  13.367  22.013  0.00  0.00    +0.000 C 
ATOM     16  C   UNL     1      -0.665  14.621  22.762  0.00  0.00    +0.000 C 
BRANCH  11  18
ATOM     17  N   UNL     1      -0.827  15.940  25.139  0.00  0.00    +0.000 N 
ATOM     18  C   UNL     1      -1.900  15.111  24.948  0.00  0.00    +0.000 C 
ATOM     19  O   UNL     1      -2.681  14.882  25.864  0.00  0.00    +0.000 OA
ATOM     20  H   UNL     1      -0.667  16.304  26.069  0.00  0.00    +0.000 HD
ATOM     21  H   UNL     1      -0.119  16.079  24.434  0.00  0.00    +0.000 HD
ENDBRANCH  11  18
ENDBRANCH   1  14
BRANCH  10  22
ATOM     22  N   UNL     1       0.735  10.614  20.436  0.00  0.00    +0.000 N 
ATOM     23  H   UNL     1       1.150  11.378  20.963  0.00  0.00    +0.000 HD
BRANCH  22  24
ATOM     24  S   UNL     1       0.821   9.193  21.308  0.00  0.00    +0.000 S 
ATOM     25  O   UNL     1       1.731   9.371  22.422  0.00  0.00    +0.000 OA
ATOM     26  O   UNL     1      -0.554   8.802  21.540  0.00  0.00    +0.000 OA
BRANCH  24  27
ATOM     27  C   UNL     1       1.522   7.925  20.277  0.00  0.00    +0.000 A 
ATOM     28  C   UNL     1       2.050   8.293  19.031  0.00  0.00    +0.000 A 
ATOM     29  C   UNL     1       2.711   7.351  18.243  0.00  0.00    +0.000 A 
ATOM     30  C   UNL     1       2.842   6.042  18.703  0.00  0.00    +0.000 A 
ATOM     31 BR   UNL     1       3.721   4.761  17.625  0.00  0.00    +0.000 Br
ATOM     32  C   UNL     1       2.338   5.674  19.953  0.00  0.00    +0.000 A 
ATOM     33  C   UNL     1       1.686   6.622  20.754  0.00  0.00    +0.000 A 
ENDBRANCH  24  27
ENDBRANCH  22  24
ENDBRANCH  10  22
TORSDOF 5
ENDMDL
MODEL 3
REMARK VINA RESULT:      -7.6      2.786      4.059
REMARK  Name = 
REMARK  5 active torsions:
REMARK  status: ('A' for Active; 'I' for Inactive)
REMARK    1  A    between atoms: C_2  and  C_4
REMARK    2  A    between atoms: N_7  and  C_8
REMARK    3  A    between atoms: C_17  and  N_18
REMARK    4  A    between atoms: N_18  and  S_19
REMARK    5  A    between atoms: S_19  and  C_22
REMARK                            x       y       z     vdW  Elec       q    Type
REMARK                         _______ _______ _______ _____ _____    ______ ____
ROOT
ATOM      1  C   UNL     1       0.198  13.988  20.576  0.00  0.00    +0.000 A 
ATOM      2  N   UNL     1       0.376  15.184  19.942  0.00  0.00    +0.000 NA
ATOM      3  C   UNL     1       1.440  15.369  19.124  0.00  0.00    +0.000 A 
ATOM      4  C   UNL     1       1.611  16.570  18.432  0.00  0.00    +0.000 A 
ATOM      5  C   UNL     1       2.695  16.774  17.574  0.00  0.00    +0.000 A 
ATOM      6  C   UNL     1       3.632  15.765  17.400  0.00  0.00    +0.000 A 
ATOM      7  C   UNL     1       3.471  14.562  18.084  0.00  0.00    +0.000 A 
ATOM      8  C   UNL     1       2.391  14.349  18.933  0.00  0.00    +0.000 A 
ATOM      9  N   UNL     1       2.271  13.166  19.546  0.00  0.00    +0.000 NA
ATOM     10  C   UNL     1       1.191  13.001  20.348  0.00  0.00    +0.000 A 
ENDROOT
BRANCH   1  14
ATOM     11  C   UNL     1      -2.588  12.848  23.388  0.00  0.00    +0.000 C 
ATOM     12  C   UNL     1      -1.652  14.031  23.700  0.00  0.00    +0.000 C 
ATOM     13  C   UNL     1      -1.085  14.790  22.505  0.00  0.00    +0.000 C 
ATOM     14  N   UNL     1      -0.929  13.866  21.382  0.00  0.00    +0.000 N 
ATOM     15  C   UNL     1      -2.238  13.464  20.870  0.00  0.00    +0.000 C 
ATOM     16  C   UNL     1      -2.939  12.585  21.907  0.00  0.00    +0.000 C 
BRANCH  11  18
ATOM     17  N   UNL     1      -3.973  14.078  24.967  0.00  0.00    +0.000 N 
ATOM     18  C   UNL     1      -3.820  12.898  24.289  0.00  0.00    +0.000 C 
ATOM     19  O   UNL     1      -4.622  11.985  24.440  0.00  0.00    +0.000 OA
ATOM     20  H   UNL     1      -4.727  14.147  25.638  0.00  0.00    +0.000 HD
ATOM     21  H   UNL     1      -3.285  14.815  24.931  0.00  0.00    +0.000 HD
ENDBRANCH  11  18
ENDBRANCH   1  14
BRANCH  10  22
ATOM     22  N   UNL     1       1.224  11.669  20.812  0.00  0.00    +0.000 N 
ATOM     23  H   UNL     1       1.112  11.651  21.823  0.00  0.00    +0.000 HD
BRANCH  22  24
ATOM     24  S   UNL     1       0.272  10.497  20.102  0.00  0.00    +0.000 S 
ATOM     25  O   UNL     1      -0.564   9.881  21.114  0.00  0.00    +0.000 OA
ATOM     26  O   UNL     1      -0.326  11.136  18.947  0.00  0.00    +0.000 OA
BRANCH  24  27
ATOM     27  C   UNL     1       1.321   9.212  19.460  0.00  0.00    +0.000 A 
ATOM     28  C   UNL     1       1.582   8.097  20.270  0.00  0.00    +0.000 A 
ATOM     29  C   UNL     1       2.305   7.017  19.763  0.00  0.00    +0.000 A 
ATOM     30  C   UNL     1       2.763   7.053  18.448  0.00  0.00    +0.000 A 
ATOM     31 BR   UNL     1       3.759   5.596  17.769  0.00  0.00    +0.000 Br
ATOM     32  C   UNL     1       2.486   8.151  17.629  0.00  0.00    +0.000 A 
ATOM     33  C   UNL     1       1.749   9.232  18.130  0.00  0.00    +0.000 A 
ENDBRANCH  24  27
ENDBRANCH  22  24
ENDBRANCH  10  22
TORSDOF 5
ENDMDL
MODEL 4
REMARK VINA RESULT:      -7.6      0.691      1.150
REMARK  Name = 
REMARK  5 active torsions:
REMARK  status: ('A' for Active; 'I' for Inactive)
REMARK    1  A    between atoms: C_2  and  C_4
REMARK    2  A    between atoms: N_7  and  C_8
REMARK    3  A    between atoms: C_17  and  N_18
REMARK    4  A    between atoms: N_18  and  S_19
REMARK    5  A    between atoms: S_19  and  C_22
REMARK                            x       y       z     vdW  Elec       q    Type
REMARK                         _______ _______ _______ _____ _____    ______ ____
ROOT
ATOM      1  C   UNL     1      -1.937  12.083  19.949  0.00  0.00    +0.000 A 
ATOM      2  N   UNL     1      -3.028  12.109  19.128  0.00  0.00    +0.000 NA
ATOM      3  C   UNL     1      -3.032  11.391  17.979  0.00  0.00    +0.000 A 
ATOM      4  C   UNL     1      -4.157  11.370  17.153  0.00  0.00    +0.000 A 
ATOM      5  C   UNL     1      -4.184  10.625  15.970  0.00  0.00    +0.000 A 
ATOM      6  C   UNL     1      -3.070   9.886  15.598  0.00  0.00    +0.000 A 
ATOM      7  C   UNL     1      -1.942   9.899  16.416  0.00  0.00    +0.000 A 
ATOM      8  C   UNL     1      -1.911  10.631  17.597  0.00  0.00    +0.000 A 
ATOM      9  N   UNL     1      -0.811  10.589  18.358  0.00  0.00    +0.000 NA
ATOM     10  C   UNL     1      -0.837  11.303  19.509  0.00  0.00    +0.000 A 
ENDROOT
BRANCH   1  14
ATOM     11  C   UNL     1      -1.158  14.033  23.492  0.00  0.00    +0.000 C 
ATOM     12  C   UNL     1      -1.132  14.834  22.177  0.00  0.00    +0.000 C 
ATOM     13  C   UNL     1      -1.966  14.287  21.024  0.00  0.00    +0.000 C 
ATOM     14  N   UNL     1      -2.015  12.827  21.121  0.00  0.00    +0.000 N 
ATOM     15  C   UNL     1      -2.819  12.423  22.273  0.00  0.00    +0.000 C 
ATOM     16  C   UNL     1      -2.085  12.800  23.561  0.00  0.00    +0.000 C 
BRANCH  11  18
ATOM     17  N   UNL     1      -2.627  15.069  25.135  0.00  0.00    +0.000 N 
ATOM     18  C   UNL     1      -1.338  14.976  24.681  0.00  0.00    +0.000 C 
ATOM     19  O   UNL     1      -0.444  15.628  25.206  0.00  0.00    +0.000 OA
ATOM     20  H   UNL     1      -2.825  15.734  25.870  0.00  0.00    +0.000 HD
ATOM     21  H   UNL     1      -3.397  14.613  24.670  0.00  0.00    +0.000 HD
ENDBRANCH  11  18
ENDBRANCH   1  14
BRANCH  10  22
ATOM     22  N   UNL     1       0.377  11.044  20.181  0.00  0.00    +0.000 N 
ATOM     23  H   UNL     1       0.664  11.865  20.707  0.00  0.00    +0.000 HD
BRANCH  22  24
ATOM     24  S   UNL     1       0.558   9.667  21.107  0.00  0.00    +0.000 S 
ATOM     25  O   UNL     1       1.361   9.979  22.274  0.00  0.00    +0.000 OA
ATOM     26  O   UNL     1      -0.778   9.128  21.260  0.00  0.00    +0.000 OA
BRANCH  24  27
ATOM     27  C   UNL     1       1.468   8.458  20.172  0.00  0.00    +0.000 A 
ATOM     28  C   UNL     1       1.647   7.182  20.727  0.00  0.00    +0.000 A 
ATOM     29  C   UNL     1       2.254   6.173  19.980  0.00  0.00    +0.000 A 
ATOM     30  C   UNL     1       2.681   6.441  18.681  0.00  0.00    +0.000 A 
ATOM     31 BR   UNL     1       3.521   5.076  17.678  0.00  0.00    +0.000 Br
ATOM     32  C   UNL     1       2.485   7.703  18.115  0.00  0.00    +0.000 A 
ATOM     33  C   UNL     1       1.863   8.716  18.857  0.00  0.00    +0.000 A 
ENDBRANCH  24  27
ENDBRANCH  22  24
ENDBRANCH  10  22
TORSDOF 5
ENDMDL
MODEL 5
REMARK VINA RESULT:      -7.4      2.327      5.935
REMARK  Name = 
REMARK  5 active torsions:
REMARK  status: ('A' for Active; 'I' for Inactive)
REMARK    1  A    between atoms: C_2  and  C_4
REMARK    2  A    between atoms: N_7  and  C_8
REMARK    3  A    between atoms: C_17  and  N_18
REMARK    4  A    between atoms: N_18  and  S_19
REMARK    5  A    between atoms: S_19  and  C_22
REMARK                            x       y       z     vdW  Elec       q    Type
REMARK                         _______ _______ _______ _____ _____    ______ ____
ROOT
ATOM      1  C   UNL     1      -2.886  11.848  19.444  0.00  0.00    +0.000 A 
ATOM      2  N   UNL     1      -3.889  12.577  20.015  0.00  0.00    +0.000 NA
ATOM      3  C   UNL     1      -3.698  13.175  21.216  0.00  0.00    +0.000 A 
ATOM      4  C   UNL     1      -4.696  13.962  21.791  0.00  0.00    +0.000 A 
ATOM      5  C   UNL     1      -4.511  14.597  23.023  0.00  0.00    +0.000 A 
ATOM      6  C   UNL     1      -3.310  14.446  23.700  0.00  0.00    +0.000 A 
ATOM      7  C   UNL     1      -2.304  13.663  23.134  0.00  0.00    +0.000 A 
ATOM      8  C   UNL     1      -2.479  13.035  21.906  0.00  0.00    +0.000 A 
ATOM      9  N   UNL     1      -1.472  12.316  21.397  0.00  0.00    +0.000 NA
ATOM     10  C   UNL     1      -1.684  11.741  20.188  0.00  0.00    +0.000 A 
ENDROOT
BRANCH   1  14
ATOM     11  C   UNL     1      -2.907  10.823  15.454  0.00  0.00    +0.000 C 
ATOM     12  C   UNL     1      -2.116   9.950  16.446  0.00  0.00    +0.000 C 
ATOM     13  C   UNL     1      -2.580   9.969  17.898  0.00  0.00    +0.000 C 
ATOM     14  N   UNL     1      -3.150  11.284  18.200  0.00  0.00    +0.000 N 
ATOM     15  C   UNL     1      -4.416  11.462  17.493  0.00  0.00    +0.000 C 
ATOM     16  C   UNL     1      -4.145  11.573  15.991  0.00  0.00    +0.000 C 
BRANCH  11  18
ATOM     17  N   UNL     1      -4.527   9.794  13.957  0.00  0.00    +0.000 N 
ATOM     18  C   UNL     1      -3.198  10.039  14.176  0.00  0.00    +0.000 C 
ATOM     19  O   UNL     1      -2.351   9.627  13.392  0.00  0.00    +0.000 OA
ATOM     20  H   UNL     1      -4.780   9.214  13.168  0.00  0.00    +0.000 HD
ATOM     21  H   UNL     1      -5.240  10.043  14.626  0.00  0.00    +0.000 HD
ENDBRANCH  11  18
ENDBRANCH   1  14
BRANCH  10  22
ATOM     22  N   UNL     1      -0.475  11.115  19.814  0.00  0.00    +0.000 N 
ATOM     23  H   UNL     1       0.179  11.807  19.460  0.00  0.00    +0.000 HD
BRANCH  22  24
ATOM     24  S   UNL     1       0.297  10.066  20.858  0.00  0.00    +0.000 S 
ATOM     25  O   UNL     1       1.175  10.822  21.732  0.00  0.00    +0.000 OA
ATOM     26  O   UNL     1      -0.751   9.235  21.414  0.00  0.00    +0.000 OA
BRANCH  24  27
ATOM     27  C   UNL     1       1.338   8.974  19.915  0.00  0.00    +0.000 A 
ATOM     28  C   UNL     1       1.726   7.757  20.495  0.00  0.00    +0.000 A 
ATOM     29  C   UNL     1       2.445   6.824  19.748  0.00  0.00    +0.000 A 
ATOM     30  C   UNL     1       2.774   7.110  18.425  0.00  0.00    +0.000 A 
ATOM     31 BR   UNL     1       3.766   5.851  17.420  0.00  0.00    +0.000 Br
ATOM     32  C   UNL     1       2.370   8.310  17.835  0.00  0.00    +0.000 A 
ATOM     33  C   UNL     1       1.636   9.245  18.577  0.00  0.00    +0.000 A 
ENDBRANCH  24  27
ENDBRANCH  22  24
ENDBRANCH  10  22
TORSDOF 5
ENDMDL
MODEL 6
REMARK VINA RESULT:      -7.4      2.531      3.671
REMARK  Name = 
REMARK  5 active torsions:
REMARK  status: ('A' for Active; 'I' for Inactive)
REMARK    1  A    between atoms: C_2  and  C_4
REMARK    2  A    between atoms: N_7  and  C_8
REMARK    3  A    between atoms: C_17  and  N_18
REMARK    4  A    between atoms: N_18  and  S_19
REMARK    5  A    between atoms: S_19  and  C_22
REMARK                            x       y       z     vdW  Elec       q    Type
REMARK                         _______ _______ _______ _____ _____    ______ ____
ROOT
ATOM      1  C   UNL     1      -0.577  12.771  20.675  0.00  0.00    +0.000 A 
ATOM      2  N   UNL     1      -0.111  14.046  20.526  0.00  0.00    +0.000 NA
ATOM      3  C   UNL     1       0.966  14.288  19.740  0.00  0.00    +0.000 A 
ATOM      4  C   UNL     1       1.426  15.591  19.539  0.00  0.00    +0.000 A 
ATOM      5  C   UNL     1       2.528  15.862  18.722  0.00  0.00    +0.000 A 
ATOM      6  C   UNL     1       3.188  14.817  18.091  0.00  0.00    +0.000 A 
ATOM      7  C   UNL     1       2.737  13.512  18.284  0.00  0.00    +0.000 A 
ATOM      8  C   UNL     1       1.637  13.237  19.089  0.00  0.00    +0.000 A 
ATOM      9  N   UNL     1       1.230  11.968  19.219  0.00  0.00    +0.000 NA
ATOM     10  C   UNL     1       0.143  11.754  19.998  0.00  0.00    +0.000 A 
ENDROOT
BRANCH   1  14
ATOM     11  C   UNL     1      -3.818  13.308  23.161  0.00  0.00    +0.000 C 
ATOM     12  C   UNL     1      -4.048  13.222  21.641  0.00  0.00    +0.000 C 
ATOM     13  C   UNL     1      -3.004  12.461  20.831  0.00  0.00    +0.000 C 
ATOM     14  N   UNL     1      -1.700  12.603  21.479  0.00  0.00    +0.000 N 
ATOM     15  C   UNL     1      -1.677  11.866  22.741  0.00  0.00    +0.000 C 
ATOM     16  C   UNL     1      -2.605  12.552  23.745  0.00  0.00    +0.000 C 
BRANCH  11  18
ATOM     17  N   UNL     1      -5.094  11.855  24.640  0.00  0.00    +0.000 N 
ATOM     18  C   UNL     1      -5.116  13.014  23.910  0.00  0.00    +0.000 C 
ATOM     19  O   UNL     1      -6.123  13.710  23.878  0.00  0.00    +0.000 OA
ATOM     20  H   UNL     1      -5.948  11.564  25.097  0.00  0.00    +0.000 HD
ATOM     21  H   UNL     1      -4.312  11.217  24.617  0.00  0.00    +0.000 HD
ENDBRANCH  11  18
ENDBRANCH   1  14
BRANCH  10  22
ATOM     22  N   UNL     1      -0.152  10.376  19.921  0.00  0.00    +0.000 N 
ATOM     23  H   UNL     1      -0.023  10.046  18.968  0.00  0.00    +0.000 HD
BRANCH  22  24
ATOM     24  S   UNL     1       0.523   9.301  21.004  0.00  0.00    +0.000 S 
ATOM     25  O   UNL     1       1.418  10.017  21.893  0.00  0.00    +0.000 OA
ATOM     26  O   UNL     1      -0.590   8.544  21.539  0.00  0.00    +0.000 OA
BRANCH  24  27
ATOM     27  C   UNL     1       1.523   8.132  20.111  0.00  0.00    +0.000 A 
ATOM     28  C   UNL     1       1.692   6.849  20.651  0.00  0.00    +0.000 A 
ATOM     29  C   UNL     1       2.373   5.869  19.928  0.00  0.00    +0.000 A 
ATOM     30  C   UNL     1       2.882   6.174  18.668  0.00  0.00    +0.000 A 
ATOM     31 BR   UNL     1       3.821   4.850  17.698  0.00  0.00    +0.000 Br
ATOM     32  C   UNL     1       2.697   7.444  18.115  0.00  0.00    +0.000 A 
ATOM     33  C   UNL     1       2.002   8.427  18.832  0.00  0.00    +0.000 A 
ENDBRANCH  24  27
ENDBRANCH  22  24
ENDBRANCH  10  22
TORSDOF 5
ENDMDL
MODEL 7
REMARK VINA RESULT:      -7.4      7.573     10.271
REMARK  Name = 
REMARK  5 active torsions:
REMARK  status: ('A' for Active; 'I' for Inactive)
REMARK    1  A    between atoms: C_2  and  C_4
REMARK    2  A    between atoms: N_7  and  C_8
REMARK    3  A    between atoms: C_17  and  N_18
REMARK    4  A    between atoms: N_18  and  S_19
REMARK    5  A    between atoms: S_19  and  C_22
REMARK                            x       y       z     vdW  Elec       q    Type
REMARK                         _______ _______ _______ _____ _____    ______ ____
ROOT
ATOM      1  C   UNL     1       5.100   3.611  16.444  0.00  0.00    +0.000 A 
ATOM      2  N   UNL     1       4.688   3.504  15.147  0.00  0.00    +0.000 NA
ATOM      3  C   UNL     1       5.520   3.854  14.137  0.00  0.00    +0.000 A 
ATOM      4  C   UNL     1       5.132   3.706  12.805  0.00  0.00    +0.000 A 
ATOM      5  C   UNL     1       5.982   4.050  11.750  0.00  0.00    +0.000 A 
ATOM      6  C   UNL     1       7.246   4.554  12.023  0.00  0.00    +0.000 A 
ATOM      7  C   UNL     1       7.645   4.705  13.349  0.00  0.00    +0.000 A 
ATOM      8  C   UNL     1       6.808   4.357  14.403  0.00  0.00    +0.000 A 
ATOM      9  N   UNL     1       7.251   4.499  15.658  0.00  0.00    +0.000 NA
ATOM     10  C   UNL     1       6.405   4.128  16.649  0.00  0.00    +0.000 A 
ENDROOT
BRANCH   1  14
ATOM     11  C   UNL     1       2.660   3.360  19.753  0.00  0.00    +0.000 C 
ATOM     12  C   UNL     1       2.053   3.803  18.409  0.00  0.00    +0.000 C 
ATOM     13  C   UNL     1       2.767   3.334  17.146  0.00  0.00    +0.000 C 
ATOM     14  N   UNL     1       4.199   3.210  17.425  0.00  0.00    +0.000 N 
ATOM     15  C   UNL     1       4.445   2.087  18.327  0.00  0.00    +0.000 C 
ATOM     16  C   UNL     1       3.881   2.416  19.710  0.00  0.00    +0.000 C 
BRANCH  11  18
ATOM     17  N   UNL     1       0.298   2.940  20.167  0.00  0.00    +0.000 N 
ATOM     18  C   UNL     1       1.561   2.865  20.691  0.00  0.00    +0.000 C 
ATOM     19  O   UNL     1       1.739   2.445  21.828  0.00  0.00    +0.000 OA
ATOM     20  H   UNL     1      -0.481   2.699  20.765  0.00  0.00    +0.000 HD
ATOM     21  H   UNL     1       0.110   3.360  19.269  0.00  0.00    +0.000 HD
ENDBRANCH  11  18
ENDBRANCH   1  14
BRANCH  10  22
ATOM     22  N   UNL     1       7.105   4.281  17.865  0.00  0.00    +0.000 N 
ATOM     23  H   UNL     1       8.090   4.067  17.728  0.00  0.00    +0.000 HD
BRANCH  22  24
ATOM     24  S   UNL     1       6.934   5.669  18.775  0.00  0.00    +0.000 S 
ATOM     25  O   UNL     1       6.931   5.320  20.183  0.00  0.00    +0.000 OA
ATOM     26  O   UNL     1       7.916   6.596  18.252  0.00  0.00    +0.000 OA
BRANCH  24  27
ATOM     27  C   UNL     1       5.346   6.394  18.430  0.00  0.00    +0.000 A 
ATOM     28  C   UNL     1       4.334   6.275  19.393  0.00  0.00    +0.000 A 
ATOM     29  C   UNL     1       3.114   6.925  19.212  0.00  0.00    +0.000 A 
ATOM     30  C   UNL     1       2.909   7.694  18.068  0.00  0.00    +0.000 A 
ATOM     31 BR   UNL     1       1.246   8.559  17.815  0.00  0.00    +0.000 Br
ATOM     32  C   UNL     1       3.921   7.836  17.116  0.00  0.00    +0.000 A 
ATOM     33  C   UNL     1       5.153   7.195  17.301  0.00  0.00    +0.000 A 
ENDBRANCH  24  27
ENDBRANCH  22  24
ENDBRANCH  10  22
TORSDOF 5
ENDMDL
MODEL 8
REMARK VINA RESULT:      -7.3      0.747      1.401
REMARK  Name = 
REMARK  5 active torsions:
REMARK  status: ('A' for Active; 'I' for Inactive)
REMARK    1  A    between atoms: C_2  and  C_4
REMARK    2  A    between atoms: N_7  and  C_8
REMARK    3  A    between atoms: C_17  and  N_18
REMARK    4  A    between atoms: N_18  and  S_19
REMARK    5  A    between atoms: S_19  and  C_22
REMARK                            x       y       z     vdW  Elec       q    Type
REMARK                         _______ _______ _______ _____ _____    ______ ____
ROOT
ATOM      1  C   UNL     1      -1.761  12.225  19.840  0.00  0.00    +0.000 A 
ATOM      2  N   UNL     1      -2.852  12.255  19.020  0.00  0.00    +0.000 NA
ATOM      3  C   UNL     1      -2.908  11.451  17.931  0.00  0.00    +0.000 A 
ATOM      4  C   UNL     1      -4.036  11.436  17.109  0.00  0.00    +0.000 A 
ATOM      5  C   UNL     1      -4.117  10.604  15.989  0.00  0.00    +0.000 A 
ATOM      6  C   UNL     1      -3.053   9.770  15.675  0.00  0.00    +0.000 A 
ATOM      7  C   UNL     1      -1.921   9.776  16.488  0.00  0.00    +0.000 A 
ATOM      8  C   UNL     1      -1.838  10.595  17.609  0.00  0.00    +0.000 A 
ATOM      9  N   UNL     1      -0.739  10.543  18.370  0.00  0.00    +0.000 NA
ATOM     10  C   UNL     1      -0.714  11.345  19.461  0.00  0.00    +0.000 A 
ENDROOT
BRANCH   1  14
ATOM     11  C   UNL     1      -1.401  13.875  23.596  0.00  0.00    +0.000 C 
ATOM     12  C   UNL     1      -0.319  14.174  22.542  0.00  0.00    +0.000 C 
ATOM     13  C   UNL     1      -0.740  14.077  21.080  0.00  0.00    +0.000 C 
ATOM     14  N   UNL     1      -1.786  13.061  20.951  0.00  0.00    +0.000 N 
ATOM     15  C   UNL     1      -3.023  13.525  21.575  0.00  0.00    +0.000 C 
ATOM     16  C   UNL     1      -2.832  13.589  23.091  0.00  0.00    +0.000 C 
BRANCH  11  18
ATOM     17  N   UNL     1      -2.489  14.963  25.483  0.00  0.00    +0.000 N 
ATOM     18  C   UNL     1      -1.363  14.927  24.704  0.00  0.00    +0.000 C 
ATOM     19  O   UNL     1      -0.440  15.705  24.908  0.00  0.00    +0.000 OA
ATOM     20  H   UNL     1      -2.558  15.688  26.185  0.00  0.00    +0.000 HD
ATOM     21  H   UNL     1      -3.300  14.396  25.287  0.00  0.00    +0.000 HD
ENDBRANCH  11  18
ENDBRANCH   1  14
BRANCH  10  22
ATOM     22  N   UNL     1       0.485  11.064  20.151  0.00  0.00    +0.000 N 
ATOM     23  H   UNL     1       0.783  11.881  20.677  0.00  0.00    +0.000 HD
BRANCH  22  24
ATOM     24  S   UNL     1       0.625   9.688  21.085  0.00  0.00    +0.000 S 
ATOM     25  O   UNL     1       1.514   9.955  22.199  0.00  0.00    +0.000 OA
ATOM     26  O   UNL     1      -0.733   9.244  21.321  0.00  0.00    +0.000 OA
BRANCH  24  27
ATOM     27  C   UNL     1       1.395   8.409  20.118  0.00  0.00    +0.000 A 
ATOM     28  C   UNL     1       1.844   8.727  18.828  0.00  0.00    +0.000 A 
ATOM     29  C   UNL     1       2.554   7.787  18.081  0.00  0.00    +0.000 A 
ATOM     30  C   UNL     1       2.814   6.531  18.627  0.00  0.00    +0.000 A 
ATOM     31 BR   UNL     1       3.760   5.251  17.606  0.00  0.00    +0.000 Br
ATOM     32  C   UNL     1       2.389   6.216  19.920  0.00  0.00    +0.000 A 
ATOM     33  C   UNL     1       1.687   7.163  20.678  0.00  0.00    +0.000 A 
ENDBRANCH  24  27
ENDBRANCH  22  24
ENDBRANCH  10  22
TORSDOF 5
ENDMDL
MODEL 9
REMARK VINA RESULT:      -7.3      2.693      4.073
REMARK  Name = 
REMARK  5 active torsions:
REMARK  status: ('A' for Active; 'I' for Inactive)
REMARK    1  A    between atoms: C_2  and  C_4
REMARK    2  A    between atoms: N_7  and  C_8
REMARK    3  A    between atoms: C_17  and  N_18
REMARK    4  A    between atoms: N_18  and  S_19
REMARK    5  A    between atoms: S_19  and  C_22
REMARK                            x       y       z     vdW  Elec       q    Type
REMARK                         _______ _______ _______ _____ _____    ______ ____
ROOT
ATOM      1  C   UNL     1      -0.172  13.837  20.371  0.00  0.00    +0.000 A 
ATOM      2  N   UNL     1       0.444  15.049  20.246  0.00  0.00    +0.000 NA
ATOM      3  C   UNL     1       1.506  15.190  19.417  0.00  0.00    +0.000 A 
ATOM      4  C   UNL     1       2.117  16.433  19.242  0.00  0.00    +0.000 A 
ATOM      5  C   UNL     1       3.206  16.601  18.382  0.00  0.00    +0.000 A 
ATOM      6  C   UNL     1       3.701  15.510  17.680  0.00  0.00    +0.000 A 
ATOM      7  C   UNL     1       3.098  14.265  17.846  0.00  0.00    +0.000 A 
ATOM      8  C   UNL     1       2.009  14.093  18.694  0.00  0.00    +0.000 A 
ATOM      9  N   UNL     1       1.453  12.880  18.797  0.00  0.00    +0.000 NA
ATOM     10  C   UNL     1       0.383  12.768  19.621  0.00  0.00    +0.000 A 
ENDROOT
BRANCH   1  14
ATOM     11  C   UNL     1      -3.023  12.718  23.126  0.00  0.00    +0.000 C 
ATOM     12  C   UNL     1      -1.858  13.619  23.579  0.00  0.00    +0.000 C 
ATOM     13  C   UNL     1      -1.196  14.476  22.505  0.00  0.00    +0.000 C 
ATOM     14  N   UNL     1      -1.271  13.775  21.223  0.00  0.00    +0.000 N 
ATOM     15  C   UNL     1      -2.651  13.735  20.746  0.00  0.00    +0.000 C 
ATOM     16  C   UNL     1      -3.474  12.819  21.653  0.00  0.00    +0.000 C 
BRANCH  11  18
ATOM     17  N   UNL     1      -4.590  14.107  24.368  0.00  0.00    +0.000 N 
ATOM     18  C   UNL     1      -4.185  12.824  24.111  0.00  0.00    +0.000 C 
ATOM     19  O   UNL     1      -4.731  11.877  24.664  0.00  0.00    +0.000 OA
ATOM     20  H   UNL     1      -5.305  14.249  25.069  0.00  0.00    +0.000 HD
ATOM     21  H   UNL     1      -4.106  14.910  23.997  0.00  0.00    +0.000 HD
ENDBRANCH  11  18
ENDBRANCH   1  14
BRANCH  10  22
ATOM     22  N   UNL     1      -0.086  11.442  19.507  0.00  0.00    +0.000 N 
ATOM     23  H   UNL     1       0.052  11.105  18.558  0.00  0.00    +0.000 HD
BRANCH  22  24
ATOM     24  S   UNL     1       0.380  10.279  20.610  0.00  0.00    +0.000 S 
ATOM     25  O   UNL     1       1.309  10.864  21.557  0.00  0.00    +0.000 OA
ATOM     26  O   UNL     1      -0.852   9.672  21.071  0.00  0.00    +0.000 OA
BRANCH  24  27
ATOM     27  C   UNL     1       1.267   8.995  19.755  0.00  0.00    +0.000 A 
ATOM     28  C   UNL     1       1.713   9.248  18.450  0.00  0.00    +0.000 A 
ATOM     29  C   UNL     1       2.509   8.313  17.789  0.00  0.00    +0.000 A 
ATOM     30  C   UNL     1       2.857   7.129  18.434  0.00  0.00    +0.000 A 
ATOM     31 BR   UNL     1       3.920   5.853  17.528  0.00  0.00    +0.000 Br
ATOM     32  C   UNL     1       2.434   6.881  19.742  0.00  0.00    +0.000 A 
ATOM     33  C   UNL     1       1.646   7.824  20.415  0.00  0.00    +0.000 A 
ENDBRANCH  24  27
ENDBRANCH  22  24
ENDBRANCH  10  22
TORSDOF 5
ENDMDL
