MODEL 1
REMARK VINA RESULT:      -8.8      0.000      0.000
REMARK  Name = 
REMARK  12 active torsions:
REMARK  status: ('A' for Active; 'I' for Inactive)
REMARK    1  A    between atoms: C_1  and  C_2
REMARK    2  A    between atoms: C_2  and  C_3
REMARK    3  A    between atoms: C_3  and  C_4
REMARK    4  A    between atoms: C_4  and  C_5
REMARK    5  A    between atoms: C_5  and  C_6
REMARK    6  A    between atoms: N_8  and  C_9
REMARK    7  A    between atoms: C_9  and  C_10
REMARK    8  A    between atoms: C_9  and  C_21
REMARK    9  A    between atoms: C_15  and  C_16
REMARK   10  A    between atoms: C_24  and  O_25
REMARK   11  A    between atoms: O_25  and  C_26
REMARK   12  A    between atoms: C_26  and  C_27
REMARK                            x       y       z     vdW  Elec       q    Type
REMARK                         _______ _______ _______ _____ _____    ______ ____
ROOT
ATOM      1  C   UNL     1       5.564   5.051  17.095  0.00  0.00    +0.000 C 
ENDROOT
BRANCH   1   2
ATOM      2  C   UNL     1       4.109   5.576  17.483  0.00  0.00    +0.000 C 
ATOM      3  O   UNL     1       3.666   6.617  16.953  0.00  0.00    +0.000 OA
ATOM      4  N   UNL     1       3.306   4.842  18.368  0.00  0.00    +0.000 N 
ATOM      5  C   UNL     1       1.924   5.256  18.647  0.00  0.00    +0.000 C 
ATOM      6  C   UNL     1       1.678   5.533  20.143  0.00  0.00    +0.000 C 
ATOM      7  C   UNL     1       2.263   4.443  21.073  0.00  0.00    +0.000 C 
ATOM      8  C   UNL     1       3.727   4.192  20.667  0.00  0.00    +0.000 C 
ATOM      9  C   UNL     1       3.752   3.735  19.204  0.00  0.00    +0.000 C 
BRANCH   7  10
ATOM     10  C   UNL     1       1.434   3.163  21.038  0.00  0.00    +0.000 C 
ATOM     11  N   UNL     1       0.665   2.929  19.940  0.00  0.00    +0.000 N 
ATOM     12  O   UNL     1       1.439   2.332  21.951  0.00  0.00    +0.000 OA
ATOM     13  H   UNL     1       0.437   3.621  19.238  0.00  0.00    +0.000 HD
ATOM     14  H   UNL     1       0.062   2.116  19.993  0.00  0.00    +0.000 HD
ENDBRANCH   7  10
ENDBRANCH   1   2
BRANCH   1  15
ATOM     15  C   UNL     1       6.692   5.993  17.513  0.00  0.00    +0.000 A 
ATOM     16  C   UNL     1       7.443   5.776  18.681  0.00  0.00    +0.000 A 
ATOM     17  C   UNL     1       8.228   6.802  19.208  0.00  0.00    +0.000 A 
ATOM     18  C   UNL     1       8.247   8.067  18.614  0.00  0.00    +0.000 A 
ATOM     19  C   UNL     1       7.551   8.255  17.427  0.00  0.00    +0.000 A 
ATOM     20  C   UNL     1       6.910   7.179  16.816  0.00  0.00    +0.000 A 
BRANCH  18  21
ATOM     21  O   UNL     1       8.957   9.104  19.174  0.00  0.00    +0.000 OA
BRANCH  21  22
ATOM     22  C   UNL     1       8.926  10.292  18.356  0.00  0.00    +0.000 C 
BRANCH  22  23
ATOM     23  C   UNL     1      10.100  11.194  18.599  0.00  0.00    +0.000 A 
ATOM     24  C   UNL     1      10.698  11.289  19.856  0.00  0.00    +0.000 A 
ATOM     25  C   UNL     1      11.801  12.116  20.043  0.00  0.00    +0.000 A 
ATOM     26  C   UNL     1      12.330  12.828  18.967  0.00  0.00    +0.000 A 
ATOM     27  C   UNL     1      11.768  12.703  17.700  0.00  0.00    +0.000 A 
ATOM     28  C   UNL     1      10.658  11.886  17.512  0.00  0.00    +0.000 A 
ENDBRANCH  22  23
ENDBRANCH  21  22
ENDBRANCH  18  21
ENDBRANCH   1  15
BRANCH   1  31
ATOM     29  C   UNL     1       6.717   4.417  14.943  0.00  0.00    +0.000 C 
ATOM     30  O   UNL     1       7.787   4.270  15.474  0.00  0.00    +0.000 OA
ATOM     31  N   UNL     1       5.598   4.803  15.651  0.00  0.00    +0.000 N 
ATOM     32  H   UNL     1       4.712   4.770  15.172  0.00  0.00    +0.000 HD
BRANCH  29  33
ATOM     33  C   UNL     1       6.507   4.199  13.442  0.00  0.00    +0.000 C 
BRANCH  33  34
ATOM     34  C   UNL     1       5.105   3.689  13.091  0.00  0.00    +0.000 C 
BRANCH  34  35
ATOM     35  C   UNL     1       4.873   3.658  11.578  0.00  0.00    +0.000 C 
BRANCH  35  37
ATOM     36  C   UNL     1       2.962   3.611   9.932  0.00  0.00    +0.000 C 
ATOM     37  C   UNL     1       3.513   3.052  11.234  0.00  0.00    +0.000 C 
ENDBRANCH  35  37
ENDBRANCH  34  35
ENDBRANCH  33  34
ENDBRANCH  29  33
ENDBRANCH   1  31
TORSDOF 11
ENDMDL
MODEL 2
REMARK VINA RESULT:      -8.7      7.482     10.738
REMARK  Name = 
REMARK  12 active torsions:
REMARK  status: ('A' for Active; 'I' for Inactive)
REMARK    1  A    between atoms: C_1  and  C_2
REMARK    2  A    between atoms: C_2  and  C_3
REMARK    3  A    between atoms: C_3  and  C_4
REMARK    4  A    between atoms: C_4  and  C_5
REMARK    5  A    between atoms: C_5  and  C_6
REMARK    6  A    between atoms: N_8  and  C_9
REMARK    7  A    between atoms: C_9  and  C_10
REMARK    8  A    between atoms: C_9  and  C_21
REMARK    9  A    between atoms: C_15  and  C_16
REMARK   10  A    between atoms: C_24  and  O_25
REMARK   11  A    between atoms: O_25  and  C_26
REMARK   12  A    between atoms: C_26  and  C_27
REMARK                            x       y       z     vdW  Elec       q    Type
REMARK                         _______ _______ _______ _____ _____    ______ ____
ROOT
ATOM      1  C   UNL     1      -1.591  11.167  19.097  0.00  0.00    +0.000 C 
ENDROOT
BRANCH   1   2
ATOM      2  C   UNL     1      -1.476  12.721  19.432  0.00  0.00    +0.000 C 
ATOM      3  O   UNL     1      -0.885  13.483  18.637  0.00  0.00    +0.000 OA
ATOM      4  N   UNL     1      -2.084  13.243  20.583  0.00  0.00    +0.000 N 
ATOM      5  C   UNL     1      -2.080  14.689  20.846  0.00  0.00    +0.000 C 
ATOM      6  C   UNL     1      -1.407  15.047  22.185  0.00  0.00    +0.000 C 
ATOM      7  C   UNL     1      -1.858  14.144  23.358  0.00  0.00    +0.000 C 
ATOM      8  C   UNL     1      -1.735  12.674  22.915  0.00  0.00    +0.000 C 
ATOM      9  C   UNL     1      -2.628  12.463  21.686  0.00  0.00    +0.000 C 
BRANCH   7  10
ATOM     10  C   UNL     1      -3.270  14.483  23.826  0.00  0.00    +0.000 C 
ATOM     11  N   UNL     1      -3.802  13.745  24.838  0.00  0.00    +0.000 N 
ATOM     12  O   UNL     1      -3.940  15.396  23.337  0.00  0.00    +0.000 OA
ATOM     13  H   UNL     1      -3.426  12.866  25.170  0.00  0.00    +0.000 HD
ATOM     14  H   UNL     1      -4.771  13.940  25.060  0.00  0.00    +0.000 HD
ENDBRANCH   7  10
ENDBRANCH   1   2
BRANCH   1  15
ATOM     15  C   UNL     1      -0.298  10.386  19.332  0.00  0.00    +0.000 A 
ATOM     16  C   UNL     1       0.516   9.965  18.267  0.00  0.00    +0.000 A 
ATOM     17  C   UNL     1       1.493   8.991  18.477  0.00  0.00    +0.000 A 
ATOM     18  C   UNL     1       1.648   8.391  19.728  0.00  0.00    +0.000 A 
ATOM     19  C   UNL     1       0.882   8.855  20.789  0.00  0.00    +0.000 A 
ATOM     20  C   UNL     1       0.031   9.945  20.611  0.00  0.00    +0.000 A 
BRANCH  18  21
ATOM     21  O   UNL     1       2.556   7.375  19.921  0.00  0.00    +0.000 OA
BRANCH  21  22
ATOM     22  C   UNL     1       2.644   6.496  18.780  0.00  0.00    +0.000 C 
BRANCH  22  23
ATOM     23  C   UNL     1       2.003   5.162  19.024  0.00  0.00    +0.000 A 
ATOM     24  C   UNL     1       1.856   4.226  17.999  0.00  0.00    +0.000 A 
ATOM     25  C   UNL     1       1.280   2.987  18.264  0.00  0.00    +0.000 A 
ATOM     26  C   UNL     1       0.875   2.668  19.559  0.00  0.00    +0.000 A 
ATOM     27  C   UNL     1       1.061   3.578  20.596  0.00  0.00    +0.000 A 
ATOM     28  C   UNL     1       1.627   4.821  20.333  0.00  0.00    +0.000 A 
ENDBRANCH  22  23
ENDBRANCH  21  22
ENDBRANCH  18  21
ENDBRANCH   1  15
BRANCH   1  31
ATOM     29  C   UNL     1      -3.361  10.942  17.313  0.00  0.00    +0.000 C 
ATOM     30  O   UNL     1      -4.266  10.962  18.106  0.00  0.00    +0.000 OA
ATOM     31  N   UNL     1      -2.042  11.025  17.710  0.00  0.00    +0.000 N 
ATOM     32  H   UNL     1      -1.348  11.144  16.989  0.00  0.00    +0.000 HD
BRANCH  29  33
ATOM     33  C   UNL     1      -3.591  10.815  15.805  0.00  0.00    +0.000 C 
BRANCH  33  34
ATOM     34  C   UNL     1      -2.533   9.963  15.096  0.00  0.00    +0.000 C 
BRANCH  34  35
ATOM     35  C   UNL     1      -2.885   9.724  13.625  0.00  0.00    +0.000 C 
BRANCH  35  37
ATOM     36  C   UNL     1      -4.720   9.762  11.896  0.00  0.00    +0.000 C 
ATOM     37  C   UNL     1      -4.364   9.999  13.355  0.00  0.00    +0.000 C 
ENDBRANCH  35  37
ENDBRANCH  34  35
ENDBRANCH  33  34
ENDBRANCH  29  33
ENDBRANCH   1  31
TORSDOF 11
ENDMDL
MODEL 3
REMARK VINA RESULT:      -8.6      7.335     10.561
REMARK  Name = 
REMARK  12 active torsions:
REMARK  status: ('A' for Active; 'I' for Inactive)
REMARK    1  A    between atoms: C_1  and  C_2
REMARK    2  A    between atoms: C_2  and  C_3
REMARK    3  A    between atoms: C_3  and  C_4
REMARK    4  A    between atoms: C_4  and  C_5
REMARK    5  A    between atoms: C_5  and  C_6
REMARK    6  A    between atoms: N_8  and  C_9
REMARK    7  A    between atoms: C_9  and  C_10
REMARK    8  A    between atoms: C_9  and  C_21
REMARK    9  A    between atoms: C_15  and  C_16
REMARK   10  A    between atoms: C_24  and  O_25
REMARK   11  A    between atoms: O_25  and  C_26
REMARK   12  A    between atoms: C_26  and  C_27
REMARK                            x       y       z     vdW  Elec       q    Type
REMARK                         _______ _______ _______ _____ _____    ______ ____
ROOT
ATOM      1  C   UNL     1      -0.961  11.226  19.428  0.00  0.00    +0.000 C 
ENDROOT
BRANCH   1   2
ATOM      2  C   UNL     1      -0.683  12.677  20.026  0.00  0.00    +0.000 C 
ATOM      3  O   UNL     1       0.298  13.336  19.618  0.00  0.00    +0.000 OA
ATOM      4  N   UNL     1      -1.565  13.237  20.962  0.00  0.00    +0.000 N 
ATOM      5  C   UNL     1      -1.381  14.615  21.437  0.00  0.00    +0.000 C 
ATOM      6  C   UNL     1      -1.203  14.697  22.966  0.00  0.00    +0.000 C 
ATOM      7  C   UNL     1      -2.225  13.839  23.748  0.00  0.00    +0.000 C 
ATOM      8  C   UNL     1      -2.231  12.421  23.147  0.00  0.00    +0.000 C 
ATOM      9  C   UNL     1      -2.621  12.525  21.668  0.00  0.00    +0.000 C 
BRANCH   7  10
ATOM     10  C   UNL     1      -3.616  14.466  23.744  0.00  0.00    +0.000 C 
ATOM     11  N   UNL     1      -4.640  13.752  24.283  0.00  0.00    +0.000 N 
ATOM     12  O   UNL     1      -3.847  15.589  23.287  0.00  0.00    +0.000 OA
ATOM     13  H   UNL     1      -4.603  12.764  24.501  0.00  0.00    +0.000 HD
ATOM     14  H   UNL     1      -5.562  14.162  24.181  0.00  0.00    +0.000 HD
ENDBRANCH   7  10
ENDBRANCH   1   2
BRANCH   1  15
ATOM     15  C   UNL     1       0.234  10.278  19.522  0.00  0.00    +0.000 A 
ATOM     16  C   UNL     1       0.990   9.926  18.390  0.00  0.00    +0.000 A 
ATOM     17  C   UNL     1       1.850   8.827  18.438  0.00  0.00    +0.000 A 
ATOM     18  C   UNL     1       1.941   8.040  19.588  0.00  0.00    +0.000 A 
ATOM     19  C   UNL     1       1.239   8.430  20.721  0.00  0.00    +0.000 A 
ATOM     20  C   UNL     1       0.518   9.623  20.717  0.00  0.00    +0.000 A 
BRANCH  18  21
ATOM     21  O   UNL     1       2.727   6.910  19.614  0.00  0.00    +0.000 OA
BRANCH  21  22
ATOM     22  C   UNL     1       2.588   6.119  18.416  0.00  0.00    +0.000 C 
BRANCH  22  23
ATOM     23  C   UNL     1       2.152   4.712  18.698  0.00  0.00    +0.000 A 
ATOM     24  C   UNL     1       1.459   4.384  19.864  0.00  0.00    +0.000 A 
ATOM     25  C   UNL     1       1.045   3.073  20.084  0.00  0.00    +0.000 A 
ATOM     26  C   UNL     1       1.296   2.091  19.126  0.00  0.00    +0.000 A 
ATOM     27  C   UNL     1       1.946   2.420  17.940  0.00  0.00    +0.000 A 
ATOM     28  C   UNL     1       2.370   3.727  17.722  0.00  0.00    +0.000 A 
ENDBRANCH  22  23
ENDBRANCH  21  22
ENDBRANCH  18  21
ENDBRANCH   1  15
BRANCH   1  31
ATOM     29  C   UNL     1      -2.321  10.558  17.410  0.00  0.00    +0.000 C 
ATOM     30  O   UNL     1      -2.829   9.622  17.971  0.00  0.00    +0.000 OA
ATOM     31  N   UNL     1      -1.402  11.374  18.039  0.00  0.00    +0.000 N 
ATOM     32  H   UNL     1      -1.126  12.216  17.559  0.00  0.00    +0.000 HD
BRANCH  29  33
ATOM     33  C   UNL     1      -2.640  10.919  15.957  0.00  0.00    +0.000 C 
BRANCH  33  34
ATOM     34  C   UNL     1      -3.334   9.790  15.188  0.00  0.00    +0.000 C 
BRANCH  34  35
ATOM     35  C   UNL     1      -3.310  10.032  13.676  0.00  0.00    +0.000 C 
BRANCH  35  37
ATOM     36  C   UNL     1      -4.609   9.855  11.522  0.00  0.00    +0.000 C 
ATOM     37  C   UNL     1      -4.626   9.612  13.023  0.00  0.00    +0.000 C 
ENDBRANCH  35  37
ENDBRANCH  34  35
ENDBRANCH  33  34
ENDBRANCH  29  33
ENDBRANCH   1  31
TORSDOF 11
ENDMDL
MODEL 4
REMARK VINA RESULT:      -8.5      7.022     10.286
REMARK  Name = 
REMARK  12 active torsions:
REMARK  status: ('A' for Active; 'I' for Inactive)
REMARK    1  A    between atoms: C_1  and  C_2
REMARK    2  A    between atoms: C_2  and  C_3
REMARK    3  A    between atoms: C_3  and  C_4
REMARK    4  A    between atoms: C_4  and  C_5
REMARK    5  A    between atoms: C_5  and  C_6
REMARK    6  A    between atoms: N_8  and  C_9
REMARK    7  A    between atoms: C_9  and  C_10
REMARK    8  A    between atoms: C_9  and  C_21
REMARK    9  A    between atoms: C_15  and  C_16
REMARK   10  A    between atoms: C_24  and  O_25
REMARK   11  A    between atoms: O_25  and  C_26
REMARK   12  A    between atoms: C_26  and  C_27
REMARK                            x       y       z     vdW  Elec       q    Type
REMARK                         _______ _______ _______ _____ _____    ______ ____
ROOT
ATOM      1  C   UNL     1      -0.356  10.832  19.358  0.00  0.00    +0.000 C 
ENDROOT
BRANCH   1   2
ATOM      2  C   UNL     1       0.039  12.167  20.134  0.00  0.00    +0.000 C 
ATOM      3  O   UNL     1       1.208  12.602  20.060  0.00  0.00    +0.000 OA
ATOM      4  N   UNL     1      -0.933  12.882  20.849  0.00  0.00    +0.000 N 
ATOM      5  C   UNL     1      -0.607  14.171  21.476  0.00  0.00    +0.000 C 
ATOM      6  C   UNL     1      -0.847  14.168  22.999  0.00  0.00    +0.000 C 
ATOM      7  C   UNL     1      -2.201  13.536  23.404  0.00  0.00    +0.000 C 
ATOM      8  C   UNL     1      -2.332  12.173  22.699  0.00  0.00    +0.000 C 
ATOM      9  C   UNL     1      -2.267  12.404  21.185  0.00  0.00    +0.000 C 
BRANCH   7  10
ATOM     10  C   UNL     1      -3.375  14.458  23.088  0.00  0.00    +0.000 C 
ATOM     11  N   UNL     1      -4.621  14.055  23.458  0.00  0.00    +0.000 N 
ATOM     12  O   UNL     1      -3.243  15.548  22.526  0.00  0.00    +0.000 OA
ATOM     13  H   UNL     1      -4.862  13.114  23.740  0.00  0.00    +0.000 HD
ATOM     14  H   UNL     1      -5.383  14.650  23.152  0.00  0.00    +0.000 HD
ENDBRANCH   7  10
ENDBRANCH   1   2
BRANCH   1  15
ATOM     15  C   UNL     1       0.807   9.859  19.170  0.00  0.00    +0.000 A 
ATOM     16  C   UNL     1       1.430   9.682  17.922  0.00  0.00    +0.000 A 
ATOM     17  C   UNL     1       2.249   8.574  17.701  0.00  0.00    +0.000 A 
ATOM     18  C   UNL     1       2.428   7.606  18.692  0.00  0.00    +0.000 A 
ATOM     19  C   UNL     1       1.858   7.819  19.941  0.00  0.00    +0.000 A 
ATOM     20  C   UNL     1       1.185   9.010  20.207  0.00  0.00    +0.000 A 
BRANCH  18  21
ATOM     21  O   UNL     1       3.170   6.473  18.452  0.00  0.00    +0.000 OA
BRANCH  21  22
ATOM     22  C   UNL     1       2.344   5.337  18.120  0.00  0.00    +0.000 C 
BRANCH  22  23
ATOM     23  C   UNL     1       2.330   4.295  19.197  0.00  0.00    +0.000 A 
ATOM     24  C   UNL     1       3.481   3.583  19.537  0.00  0.00    +0.000 A 
ATOM     25  C   UNL     1       3.441   2.639  20.560  0.00  0.00    +0.000 A 
ATOM     26  C   UNL     1       2.259   2.425  21.266  0.00  0.00    +0.000 A 
ATOM     27  C   UNL     1       1.119   3.164  20.965  0.00  0.00    +0.000 A 
ATOM     28  C   UNL     1       1.152   4.100  19.936  0.00  0.00    +0.000 A 
ENDBRANCH  22  23
ENDBRANCH  21  22
ENDBRANCH  18  21
ENDBRANCH   1  15
BRANCH   1  31
ATOM     29  C   UNL     1      -2.082  10.646  17.526  0.00  0.00    +0.000 C 
ATOM     30  O   UNL     1      -2.690   9.772  18.088  0.00  0.00    +0.000 OA
ATOM     31  N   UNL     1      -0.940  11.203  18.066  0.00  0.00    +0.000 N 
ATOM     32  H   UNL     1      -0.566  12.022  17.613  0.00  0.00    +0.000 HD
BRANCH  29  33
ATOM     33  C   UNL     1      -2.514  11.207  16.169  0.00  0.00    +0.000 C 
BRANCH  33  34
ATOM     34  C   UNL     1      -3.660  10.423  15.523  0.00  0.00    +0.000 C 
BRANCH  34  35
ATOM     35  C   UNL     1      -3.309   9.967  14.103  0.00  0.00    +0.000 C 
BRANCH  35  37
ATOM     36  C   UNL     1      -4.363   9.899  11.813  0.00  0.00    +0.000 C 
ATOM     37  C   UNL     1      -4.564   9.636  13.297  0.00  0.00    +0.000 C 
ENDBRANCH  35  37
ENDBRANCH  34  35
ENDBRANCH  33  34
ENDBRANCH  29  33
ENDBRANCH   1  31
TORSDOF 11
ENDMDL
MODEL 5
REMARK VINA RESULT:      -8.5      4.271      8.864
REMARK  Name = 
REMARK  12 active torsions:
REMARK  status: ('A' for Active; 'I' for Inactive)
REMARK    1  A    between atoms: C_1  and  C_2
REMARK    2  A    between atoms: C_2  and  C_3
REMARK    3  A    between atoms: C_3  and  C_4
REMARK    4  A    between atoms: C_4  and  C_5
REMARK    5  A    between atoms: C_5  and  C_6
REMARK    6  A    between atoms: N_8  and  C_9
REMARK    7  A    between atoms: C_9  and  C_10
REMARK    8  A    between atoms: C_9  and  C_21
REMARK    9  A    between atoms: C_15  and  C_16
REMARK   10  A    between atoms: C_24  and  O_25
REMARK   11  A    between atoms: O_25  and  C_26
REMARK   12  A    between atoms: C_26  and  C_27
REMARK                            x       y       z     vdW  Elec       q    Type
REMARK                         _______ _______ _______ _____ _____    ______ ____
ROOT
ATOM      1  C   UNL     1       2.666   5.896  18.603  0.00  0.00    +0.000 C 
ENDROOT
BRANCH   1   2
ATOM      2  C   UNL     1       4.219   5.553  18.699  0.00  0.00    +0.000 C 
ATOM      3  O   UNL     1       4.804   5.637  19.801  0.00  0.00    +0.000 OA
ATOM      4  N   UNL     1       4.915   5.102  17.568  0.00  0.00    +0.000 N 
ATOM      5  C   UNL     1       6.318   4.677  17.668  0.00  0.00    +0.000 C 
ATOM      6  C   UNL     1       7.252   5.492  16.752  0.00  0.00    +0.000 C 
ATOM      7  C   UNL     1       6.697   5.675  15.319  0.00  0.00    +0.000 C 
ATOM      8  C   UNL     1       5.246   6.179  15.420  0.00  0.00    +0.000 C 
ATOM      9  C   UNL     1       4.426   5.142  16.196  0.00  0.00    +0.000 C 
BRANCH   7  10
ATOM     10  C   UNL     1       6.799   4.390  14.502  0.00  0.00    +0.000 C 
ATOM     11  N   UNL     1       6.513   3.214  15.123  0.00  0.00    +0.000 N 
ATOM     12  O   UNL     1       7.115   4.373  13.310  0.00  0.00    +0.000 OA
ATOM     13  H   UNL     1       6.437   3.094  16.125  0.00  0.00    +0.000 HD
ATOM     14  H   UNL     1       6.678   2.377  14.575  0.00  0.00    +0.000 HD
ENDBRANCH   7  10
ENDBRANCH   1   2
BRANCH   1  15
ATOM     15  C   UNL     1       2.340   7.367  18.860  0.00  0.00    +0.000 A 
ATOM     16  C   UNL     1       1.749   7.795  20.061  0.00  0.00    +0.000 A 
ATOM     17  C   UNL     1       1.169   9.062  20.142  0.00  0.00    +0.000 A 
ATOM     18  C   UNL     1       1.127   9.903  19.027  0.00  0.00    +0.000 A 
ATOM     19  C   UNL     1       1.767   9.497  17.862  0.00  0.00    +0.000 A 
ATOM     20  C   UNL     1       2.491   8.306  17.843  0.00  0.00    +0.000 A 
BRANCH  18  21
ATOM     21  O   UNL     1       0.487  11.120  19.078  0.00  0.00    +0.000 OA
BRANCH  21  22
ATOM     22  C   UNL     1      -0.864  11.008  19.574  0.00  0.00    +0.000 C 
BRANCH  22  23
ATOM     23  C   UNL     1      -1.879  10.918  18.475  0.00  0.00    +0.000 A 
ATOM     24  C   UNL     1      -1.700  10.064  17.385  0.00  0.00    +0.000 A 
ATOM     25  C   UNL     1      -2.674   9.985  16.394  0.00  0.00    +0.000 A 
ATOM     26  C   UNL     1      -3.843  10.737  16.502  0.00  0.00    +0.000 A 
ATOM     27  C   UNL     1      -4.050  11.556  17.608  0.00  0.00    +0.000 A 
ATOM     28  C   UNL     1      -3.074  11.645  18.596  0.00  0.00    +0.000 A 
ENDBRANCH  22  23
ENDBRANCH  21  22
ENDBRANCH  18  21
ENDBRANCH   1  15
BRANCH   1  31
ATOM     29  C   UNL     1       1.282   3.869  19.189  0.00  0.00    +0.000 C 
ATOM     30  O   UNL     1       1.236   3.481  18.050  0.00  0.00    +0.000 OA
ATOM     31  N   UNL     1       1.941   5.030  19.537  0.00  0.00    +0.000 N 
ATOM     32  H   UNL     1       2.059   5.219  20.520  0.00  0.00    +0.000 HD
BRANCH  29  33
ATOM     33  C   UNL     1       0.610   3.119  20.341  0.00  0.00    +0.000 C 
BRANCH  33  34
ATOM     34  C   UNL     1       1.490   3.005  21.590  0.00  0.00    +0.000 C 
BRANCH  34  35
ATOM     35  C   UNL     1       2.574   1.936  21.428  0.00  0.00    +0.000 C 
BRANCH  35  37
ATOM     36  C   UNL     1       4.293   1.907  19.583  0.00  0.00    +0.000 C 
ATOM     37  C   UNL     1       3.877   2.538  20.902  0.00  0.00    +0.000 C 
ENDBRANCH  35  37
ENDBRANCH  34  35
ENDBRANCH  33  34
ENDBRANCH  29  33
ENDBRANCH   1  31
TORSDOF 11
ENDMDL
MODEL 6
REMARK VINA RESULT:      -8.4      4.395      7.259
REMARK  Name = 
REMARK  12 active torsions:
REMARK  status: ('A' for Active; 'I' for Inactive)
REMARK    1  A    between atoms: C_1  and  C_2
REMARK    2  A    between atoms: C_2  and  C_3
REMARK    3  A    between atoms: C_3  and  C_4
REMARK    4  A    between atoms: C_4  and  C_5
REMARK    5  A    between atoms: C_5  and  C_6
REMARK    6  A    between atoms: N_8  and  C_9
REMARK    7  A    between atoms: C_9  and  C_10
REMARK    8  A    between atoms: C_9  and  C_21
REMARK    9  A    between atoms: C_15  and  C_16
REMARK   10  A    between atoms: C_24  and  O_25
REMARK   11  A    between atoms: O_25  and  C_26
REMARK   12  A    between atoms: C_26  and  C_27
REMARK                            x       y       z     vdW  Elec       q    Type
REMARK                         _______ _______ _______ _____ _____    ______ ____
ROOT
ATOM      1  C   UNL     1       2.747   6.599  19.619  0.00  0.00    +0.000 C 
ENDROOT
BRANCH   1   2
ATOM      2  C   UNL     1       2.022   7.925  19.115  0.00  0.00    +0.000 C 
ATOM      3  O   UNL     1       2.177   8.304  17.935  0.00  0.00    +0.000 OA
ATOM      4  N   UNL     1       1.166   8.632  19.973  0.00  0.00    +0.000 N 
ATOM      5  C   UNL     1       0.407   9.792  19.487  0.00  0.00    +0.000 C 
ATOM      6  C   UNL     1       0.719  11.079  20.276  0.00  0.00    +0.000 C 
ATOM      7  C   UNL     1       0.734  10.869  21.809  0.00  0.00    +0.000 C 
ATOM      8  C   UNL     1       1.625   9.653  22.125  0.00  0.00    +0.000 C 
ATOM      9  C   UNL     1       1.043   8.428  21.410  0.00  0.00    +0.000 C 
BRANCH   7  10
ATOM     10  C   UNL     1      -0.674  10.706  22.375  0.00  0.00    +0.000 C 
ATOM     11  N   UNL     1      -1.675  11.440  21.817  0.00  0.00    +0.000 N 
ATOM     12  O   UNL     1      -0.943   9.936  23.300  0.00  0.00    +0.000 OA
ATOM     13  H   UNL     1      -1.536  12.230  21.200  0.00  0.00    +0.000 HD
ATOM     14  H   UNL     1      -2.576  11.372  22.276  0.00  0.00    +0.000 HD
ENDBRANCH   7  10
ENDBRANCH   1   2
BRANCH   1  15
ATOM     15  C   UNL     1       4.011   6.249  18.835  0.00  0.00    +0.000 A 
ATOM     16  C   UNL     1       4.148   6.566  17.472  0.00  0.00    +0.000 A 
ATOM     17  C   UNL     1       5.147   5.958  16.710  0.00  0.00    +0.000 A 
ATOM     18  C   UNL     1       5.992   4.999  17.272  0.00  0.00    +0.000 A 
ATOM     19  C   UNL     1       5.890   4.736  18.632  0.00  0.00    +0.000 A 
ATOM     20  C   UNL     1       5.007   5.471  19.420  0.00  0.00    +0.000 A 
BRANCH  18  21
ATOM     21  O   UNL     1       6.926   4.339  16.506  0.00  0.00    +0.000 OA
BRANCH  21  22
ATOM     22  C   UNL     1       7.447   5.167  15.445  0.00  0.00    +0.000 C 
BRANCH  22  23
ATOM     23  C   UNL     1       7.040   4.688  14.083  0.00  0.00    +0.000 A 
ATOM     24  C   UNL     1       7.755   5.049  12.940  0.00  0.00    +0.000 A 
ATOM     25  C   UNL     1       7.366   4.567  11.693  0.00  0.00    +0.000 A 
ATOM     26  C   UNL     1       6.281   3.699  11.588  0.00  0.00    +0.000 A 
ATOM     27  C   UNL     1       5.592   3.297  12.728  0.00  0.00    +0.000 A 
ATOM     28  C   UNL     1       5.970   3.786  13.974  0.00  0.00    +0.000 A 
ENDBRANCH  22  23
ENDBRANCH  21  22
ENDBRANCH  18  21
ENDBRANCH   1  15
BRANCH   1  31
ATOM     29  C   UNL     1       1.656   4.517  20.537  0.00  0.00    +0.000 C 
ATOM     30  O   UNL     1       2.367   4.484  21.508  0.00  0.00    +0.000 OA
ATOM     31  N   UNL     1       1.782   5.497  19.573  0.00  0.00    +0.000 N 
ATOM     32  H   UNL     1       1.067   5.545  18.865  0.00  0.00    +0.000 HD
BRANCH  29  33
ATOM     33  C   UNL     1       0.563   3.476  20.283  0.00  0.00    +0.000 C 
BRANCH  33  34
ATOM     34  C   UNL     1       0.752   2.699  18.976  0.00  0.00    +0.000 C 
BRANCH  34  35
ATOM     35  C   UNL     1       1.962   1.762  19.041  0.00  0.00    +0.000 C 
BRANCH  35  37
ATOM     36  C   UNL     1       2.742   3.113  17.059  0.00  0.00    +0.000 C 
ATOM     37  C   UNL     1       3.164   2.352  18.306  0.00  0.00    +0.000 C 
ENDBRANCH  35  37
ENDBRANCH  34  35
ENDBRANCH  33  34
ENDBRANCH  29  33
ENDBRANCH   1  31
TORSDOF 11
ENDMDL
MODEL 7
REMARK VINA RESULT:      -8.4      1.450      1.812
REMARK  Name = 
REMARK  12 active torsions:
REMARK  status: ('A' for Active; 'I' for Inactive)
REMARK    1  A    between atoms: C_1  and  C_2
REMARK    2  A    between atoms: C_2  and  C_3
REMARK    3  A    between atoms: C_3  and  C_4
REMARK    4  A    between atoms: C_4  and  C_5
REMARK    5  A    between atoms: C_5  and  C_6
REMARK    6  A    between atoms: N_8  and  C_9
REMARK    7  A    between atoms: C_9  and  C_10
REMARK    8  A    between atoms: C_9  and  C_21
REMARK    9  A    between atoms: C_15  and  C_16
REMARK   10  A    between atoms: C_24  and  O_25
REMARK   11  A    between atoms: O_25  and  C_26
REMARK   12  A    between atoms: C_26  and  C_27
REMARK                            x       y       z     vdW  Elec       q    Type
REMARK                         _______ _______ _______ _____ _____    ______ ____
ROOT
ATOM      1  C   UNL     1       6.246   4.336  16.994  0.00  0.00    +0.000 C 
ENDROOT
BRANCH   1   2
ATOM      2  C   UNL     1       4.693   4.051  16.781  0.00  0.00    +0.000 C 
ATOM      3  O   UNL     1       4.214   4.066  15.627  0.00  0.00    +0.000 OA
ATOM      4  N   UNL     1       3.877   3.729  17.875  0.00  0.00    +0.000 N 
ATOM      5  C   UNL     1       2.469   3.357  17.679  0.00  0.00    +0.000 C 
ATOM      6  C   UNL     1       1.498   4.286  18.435  0.00  0.00    +0.000 C 
ATOM      7  C   UNL     1       1.931   4.567  19.894  0.00  0.00    +0.000 C 
ATOM      8  C   UNL     1       3.409   4.999  19.888  0.00  0.00    +0.000 C 
ATOM      9  C   UNL     1       4.242   3.865  19.279  0.00  0.00    +0.000 C 
BRANCH   7  10
ATOM     10  C   UNL     1       1.692   3.362  20.799  0.00  0.00    +0.000 C 
ATOM     11  N   UNL     1       2.234   3.384  22.047  0.00  0.00    +0.000 N 
ATOM     12  O   UNL     1       1.025   2.383  20.456  0.00  0.00    +0.000 OA
ATOM     13  H   UNL     1       2.947   4.033  22.355  0.00  0.00    +0.000 HD
ATOM     14  H   UNL     1       2.130   2.531  22.585  0.00  0.00    +0.000 HD
ENDBRANCH   7  10
ENDBRANCH   1   2
BRANCH   1  15
ATOM     15  C   UNL     1       6.553   5.743  17.506  0.00  0.00    +0.000 A 
ATOM     16  C   UNL     1       5.812   6.861  17.087  0.00  0.00    +0.000 A 
ATOM     17  C   UNL     1       6.307   8.148  17.303  0.00  0.00    +0.000 A 
ATOM     18  C   UNL     1       7.556   8.345  17.895  0.00  0.00    +0.000 A 
ATOM     19  C   UNL     1       8.254   7.238  18.361  0.00  0.00    +0.000 A 
ATOM     20  C   UNL     1       7.676   5.971  18.296  0.00  0.00    +0.000 A 
BRANCH  18  21
ATOM     21  O   UNL     1       8.083   9.608  18.038  0.00  0.00    +0.000 OA
BRANCH  21  22
ATOM     22  C   UNL     1       9.084   9.669  19.076  0.00  0.00    +0.000 C 
BRANCH  22  23
ATOM     23  C   UNL     1       9.865  10.948  19.055  0.00  0.00    +0.000 A 
ATOM     24  C   UNL     1      10.216  11.608  20.234  0.00  0.00    +0.000 A 
ATOM     25  C   UNL     1      10.964  12.781  20.181  0.00  0.00    +0.000 A 
ATOM     26  C   UNL     1      11.388  13.284  18.952  0.00  0.00    +0.000 A 
ATOM     27  C   UNL     1      11.082  12.607  17.775  0.00  0.00    +0.000 A 
ATOM     28  C   UNL     1      10.326  11.440  17.823  0.00  0.00    +0.000 A 
ENDBRANCH  22  23
ENDBRANCH  21  22
ENDBRANCH  18  21
ENDBRANCH   1  15
BRANCH   1  31
ATOM     29  C   UNL     1       6.901   4.900  14.623  0.00  0.00    +0.000 C 
ATOM     30  O   UNL     1       6.252   5.915  14.608  0.00  0.00    +0.000 OA
ATOM     31  N   UNL     1       6.942   4.077  15.730  0.00  0.00    +0.000 N 
ATOM     32  H   UNL     1       7.612   3.325  15.723  0.00  0.00    +0.000 HD
BRANCH  29  33
ATOM     33  C   UNL     1       7.724   4.433  13.420  0.00  0.00    +0.000 C 
BRANCH  33  34
ATOM     34  C   UNL     1       6.885   4.205  12.159  0.00  0.00    +0.000 C 
BRANCH  34  35
ATOM     35  C   UNL     1       5.715   3.252  12.418  0.00  0.00    +0.000 C 
BRANCH  35  37
ATOM     36  C   UNL     1       7.163   1.720  11.033  0.00  0.00    +0.000 C 
ATOM     37  C   UNL     1       5.744   2.060  11.462  0.00  0.00    +0.000 C 
ENDBRANCH  35  37
ENDBRANCH  34  35
ENDBRANCH  33  34
ENDBRANCH  29  33
ENDBRANCH   1  31
TORSDOF 11
ENDMDL
MODEL 8
REMARK VINA RESULT:      -8.2      4.137      7.287
REMARK  Name = 
REMARK  12 active torsions:
REMARK  status: ('A' for Active; 'I' for Inactive)
REMARK    1  A    between atoms: C_1  and  C_2
REMARK    2  A    between atoms: C_2  and  C_3
REMARK    3  A    between atoms: C_3  and  C_4
REMARK    4  A    between atoms: C_4  and  C_5
REMARK    5  A    between atoms: C_5  and  C_6
REMARK    6  A    between atoms: N_8  and  C_9
REMARK    7  A    between atoms: C_9  and  C_10
REMARK    8  A    between atoms: C_9  and  C_21
REMARK    9  A    between atoms: C_15  and  C_16
REMARK   10  A    between atoms: C_24  and  O_25
REMARK   11  A    between atoms: O_25  and  C_26
REMARK   12  A    between atoms: C_26  and  C_27
REMARK                            x       y       z     vdW  Elec       q    Type
REMARK                         _______ _______ _______ _____ _____    ______ ____
ROOT
ATOM      1  C   UNL     1       2.909   6.450  19.339  0.00  0.00    +0.000 C 
ENDROOT
BRANCH   1   2
ATOM      2  C   UNL     1       2.228   7.825  18.907  0.00  0.00    +0.000 C 
ATOM      3  O   UNL     1       2.441   8.288  17.767  0.00  0.00    +0.000 OA
ATOM      4  N   UNL     1       1.349   8.482  19.780  0.00  0.00    +0.000 N 
ATOM      5  C   UNL     1       0.630   9.690  19.352  0.00  0.00    +0.000 C 
ATOM      6  C   UNL     1       0.930  10.908  20.249  0.00  0.00    +0.000 C 
ATOM      7  C   UNL     1       0.875  10.583  21.761  0.00  0.00    +0.000 C 
ATOM      8  C   UNL     1       1.732   9.330  22.020  0.00  0.00    +0.000 C 
ATOM      9  C   UNL     1       1.160   8.173  21.191  0.00  0.00    +0.000 C 
BRANCH   7  10
ATOM     10  C   UNL     1      -0.558  10.407  22.253  0.00  0.00    +0.000 C 
ATOM     11  N   UNL     1      -0.773   9.576  23.309  0.00  0.00    +0.000 N 
ATOM     12  O   UNL     1      -1.521  10.989  21.747  0.00  0.00    +0.000 OA
ATOM     13  H   UNL     1      -0.099   8.911  23.666  0.00  0.00    +0.000 HD
ATOM     14  H   UNL     1      -1.745   9.415  23.549  0.00  0.00    +0.000 HD
ENDBRANCH   7  10
ENDBRANCH   1   2
BRANCH   1  15
ATOM     15  C   UNL     1       4.257   6.189  18.668  0.00  0.00    +0.000 A 
ATOM     16  C   UNL     1       4.671   6.910  17.534  0.00  0.00    +0.000 A 
ATOM     17  C   UNL     1       5.731   6.442  16.756  0.00  0.00    +0.000 A 
ATOM     18  C   UNL     1       6.365   5.235  17.062  0.00  0.00    +0.000 A 
ATOM     19  C   UNL     1       5.991   4.561  18.217  0.00  0.00    +0.000 A 
ATOM     20  C   UNL     1       5.051   5.122  19.080  0.00  0.00    +0.000 A 
BRANCH  18  21
ATOM     21  O   UNL     1       7.357   4.729  16.254  0.00  0.00    +0.000 OA
BRANCH  21  22
ATOM     22  C   UNL     1       7.401   5.382  14.968  0.00  0.00    +0.000 C 
BRANCH  22  23
ATOM     23  C   UNL     1       6.753   4.573  13.884  0.00  0.00    +0.000 A 
ATOM     24  C   UNL     1       5.442   4.109  14.007  0.00  0.00    +0.000 A 
ATOM     25  C   UNL     1       4.860   3.382  12.972  0.00  0.00    +0.000 A 
ATOM     26  C   UNL     1       5.575   3.142  11.799  0.00  0.00    +0.000 A 
ATOM     27  C   UNL     1       6.866   3.641  11.651  0.00  0.00    +0.000 A 
ATOM     28  C   UNL     1       7.455   4.358  12.687  0.00  0.00    +0.000 A 
ENDBRANCH  22  23
ENDBRANCH  21  22
ENDBRANCH  18  21
ENDBRANCH   1  15
BRANCH   1  31
ATOM     29  C   UNL     1       1.572   4.408  19.980  0.00  0.00    +0.000 C 
ATOM     30  O   UNL     1       1.999   4.391  21.105  0.00  0.00    +0.000 OA
ATOM     31  N   UNL     1       1.969   5.360  19.063  0.00  0.00    +0.000 N 
ATOM     32  H   UNL     1       1.468   5.399  18.189  0.00  0.00    +0.000 HD
BRANCH  29  33
ATOM     33  C   UNL     1       0.564   3.376  19.467  0.00  0.00    +0.000 C 
BRANCH  33  34
ATOM     34  C   UNL     1       1.221   2.122  18.882  0.00  0.00    +0.000 C 
BRANCH  34  35
ATOM     35  C   UNL     1       2.509   2.454  18.123  0.00  0.00    +0.000 C 
BRANCH  35  37
ATOM     36  C   UNL     1       4.269   1.831  19.818  0.00  0.00    +0.000 C 
ATOM     37  C   UNL     1       3.633   1.483  18.482  0.00  0.00    +0.000 C 
ENDBRANCH  35  37
ENDBRANCH  34  35
ENDBRANCH  33  34
ENDBRANCH  29  33
ENDBRANCH   1  31
TORSDOF 11
ENDMDL
MODEL 9
REMARK VINA RESULT:      -8.1      7.898     11.725
REMARK  Name = 
REMARK  12 active torsions:
REMARK  status: ('A' for Active; 'I' for Inactive)
REMARK    1  A    between atoms: C_1  and  C_2
REMARK    2  A    between atoms: C_2  and  C_3
REMARK    3  A    between atoms: C_3  and  C_4
REMARK    4  A    between atoms: C_4  and  C_5
REMARK    5  A    between atoms: C_5  and  C_6
REMARK    6  A    between atoms: N_8  and  C_9
REMARK    7  A    between atoms: C_9  and  C_10
REMARK    8  A    between atoms: C_9  and  C_21
REMARK    9  A    between atoms: C_15  and  C_16
REMARK   10  A    between atoms: C_24  and  O_25
REMARK   11  A    between atoms: O_25  and  C_26
REMARK   12  A    between atoms: C_26  and  C_27
REMARK                            x       y       z     vdW  Elec       q    Type
REMARK                         _______ _______ _______ _____ _____    ______ ____
ROOT
ATOM      1  C   UNL     1       0.138  10.432  19.505  0.00  0.00    +0.000 C 
ENDROOT
BRANCH   1   2
ATOM      2  C   UNL     1      -0.405  10.413  21.004  0.00  0.00    +0.000 C 
ATOM      3  O   UNL     1      -0.435   9.335  21.636  0.00  0.00    +0.000 OA
ATOM      4  N   UNL     1      -0.791  11.606  21.631  0.00  0.00    +0.000 N 
ATOM      5  C   UNL     1      -1.187  11.617  23.046  0.00  0.00    +0.000 C 
ATOM      6  C   UNL     1      -2.619  12.148  23.258  0.00  0.00    +0.000 C 
ATOM      7  C   UNL     1      -2.918  13.438  22.457  0.00  0.00    +0.000 C 
ATOM      8  C   UNL     1      -2.493  13.212  20.994  0.00  0.00    +0.000 C 
ATOM      9  C   UNL     1      -0.995  12.888  20.970  0.00  0.00    +0.000 C 
BRANCH   7  10
ATOM     10  C   UNL     1      -2.234  14.657  23.068  0.00  0.00    +0.000 C 
ATOM     11  N   UNL     1      -1.644  14.515  24.286  0.00  0.00    +0.000 N 
ATOM     12  O   UNL     1      -2.183  15.754  22.505  0.00  0.00    +0.000 OA
ATOM     13  H   UNL     1      -1.792  13.734  24.911  0.00  0.00    +0.000 HD
ATOM     14  H   UNL     1      -1.279  15.366  24.698  0.00  0.00    +0.000 HD
ENDBRANCH   7  10
ENDBRANCH   1   2
BRANCH   1  15
ATOM     15  C   UNL     1      -0.964  10.511  18.449  0.00  0.00    +0.000 A 
ATOM     16  C   UNL     1      -1.221  11.693  17.735  0.00  0.00    +0.000 A 
ATOM     17  C   UNL     1      -2.418  11.839  17.031  0.00  0.00    +0.000 A 
ATOM     18  C   UNL     1      -3.392  10.838  17.060  0.00  0.00    +0.000 A 
ATOM     19  C   UNL     1      -3.105   9.649  17.718  0.00  0.00    +0.000 A 
ATOM     20  C   UNL     1      -1.842   9.445  18.272  0.00  0.00    +0.000 A 
BRANCH  18  21
ATOM     21  O   UNL     1      -4.605  11.009  16.434  0.00  0.00    +0.000 OA
BRANCH  21  22
ATOM     22  C   UNL     1      -5.331  12.145  16.948  0.00  0.00    +0.000 C 
BRANCH  22  23
ATOM     23  C   UNL     1      -5.928  11.889  18.299  0.00  0.00    +0.000 A 
ATOM     24  C   UNL     1      -6.646  10.723  18.570  0.00  0.00    +0.000 A 
ATOM     25  C   UNL     1      -7.166  10.504  19.842  0.00  0.00    +0.000 A 
ATOM     26  C   UNL     1      -6.946  11.434  20.857  0.00  0.00    +0.000 A 
ATOM     27  C   UNL     1      -6.192  12.577  20.607  0.00  0.00    +0.000 A 
ATOM     28  C   UNL     1      -5.680  12.805  19.334  0.00  0.00    +0.000 A 
ENDBRANCH  22  23
ENDBRANCH  21  22
ENDBRANCH  18  21
ENDBRANCH   1  15
BRANCH   1  31
ATOM     29  C   UNL     1       1.887   9.092  18.276  0.00  0.00    +0.000 C 
ATOM     30  O   UNL     1       2.053   9.940  17.439  0.00  0.00    +0.000 OA
ATOM     31  N   UNL     1       0.974   9.246  19.300  0.00  0.00    +0.000 N 
ATOM     32  H   UNL     1       0.988   8.563  20.040  0.00  0.00    +0.000 HD
BRANCH  29  33
ATOM     33  C   UNL     1       2.662   7.771  18.275  0.00  0.00    +0.000 C 
BRANCH  33  34
ATOM     34  C   UNL     1       2.435   6.931  19.536  0.00  0.00    +0.000 C 
BRANCH  34  35
ATOM     35  C   UNL     1       2.617   5.435  19.263  0.00  0.00    +0.000 C 
BRANCH  35  37
ATOM     36  C   UNL     1       2.237   3.563  17.616  0.00  0.00    +0.000 C 
ATOM     37  C   UNL     1       2.002   5.033  17.923  0.00  0.00    +0.000 C 
ENDBRANCH  35  37
ENDBRANCH  34  35
ENDBRANCH  33  34
ENDBRANCH  29  33
ENDBRANCH   1  31
TORSDOF 11
ENDMDL
