MODEL 1
REMARK VINA RESULT:      -7.5      0.000      0.000
REMARK  Name = 
REMARK  8 active torsions:
REMARK  status: ('A' for Active; 'I' for Inactive)
REMARK    1  A    between atoms: C_1  and  N_2
REMARK    2  A    between atoms: N_2  and  C_3
REMARK    3  A    between atoms: N_2  and  C_4
REMARK    4  A    between atoms: C_6  and  C_7
REMARK    5  A    between atoms: N_16  and  C_17
REMARK    6  A    between atoms: C_17  and  C_18
REMARK    7  A    between atoms: C_21  and  C_22
REMARK    8  A    between atoms: C_22  and  N_23
REMARK                            x       y       z     vdW  Elec       q    Type
REMARK                         _______ _______ _______ _____ _____    ______ ____
ROOT
ATOM      1  C   UNL     1       4.395   3.443  19.040  0.00  0.00    +0.000 A 
ATOM      2  N   UNL     1       5.673   3.899  18.865  0.00  0.00    +0.000 NA
ATOM      3  C   UNL     1       5.922   5.178  18.462  0.00  0.00    +0.000 A 
ATOM      4  N   UNL     1       4.977   6.122  18.228  0.00  0.00    +0.000 NA
ATOM      5  C   UNL     1       3.734   5.645  18.386  0.00  0.00    +0.000 A 
ATOM      6  C   UNL     1       3.357   4.370  18.772  0.00  0.00    +0.000 A 
ATOM      7  N   UNL     1       1.975   4.277  18.824  0.00  0.00    +0.000 NA
ATOM      8  C   UNL     1       1.534   5.467  18.476  0.00  0.00    +0.000 A 
ATOM      9  N   UNL     1       2.560   6.325  18.195  0.00  0.00    +0.000 N 
ENDROOT
BRANCH   3  10
ATOM     10  C   UNL     1       7.384   5.581  18.226  0.00  0.00    +0.000 C 
ATOM     11  F   UNL     1       8.213   4.539  17.913  0.00  0.00    +0.000 F 
ATOM     12  F   UNL     1       7.527   6.474  17.199  0.00  0.00    +0.000 F 
ATOM     13  F   UNL     1       7.956   6.184  19.313  0.00  0.00    +0.000 F 
ENDBRANCH   3  10
BRANCH   1  15
ATOM     14  C   UNL     1       4.832   1.718  20.703  0.00  0.00    +0.000 C 
ATOM     15  N   UNL     1       4.206   2.134  19.464  0.00  0.00    +0.000 N 
ATOM     16  C   UNL     1       3.706   1.141  18.533  0.00  0.00    +0.000 C 
ENDBRANCH   1  15
BRANCH   9  17
ATOM     17  C   UNL     1       2.423   7.736  17.892  0.00  0.00    +0.000 C 
BRANCH  17  18
ATOM     18  C   UNL     1       1.784   8.523  19.008  0.00  0.00    +0.000 A 
ATOM     19  C   UNL     1       1.049   9.686  18.731  0.00  0.00    +0.000 A 
ATOM     20  C   UNL     1       0.333  10.334  19.744  0.00  0.00    +0.000 A 
ATOM     21  C   UNL     1       0.340   9.839  21.053  0.00  0.00    +0.000 A 
ATOM     22  C   UNL     1       1.125   8.714  21.342  0.00  0.00    +0.000 A 
ATOM     23  C   UNL     1       1.833   8.061  20.331  0.00  0.00    +0.000 A 
BRANCH  21  24
ATOM     24  C   UNL     1      -0.498  10.481  22.132  0.00  0.00    +0.000 C 
BRANCH  24  25
ATOM     25  N   UNL     1      -0.092  10.020  23.456  0.00  0.00    +0.000 NA
ATOM     26  H   UNL     1      -0.605  10.547  24.161  0.00  0.00    +0.000 HD
ATOM     27  H   UNL     1       0.894  10.228  23.596  0.00  0.00    +0.000 HD
ENDBRANCH  24  25
ENDBRANCH  21  24
ENDBRANCH  17  18
ENDBRANCH   9  17
TORSDOF 6
ENDMDL
MODEL 2
REMARK VINA RESULT:      -7.5      0.172      1.047
REMARK  Name = 
REMARK  8 active torsions:
REMARK  status: ('A' for Active; 'I' for Inactive)
REMARK    1  A    between atoms: C_1  and  N_2
REMARK    2  A    between atoms: N_2  and  C_3
REMARK    3  A    between atoms: N_2  and  C_4
REMARK    4  A    between atoms: C_6  and  C_7
REMARK    5  A    between atoms: N_16  and  C_17
REMARK    6  A    between atoms: C_17  and  C_18
REMARK    7  A    between atoms: C_21  and  C_22
REMARK    8  A    between atoms: C_22  and  N_23
REMARK                            x       y       z     vdW  Elec       q    Type
REMARK                         _______ _______ _______ _____ _____    ______ ____
ROOT
ATOM      1  C   UNL     1       4.480   3.514  18.973  0.00  0.00    +0.000 A 
ATOM      2  N   UNL     1       5.751   4.000  18.822  0.00  0.00    +0.000 NA
ATOM      3  C   UNL     1       5.978   5.293  18.455  0.00  0.00    +0.000 A 
ATOM      4  N   UNL     1       5.017   6.225  18.237  0.00  0.00    +0.000 NA
ATOM      5  C   UNL     1       3.782   5.720  18.371  0.00  0.00    +0.000 A 
ATOM      6  C   UNL     1       3.427   4.428  18.720  0.00  0.00    +0.000 A 
ATOM      7  N   UNL     1       2.046   4.307  18.755  0.00  0.00    +0.000 NA
ATOM      8  C   UNL     1       1.585   5.497  18.435  0.00  0.00    +0.000 A 
ATOM      9  N   UNL     1       2.597   6.382  18.186  0.00  0.00    +0.000 N 
ENDROOT
BRANCH   3  10
ATOM     10  C   UNL     1       7.433   5.731  18.244  0.00  0.00    +0.000 C 
ATOM     11  F   UNL     1       7.609   6.636  17.233  0.00  0.00    +0.000 F 
ATOM     12  F   UNL     1       7.974   6.324  19.352  0.00  0.00    +0.000 F 
ATOM     13  F   UNL     1       8.270   4.689  17.946  0.00  0.00    +0.000 F 
ENDBRANCH   3  10
BRANCH   1  15
ATOM     14  C   UNL     1       3.689   1.277  18.425  0.00  0.00    +0.000 C 
ATOM     15  N   UNL     1       4.313   2.191  19.360  0.00  0.00    +0.000 N 
ATOM     16  C   UNL     1       4.431   1.830  20.760  0.00  0.00    +0.000 C 
ENDBRANCH   1  15
BRANCH   9  17
ATOM     17  C   UNL     1       2.435   7.797  17.920  0.00  0.00    +0.000 C 
BRANCH  17  18
ATOM     18  C   UNL     1       1.788   8.546  19.058  0.00  0.00    +0.000 A 
ATOM     19  C   UNL     1       1.003   9.682  18.810  0.00  0.00    +0.000 A 
ATOM     20  C   UNL     1       0.283  10.289  19.845  0.00  0.00    +0.000 A 
ATOM     21  C   UNL     1       0.336   9.780  21.147  0.00  0.00    +0.000 A 
ATOM     22  C   UNL     1       1.169   8.683  21.406  0.00  0.00    +0.000 A 
ATOM     23  C   UNL     1       1.882   8.071  20.373  0.00  0.00    +0.000 A 
BRANCH  21  24
ATOM     24  C   UNL     1      -0.505  10.376  22.251  0.00  0.00    +0.000 C 
BRANCH  24  25
ATOM     25  N   UNL     1      -0.343   9.629  23.494  0.00  0.00    +0.000 NA
ATOM     26  H   UNL     1       0.120  10.225  24.178  0.00  0.00    +0.000 HD
ATOM     27  H   UNL     1       0.274   8.836  23.332  0.00  0.00    +0.000 HD
ENDBRANCH  24  25
ENDBRANCH  21  24
ENDBRANCH  17  18
ENDBRANCH   9  17
TORSDOF 6
ENDMDL
MODEL 3
REMARK VINA RESULT:      -7.5      0.722      1.385
REMARK  Name = 
REMARK  8 active torsions:
REMARK  status: ('A' for Active; 'I' for Inactive)
REMARK    1  A    between atoms: C_1  and  N_2
REMARK    2  A    between atoms: N_2  and  C_3
REMARK    3  A    between atoms: N_2  and  C_4
REMARK    4  A    between atoms: C_6  and  C_7
REMARK    5  A    between atoms: N_16  and  C_17
REMARK    6  A    between atoms: C_17  and  C_18
REMARK    7  A    between atoms: C_21  and  C_22
REMARK    8  A    between atoms: C_22  and  N_23
REMARK                            x       y       z     vdW  Elec       q    Type
REMARK                         _______ _______ _______ _____ _____    ______ ____
ROOT
ATOM      1  C   UNL     1       4.451   3.465  19.030  0.00  0.00    +0.000 A 
ATOM      2  N   UNL     1       5.760   3.857  18.973  0.00  0.00    +0.000 NA
ATOM      3  C   UNL     1       6.106   5.126  18.613  0.00  0.00    +0.000 A 
ATOM      4  N   UNL     1       5.234   6.120  18.313  0.00  0.00    +0.000 NA
ATOM      5  C   UNL     1       3.960   5.705  18.355  0.00  0.00    +0.000 A 
ATOM      6  C   UNL     1       3.487   4.447  18.687  0.00  0.00    +0.000 A 
ATOM      7  N   UNL     1       2.103   4.424  18.617  0.00  0.00    +0.000 NA
ATOM      8  C   UNL     1       1.754   5.638  18.251  0.00  0.00    +0.000 A 
ATOM      9  N   UNL     1       2.842   6.446  18.073  0.00  0.00    +0.000 N 
ENDROOT
BRANCH   3  10
ATOM     10  C   UNL     1       7.601   5.458  18.511  0.00  0.00    +0.000 C 
ATOM     11  F   UNL     1       8.204   5.722  19.711  0.00  0.00    +0.000 F 
ATOM     12  F   UNL     1       8.333   4.441  17.960  0.00  0.00    +0.000 F 
ATOM     13  F   UNL     1       7.857   6.552  17.731  0.00  0.00    +0.000 F 
ENDBRANCH   3  10
BRANCH   1  15
ATOM     14  C   UNL     1       4.702   1.683  20.671  0.00  0.00    +0.000 C 
ATOM     15  N   UNL     1       4.160   2.163  19.415  0.00  0.00    +0.000 N 
ATOM     16  C   UNL     1       3.642   1.222  18.441  0.00  0.00    +0.000 C 
ENDBRANCH   1  15
BRANCH   9  17
ATOM     17  C   UNL     1       2.803   7.865  17.782  0.00  0.00    +0.000 C 
BRANCH  17  18
ATOM     18  C   UNL     1       1.817   8.620  18.638  0.00  0.00    +0.000 A 
ATOM     19  C   UNL     1       1.707   8.347  20.010  0.00  0.00    +0.000 A 
ATOM     20  C   UNL     1       0.904   9.145  20.833  0.00  0.00    +0.000 A 
ATOM     21  C   UNL     1       0.189  10.225  20.303  0.00  0.00    +0.000 A 
ATOM     22  C   UNL     1       0.250  10.459  18.922  0.00  0.00    +0.000 A 
ATOM     23  C   UNL     1       1.058   9.669  18.102  0.00  0.00    +0.000 A 
BRANCH  21  24
ATOM     24  C   UNL     1      -0.611  11.142  21.197  0.00  0.00    +0.000 C 
BRANCH  24  25
ATOM     25  N   UNL     1       0.236  12.180  21.775  0.00  0.00    +0.000 NA
ATOM     26  H   UNL     1       1.177  11.808  21.898  0.00  0.00    +0.000 HD
ATOM     27  H   UNL     1      -0.108  12.417  22.703  0.00  0.00    +0.000 HD
ENDBRANCH  24  25
ENDBRANCH  21  24
ENDBRANCH  17  18
ENDBRANCH   9  17
TORSDOF 6
ENDMDL
MODEL 4
REMARK VINA RESULT:      -7.4      0.504      1.286
REMARK  Name = 
REMARK  8 active torsions:
REMARK  status: ('A' for Active; 'I' for Inactive)
REMARK    1  A    between atoms: C_1  and  N_2
REMARK    2  A    between atoms: N_2  and  C_3
REMARK    3  A    between atoms: N_2  and  C_4
REMARK    4  A    between atoms: C_6  and  C_7
REMARK    5  A    between atoms: N_16  and  C_17
REMARK    6  A    between atoms: C_17  and  C_18
REMARK    7  A    between atoms: C_21  and  C_22
REMARK    8  A    between atoms: C_22  and  N_23
REMARK                            x       y       z     vdW  Elec       q    Type
REMARK                         _______ _______ _______ _____ _____    ______ ____
ROOT
ATOM      1  C   UNL     1       4.464   3.554  18.978  0.00  0.00    +0.000 A 
ATOM      2  N   UNL     1       5.761   3.958  18.818  0.00  0.00    +0.000 NA
ATOM      3  C   UNL     1       6.066   5.226  18.420  0.00  0.00    +0.000 A 
ATOM      4  N   UNL     1       5.162   6.208  18.176  0.00  0.00    +0.000 NA
ATOM      5  C   UNL     1       3.899   5.782  18.319  0.00  0.00    +0.000 A 
ATOM      6  C   UNL     1       3.467   4.522  18.699  0.00  0.00    +0.000 A 
ATOM      7  N   UNL     1       2.081   4.485  18.734  0.00  0.00    +0.000 NA
ATOM      8  C   UNL     1       1.693   5.691  18.383  0.00  0.00    +0.000 A 
ATOM      9  N   UNL     1       2.756   6.508  18.115  0.00  0.00    +0.000 N 
ENDROOT
BRANCH   3  10
ATOM     10  C   UNL     1       7.545   5.571  18.201  0.00  0.00    +0.000 C 
ATOM     11  F   UNL     1       8.328   4.504  17.856  0.00  0.00    +0.000 F 
ATOM     12  F   UNL     1       7.733   6.490  17.205  0.00  0.00    +0.000 F 
ATOM     13  F   UNL     1       8.139   6.111  19.310  0.00  0.00    +0.000 F 
ENDBRANCH   3  10
BRANCH   1  15
ATOM     14  C   UNL     1       3.682   1.312  18.434  0.00  0.00    +0.000 C 
ATOM     15  N   UNL     1       4.217   2.253  19.397  0.00  0.00    +0.000 N 
ATOM     16  C   UNL     1       4.162   1.952  20.815  0.00  0.00    +0.000 C 
ENDBRANCH   1  15
BRANCH   9  17
ATOM     17  C   UNL     1       2.679   7.924  17.813  0.00  0.00    +0.000 C 
BRANCH  17  18
ATOM     18  C   UNL     1       1.716   8.669  18.702  0.00  0.00    +0.000 A 
ATOM     19  C   UNL     1       1.695   8.437  20.085  0.00  0.00    +0.000 A 
ATOM     20  C   UNL     1       0.909   9.231  20.928  0.00  0.00    +0.000 A 
ATOM     21  C   UNL     1       0.125  10.267  20.408  0.00  0.00    +0.000 A 
ATOM     22  C   UNL     1       0.099  10.458  19.020  0.00  0.00    +0.000 A 
ATOM     23  C   UNL     1       0.888   9.672  18.178  0.00  0.00    +0.000 A 
BRANCH  21  24
ATOM     24  C   UNL     1      -0.657  11.183  21.319  0.00  0.00    +0.000 C 
BRANCH  24  25
ATOM     25  N   UNL     1      -0.213  11.050  22.703  0.00  0.00    +0.000 NA
ATOM     26  H   UNL     1      -0.964  11.354  23.321  0.00  0.00    +0.000 HD
ATOM     27  H   UNL     1       0.571  11.677  22.866  0.00  0.00    +0.000 HD
ENDBRANCH  24  25
ENDBRANCH  21  24
ENDBRANCH  17  18
ENDBRANCH   9  17
TORSDOF 6
ENDMDL
MODEL 5
REMARK VINA RESULT:      -7.3      4.193      8.258
REMARK  Name = 
REMARK  8 active torsions:
REMARK  status: ('A' for Active; 'I' for Inactive)
REMARK    1  A    between atoms: C_1  and  N_2
REMARK    2  A    between atoms: N_2  and  C_3
REMARK    3  A    between atoms: N_2  and  C_4
REMARK    4  A    between atoms: C_6  and  C_7
REMARK    5  A    between atoms: N_16  and  C_17
REMARK    6  A    between atoms: C_17  and  C_18
REMARK    7  A    between atoms: C_21  and  C_22
REMARK    8  A    between atoms: C_22  and  N_23
REMARK                            x       y       z     vdW  Elec       q    Type
REMARK                         _______ _______ _______ _____ _____    ______ ____
ROOT
ATOM      1  C   UNL     1       0.692  11.024  19.408  0.00  0.00    +0.000 A 
ATOM      2  N   UNL     1       0.261  10.873  20.698  0.00  0.00    +0.000 NA
ATOM      3  C   UNL     1       0.464   9.712  21.383  0.00  0.00    +0.000 A 
ATOM      4  N   UNL     1       1.117   8.625  20.904  0.00  0.00    +0.000 NA
ATOM      5  C   UNL     1       1.510   8.789  19.633  0.00  0.00    +0.000 A 
ATOM      6  C   UNL     1       1.348   9.907  18.832  0.00  0.00    +0.000 A 
ATOM      7  N   UNL     1       1.899   9.680  17.580  0.00  0.00    +0.000 NA
ATOM      8  C   UNL     1       2.379   8.456  17.629  0.00  0.00    +0.000 A 
ATOM      9  N   UNL     1       2.161   7.875  18.847  0.00  0.00    +0.000 N 
ENDROOT
BRANCH   3  10
ATOM     10  C   UNL     1      -0.113   9.609  22.801  0.00  0.00    +0.000 C 
ATOM     11  F   UNL     1      -0.755  10.738  23.233  0.00  0.00    +0.000 F 
ATOM     12  F   UNL     1      -1.033   8.605  22.927  0.00  0.00    +0.000 F 
ATOM     13  F   UNL     1       0.838   9.350  23.751  0.00  0.00    +0.000 F 
ENDBRANCH   3  10
BRANCH   1  15
ATOM     14  C   UNL     1      -0.836  12.464  18.173  0.00  0.00    +0.000 C 
ATOM     15  N   UNL     1       0.467  12.235  18.766  0.00  0.00    +0.000 N 
ATOM     16  C   UNL     1       1.590  13.075  18.400  0.00  0.00    +0.000 C 
ENDBRANCH   1  15
BRANCH   9  17
ATOM     17  C   UNL     1       2.661   6.581  19.267  0.00  0.00    +0.000 C 
BRANCH  17  18
ATOM     18  C   UNL     1       3.622   5.966  18.281  0.00  0.00    +0.000 A 
ATOM     19  C   UNL     1       3.324   4.744  17.661  0.00  0.00    +0.000 A 
ATOM     20  C   UNL     1       4.140   4.246  16.639  0.00  0.00    +0.000 A 
ATOM     21  C   UNL     1       5.272   4.954  16.219  0.00  0.00    +0.000 A 
ATOM     22  C   UNL     1       5.604   6.144  16.882  0.00  0.00    +0.000 A 
ATOM     23  C   UNL     1       4.786   6.646  17.896  0.00  0.00    +0.000 A 
BRANCH  21  24
ATOM     24  C   UNL     1       6.108   4.468  15.060  0.00  0.00    +0.000 C 
BRANCH  24  25
ATOM     25  N   UNL     1       7.351   5.227  14.956  0.00  0.00    +0.000 NA
ATOM     26  H   UNL     1       8.128   4.574  14.867  0.00  0.00    +0.000 HD
ATOM     27  H   UNL     1       7.502   5.745  15.818  0.00  0.00    +0.000 HD
ENDBRANCH  24  25
ENDBRANCH  21  24
ENDBRANCH  17  18
ENDBRANCH   9  17
TORSDOF 6
ENDMDL
MODEL 6
REMARK VINA RESULT:      -7.3      4.229      8.290
REMARK  Name = 
REMARK  8 active torsions:
REMARK  status: ('A' for Active; 'I' for Inactive)
REMARK    1  A    between atoms: C_1  and  N_2
REMARK    2  A    between atoms: N_2  and  C_3
REMARK    3  A    between atoms: N_2  and  C_4
REMARK    4  A    between atoms: C_6  and  C_7
REMARK    5  A    between atoms: N_16  and  C_17
REMARK    6  A    between atoms: C_17  and  C_18
REMARK    7  A    between atoms: C_21  and  C_22
REMARK    8  A    between atoms: C_22  and  N_23
REMARK                            x       y       z     vdW  Elec       q    Type
REMARK                         _______ _______ _______ _____ _____    ______ ____
ROOT
ATOM      1  C   UNL     1       0.590  11.122  19.424  0.00  0.00    +0.000 A 
ATOM      2  N   UNL     1       0.185  10.925  20.716  0.00  0.00    +0.000 NA
ATOM      3  C   UNL     1       0.437   9.754  21.369  0.00  0.00    +0.000 A 
ATOM      4  N   UNL     1       1.118   8.702  20.852  0.00  0.00    +0.000 NA
ATOM      5  C   UNL     1       1.485   8.910  19.580  0.00  0.00    +0.000 A 
ATOM      6  C   UNL     1       1.273  10.042  18.811  0.00  0.00    +0.000 A 
ATOM      7  N   UNL     1       1.811   9.865  17.545  0.00  0.00    +0.000 NA
ATOM      8  C   UNL     1       2.332   8.657  17.555  0.00  0.00    +0.000 A 
ATOM      9  N   UNL     1       2.153   8.039  18.762  0.00  0.00    +0.000 N 
ENDROOT
BRANCH   3  10
ATOM     10  C   UNL     1      -0.114   9.597  22.793  0.00  0.00    +0.000 C 
ATOM     11  F   UNL     1       0.841   9.362  23.744  0.00  0.00    +0.000 F 
ATOM     12  F   UNL     1      -0.784  10.708  23.227  0.00  0.00    +0.000 F 
ATOM     13  F   UNL     1      -1.005   8.566  22.913  0.00  0.00    +0.000 F 
ENDBRANCH   3  10
BRANCH   1  15
ATOM     14  C   UNL     1       1.254  13.428  19.006  0.00  0.00    +0.000 C 
ATOM     15  N   UNL     1       0.314  12.340  18.817  0.00  0.00    +0.000 N 
ATOM     16  C   UNL     1      -1.021  12.611  18.319  0.00  0.00    +0.000 C 
ENDBRANCH   1  15
BRANCH   9  17
ATOM     17  C   UNL     1       2.702   6.752  19.141  0.00  0.00    +0.000 C 
BRANCH  17  18
ATOM     18  C   UNL     1       3.573   6.139  18.073  0.00  0.00    +0.000 A 
ATOM     19  C   UNL     1       4.726   6.801  17.625  0.00  0.00    +0.000 A 
ATOM     20  C   UNL     1       5.613   6.171  16.746  0.00  0.00    +0.000 A 
ATOM     21  C   UNL     1       5.365   4.871  16.291  0.00  0.00    +0.000 A 
ATOM     22  C   UNL     1       4.182   4.234  16.690  0.00  0.00    +0.000 A 
ATOM     23  C   UNL     1       3.300   4.859  17.574  0.00  0.00    +0.000 A 
BRANCH  21  24
ATOM     24  C   UNL     1       6.359   4.151  15.412  0.00  0.00    +0.000 C 
BRANCH  24  25
ATOM     25  N   UNL     1       7.416   5.054  14.968  0.00  0.00    +0.000 NA
ATOM     26  H   UNL     1       7.731   5.609  15.762  0.00  0.00    +0.000 HD
ATOM     27  H   UNL     1       7.035   5.709  14.288  0.00  0.00    +0.000 HD
ENDBRANCH  24  25
ENDBRANCH  21  24
ENDBRANCH  17  18
ENDBRANCH   9  17
TORSDOF 6
ENDMDL
MODEL 7
REMARK VINA RESULT:      -7.1      2.300      2.924
REMARK  Name = 
REMARK  8 active torsions:
REMARK  status: ('A' for Active; 'I' for Inactive)
REMARK    1  A    between atoms: C_1  and  N_2
REMARK    2  A    between atoms: N_2  and  C_3
REMARK    3  A    between atoms: N_2  and  C_4
REMARK    4  A    between atoms: C_6  and  C_7
REMARK    5  A    between atoms: N_16  and  C_17
REMARK    6  A    between atoms: C_17  and  C_18
REMARK    7  A    between atoms: C_21  and  C_22
REMARK    8  A    between atoms: C_22  and  N_23
REMARK                            x       y       z     vdW  Elec       q    Type
REMARK                         _______ _______ _______ _____ _____    ______ ____
ROOT
ATOM      1  C   UNL     1       3.595   3.976  18.596  0.00  0.00    +0.000 A 
ATOM      2  N   UNL     1       4.373   4.104  17.478  0.00  0.00    +0.000 NA
ATOM      3  C   UNL     1       4.529   5.307  16.855  0.00  0.00    +0.000 A 
ATOM      4  N   UNL     1       3.986   6.478  17.269  0.00  0.00    +0.000 NA
ATOM      5  C   UNL     1       3.212   6.324  18.353  0.00  0.00    +0.000 A 
ATOM      6  C   UNL     1       2.964   5.158  19.058  0.00  0.00    +0.000 A 
ATOM      7  N   UNL     1       2.114   5.418  20.123  0.00  0.00    +0.000 NA
ATOM      8  C   UNL     1       1.859   6.706  20.057  0.00  0.00    +0.000 A 
ATOM      9  N   UNL     1       2.495   7.295  18.999  0.00  0.00    +0.000 N 
ENDROOT
BRANCH   3  10
ATOM     10  C   UNL     1       5.364   5.343  15.568  0.00  0.00    +0.000 C 
ATOM     11  F   UNL     1       5.162   6.453  14.795  0.00  0.00    +0.000 F 
ATOM     12  F   UNL     1       6.711   5.316  15.809  0.00  0.00    +0.000 F 
ATOM     13  F   UNL     1       5.123   4.279  14.742  0.00  0.00    +0.000 F 
ENDBRANCH   3  10
BRANCH   1  15
ATOM     14  C   UNL     1       2.278   1.959  18.955  0.00  0.00    +0.000 C 
ATOM     15  N   UNL     1       3.485   2.727  19.192  0.00  0.00    +0.000 N 
ATOM     16  C   UNL     1       4.373   2.367  20.281  0.00  0.00    +0.000 C 
ENDBRANCH   1  15
BRANCH   9  17
ATOM     17  C   UNL     1       2.516   8.715  18.710  0.00  0.00    +0.000 C 
BRANCH  17  18
ATOM     18  C   UNL     1       1.157   9.362  18.813  0.00  0.00    +0.000 A 
ATOM     19  C   UNL     1       0.802  10.098  19.953  0.00  0.00    +0.000 A 
ATOM     20  C   UNL     1      -0.396  10.822  19.989  0.00  0.00    +0.000 A 
ATOM     21  C   UNL     1      -1.264  10.820  18.892  0.00  0.00    +0.000 A 
ATOM     22  C   UNL     1      -0.938  10.035  17.778  0.00  0.00    +0.000 A 
ATOM     23  C   UNL     1       0.260   9.320  17.737  0.00  0.00    +0.000 A 
BRANCH  21  24
ATOM     24  C   UNL     1      -2.515  11.666  18.889  0.00  0.00    +0.000 C 
BRANCH  24  25
ATOM     25  N   UNL     1      -2.939  11.970  17.526  0.00  0.00    +0.000 NA
ATOM     26  H   UNL     1      -2.224  11.643  16.878  0.00  0.00    +0.000 HD
ATOM     27  H   UNL     1      -2.998  12.979  17.410  0.00  0.00    +0.000 HD
ENDBRANCH  24  25
ENDBRANCH  21  24
ENDBRANCH  17  18
ENDBRANCH   9  17
TORSDOF 6
ENDMDL
MODEL 8
REMARK VINA RESULT:      -7.1      4.110      8.168
REMARK  Name = 
REMARK  8 active torsions:
REMARK  status: ('A' for Active; 'I' for Inactive)
REMARK    1  A    between atoms: C_1  and  N_2
REMARK    2  A    between atoms: N_2  and  C_3
REMARK    3  A    between atoms: N_2  and  C_4
REMARK    4  A    between atoms: C_6  and  C_7
REMARK    5  A    between atoms: N_16  and  C_17
REMARK    6  A    between atoms: C_17  and  C_18
REMARK    7  A    between atoms: C_21  and  C_22
REMARK    8  A    between atoms: C_22  and  N_23
REMARK                            x       y       z     vdW  Elec       q    Type
REMARK                         _______ _______ _______ _____ _____    ______ ____
ROOT
ATOM      1  C   UNL     1       0.977  10.864  19.335  0.00  0.00    +0.000 A 
ATOM      2  N   UNL     1       0.495  10.803  20.614  0.00  0.00    +0.000 NA
ATOM      3  C   UNL     1       0.579   9.658  21.351  0.00  0.00    +0.000 A 
ATOM      4  N   UNL     1       1.155   8.503  20.937  0.00  0.00    +0.000 NA
ATOM      5  C   UNL     1       1.601   8.581  19.675  0.00  0.00    +0.000 A 
ATOM      6  C   UNL     1       1.556   9.675  18.827  0.00  0.00    +0.000 A 
ATOM      7  N   UNL     1       2.126   9.353  17.605  0.00  0.00    +0.000 NA
ATOM      8  C   UNL     1       2.502   8.097  17.717  0.00  0.00    +0.000 A 
ATOM      9  N   UNL     1       2.198   7.586  18.948  0.00  0.00    +0.000 N 
ENDROOT
BRANCH   3  10
ATOM     10  C   UNL     1      -0.049   9.662  22.751  0.00  0.00    +0.000 C 
ATOM     11  F   UNL     1      -1.053   8.748  22.921  0.00  0.00    +0.000 F 
ATOM     12  F   UNL     1       0.857   9.385  23.738  0.00  0.00    +0.000 F 
ATOM     13  F   UNL     1      -0.597  10.869  23.091  0.00  0.00    +0.000 F 
ENDBRANCH   3  10
BRANCH   1  15
ATOM     14  C   UNL     1       2.084  12.820  18.396  0.00  0.00    +0.000 C 
ATOM     15  N   UNL     1       0.873  12.062  18.640  0.00  0.00    +0.000 N 
ATOM     16  C   UNL     1      -0.423  12.693  18.482  0.00  0.00    +0.000 C 
ENDBRANCH   1  15
BRANCH   9  17
ATOM     17  C   UNL     1       2.576   6.274  19.435  0.00  0.00    +0.000 C 
BRANCH  17  18
ATOM     18  C   UNL     1       3.624   5.603  18.583  0.00  0.00    +0.000 A 
ATOM     19  C   UNL     1       3.255   4.688  17.586  0.00  0.00    +0.000 A 
ATOM     20  C   UNL     1       4.209   4.178  16.699  0.00  0.00    +0.000 A 
ATOM     21  C   UNL     1       5.551   4.566  16.792  0.00  0.00    +0.000 A 
ATOM     22  C   UNL     1       5.929   5.432  17.827  0.00  0.00    +0.000 A 
ATOM     23  C   UNL     1       4.977   5.948  18.708  0.00  0.00    +0.000 A 
BRANCH  21  24
ATOM     24  C   UNL     1       6.570   4.089  15.786  0.00  0.00    +0.000 C 
BRANCH  24  25
ATOM     25  N   UNL     1       5.982   3.980  14.455  0.00  0.00    +0.000 NA
ATOM     26  H   UNL     1       5.027   4.334  14.487  0.00  0.00    +0.000 HD
ATOM     27  H   UNL     1       5.921   2.999  14.193  0.00  0.00    +0.000 HD
ENDBRANCH  24  25
ENDBRANCH  21  24
ENDBRANCH  17  18
ENDBRANCH   9  17
TORSDOF 6
ENDMDL
MODEL 9
REMARK VINA RESULT:      -7.1      2.275      2.739
REMARK  Name = 
REMARK  8 active torsions:
REMARK  status: ('A' for Active; 'I' for Inactive)
REMARK    1  A    between atoms: C_1  and  N_2
REMARK    2  A    between atoms: N_2  and  C_3
REMARK    3  A    between atoms: N_2  and  C_4
REMARK    4  A    between atoms: C_6  and  C_7
REMARK    5  A    between atoms: N_16  and  C_17
REMARK    6  A    between atoms: C_17  and  C_18
REMARK    7  A    between atoms: C_21  and  C_22
REMARK    8  A    between atoms: C_22  and  N_23
REMARK                            x       y       z     vdW  Elec       q    Type
REMARK                         _______ _______ _______ _____ _____    ______ ____
ROOT
ATOM      1  C   UNL     1       3.414   4.185  19.010  0.00  0.00    +0.000 A 
ATOM      2  N   UNL     1       4.209   4.211  17.897  0.00  0.00    +0.000 NA
ATOM      3  C   UNL     1       4.372   5.350  17.166  0.00  0.00    +0.000 A 
ATOM      4  N   UNL     1       3.818   6.553  17.460  0.00  0.00    +0.000 NA
ATOM      5  C   UNL     1       3.028   6.498  18.541  0.00  0.00    +0.000 A 
ATOM      6  C   UNL     1       2.772   5.402  19.349  0.00  0.00    +0.000 A 
ATOM      7  N   UNL     1       1.905   5.757  20.371  0.00  0.00    +0.000 NA
ATOM      8  C   UNL     1       1.647   7.033  20.181  0.00  0.00    +0.000 A 
ATOM      9  N   UNL     1       2.298   7.522  19.082  0.00  0.00    +0.000 N 
ENDROOT
BRANCH   3  10
ATOM     10  C   UNL     1       5.227   5.269  15.895  0.00  0.00    +0.000 C 
ATOM     11  F   UNL     1       4.925   4.213  15.079  0.00  0.00    +0.000 F 
ATOM     12  F   UNL     1       5.106   6.378  15.103  0.00  0.00    +0.000 F 
ATOM     13  F   UNL     1       6.566   5.153  16.155  0.00  0.00    +0.000 F 
ENDBRANCH   3  10
BRANCH   1  15
ATOM     14  C   UNL     1       4.512   2.336  20.155  0.00  0.00    +0.000 C 
ATOM     15  N   UNL     1       3.298   2.997  19.720  0.00  0.00    +0.000 N 
ATOM     16  C   UNL     1       2.040   2.274  19.712  0.00  0.00    +0.000 C 
ENDBRANCH   1  15
BRANCH   9  17
ATOM     17  C   UNL     1       2.319   8.909  18.661  0.00  0.00    +0.000 C 
BRANCH  17  18
ATOM     18  C   UNL     1       1.017   9.627  18.915  0.00  0.00    +0.000 A 
ATOM     19  C   UNL     1       0.834  10.379  20.084  0.00  0.00    +0.000 A 
ATOM     20  C   UNL     1      -0.312  11.165  20.254  0.00  0.00    +0.000 A 
ATOM     21  C   UNL     1      -1.299  11.211  19.263  0.00  0.00    +0.000 A 
ATOM     22  C   UNL     1      -1.144  10.411  18.123  0.00  0.00    +0.000 A 
ATOM     23  C   UNL     1       0.002   9.633  17.949  0.00  0.00    +0.000 A 
BRANCH  21  24
ATOM     24  C   UNL     1      -2.496  12.122  19.399  0.00  0.00    +0.000 C 
BRANCH  24  25
ATOM     25  N   UNL     1      -3.391  11.986  18.254  0.00  0.00    +0.000 NA
ATOM     26  H   UNL     1      -2.912  11.465  17.521  0.00  0.00    +0.000 HD
ATOM     27  H   UNL     1      -3.593  12.907  17.873  0.00  0.00    +0.000 HD
ENDBRANCH  24  25
ENDBRANCH  21  24
ENDBRANCH  17  18
ENDBRANCH   9  17
TORSDOF 6
ENDMDL
