MODEL 1
REMARK VINA RESULT:      -8.4      0.000      0.000
REMARK  Name = 
REMARK  7 active torsions:
REMARK  status: ('A' for Active; 'I' for Inactive)
REMARK    1  A    between atoms: C_1  and  N_2
REMARK    2  A    between atoms: C_5  and  N_6
REMARK    3  A    between atoms: C_7  and  C_9
REMARK    4  A    between atoms: C_20  and  N_21
REMARK    5  A    between atoms: N_21  and  C_22
REMARK    6  A    between atoms: C_22  and  C_23
REMARK    7  A    between atoms: C_23  and  N_24
REMARK                            x       y       z     vdW  Elec       q    Type
REMARK                         _______ _______ _______ _____ _____    ______ ____
ROOT
ATOM      1  C   UNL     1      -0.055  12.131  18.597  0.00  0.00    +0.000 C 
ATOM      2  N   UNL     1       0.346  10.886  19.233  0.00  0.00    +0.000 N 
ATOM      3  C   UNL     1       1.250  10.051  18.581  0.00  0.00    +0.000 A 
ATOM      4  O   UNL     1       1.768  10.311  17.493  0.00  0.00    +0.000 OA
ATOM      5  C   UNL     1       1.609   8.736  19.245  0.00  0.00    +0.000 A 
ATOM      6  C   UNL     1       1.175   8.499  20.493  0.00  0.00    +0.000 A 
ATOM      7  C   UNL     1       0.397   9.497  21.224  0.00  0.00    +0.000 A 
ATOM      8  C   UNL     1       0.096   9.352  22.571  0.00  0.00    +0.000 A 
ATOM      9  N   UNL     1      -0.550  10.294  23.307  0.00  0.00    +0.000 NA
ATOM     10  C   UNL     1      -0.973  11.408  22.680  0.00  0.00    +0.000 A 
ATOM     11  C   UNL     1      -0.820  11.562  21.307  0.00  0.00    +0.000 A 
ATOM     12  C   UNL     1      -0.058  10.641  20.584  0.00  0.00    +0.000 A 
ENDROOT
BRANCH   5  13
ATOM     13  N   UNL     1       2.404   7.869  18.491  0.00  0.00    +0.000 N 
ATOM     14  C   UNL     1       2.744   6.571  18.811  0.00  0.00    +0.000 C 
ATOM     15  O   UNL     1       2.336   5.952  19.798  0.00  0.00    +0.000 OA
ATOM     16  H   UNL     1       2.719   8.275  17.616  0.00  0.00    +0.000 HD
BRANCH  14  17
ATOM     17  C   UNL     1       3.684   5.836  17.904  0.00  0.00    +0.000 A 
ATOM     18  C   UNL     1       3.683   4.445  17.761  0.00  0.00    +0.000 A 
ATOM     19  C   UNL     1       4.524   3.841  16.818  0.00  0.00    +0.000 A 
ATOM     20  C   UNL     1       5.362   4.620  16.017  0.00  0.00    +0.000 A 
ATOM     21 CL   UNL     1       6.365   3.870  14.838  0.00  0.00    +0.000 Cl
ATOM     22  C   UNL     1       5.376   6.004  16.156  0.00  0.00    +0.000 A 
ATOM     23  C   UNL     1       4.539   6.608  17.095  0.00  0.00    +0.000 A 
ENDBRANCH  14  17
ENDBRANCH   5  13
BRANCH  10  24
ATOM     24  N   UNL     1      -1.598  12.464  23.396  0.00  0.00    +0.000 N 
ATOM     25  H   UNL     1      -1.096  12.606  24.268  0.00  0.00    +0.000 HD
BRANCH  24  26
ATOM     26  C   UNL     1      -3.009  12.165  23.673  0.00  0.00    +0.000 C 
BRANCH  26  27
ATOM     27  C   UNL     1      -3.958  12.900  22.685  0.00  0.00    +0.000 C 
BRANCH  27  28
ATOM     28  N   UNL     1      -5.350  12.385  22.701  0.00  0.00    +0.000 NA
ATOM     29  C   UNL     1      -6.098  12.730  21.469  0.00  0.00    +0.000 C 
ATOM     30  C   UNL     1      -6.301  14.245  21.337  0.00  0.00    +0.000 C 
ATOM     31  O   UNL     1      -7.137  14.708  22.404  0.00  0.00    +0.000 OA
ATOM     32  C   UNL     1      -6.576  14.398  23.689  0.00  0.00    +0.000 C 
ATOM     33  C   UNL     1      -6.143  12.921  23.834  0.00  0.00    +0.000 C 
ENDBRANCH  27  28
ENDBRANCH  26  27
ENDBRANCH  24  26
ENDBRANCH  10  24
TORSDOF 6
ENDMDL
MODEL 2
REMARK VINA RESULT:      -8.3      4.343     10.899
REMARK  Name = 
REMARK  7 active torsions:
REMARK  status: ('A' for Active; 'I' for Inactive)
REMARK    1  A    between atoms: C_1  and  N_2
REMARK    2  A    between atoms: C_5  and  N_6
REMARK    3  A    between atoms: C_7  and  C_9
REMARK    4  A    between atoms: C_20  and  N_21
REMARK    5  A    between atoms: N_21  and  C_22
REMARK    6  A    between atoms: C_22  and  C_23
REMARK    7  A    between atoms: C_23  and  N_24
REMARK                            x       y       z     vdW  Elec       q    Type
REMARK                         _______ _______ _______ _____ _____    ______ ____
ROOT
ATOM      1  C   UNL     1       2.086   9.368  17.437  0.00  0.00    +0.000 C 
ATOM      2  N   UNL     1       1.603   9.044  18.770  0.00  0.00    +0.000 N 
ATOM      3  C   UNL     1       0.680   9.890  19.381  0.00  0.00    +0.000 A 
ATOM      4  O   UNL     1       0.211  10.900  18.850  0.00  0.00    +0.000 OA
ATOM      5  C   UNL     1       0.234   9.556  20.792  0.00  0.00    +0.000 A 
ATOM      6  C   UNL     1       0.615   8.388  21.333  0.00  0.00    +0.000 A 
ATOM      7  C   UNL     1       1.417   7.431  20.575  0.00  0.00    +0.000 A 
ATOM      8  C   UNL     1       1.667   6.148  21.042  0.00  0.00    +0.000 A 
ATOM      9  N   UNL     1       2.334   5.201  20.333  0.00  0.00    +0.000 NA
ATOM     10  C   UNL     1       2.832   5.544  19.129  0.00  0.00    +0.000 A 
ATOM     11  C   UNL     1       2.732   6.848  18.656  0.00  0.00    +0.000 A 
ATOM     12  C   UNL     1       1.949   7.779  19.342  0.00  0.00    +0.000 A 
ENDROOT
BRANCH   5  13
ATOM     13  N   UNL     1      -0.578  10.506  21.416  0.00  0.00    +0.000 N 
ATOM     14  C   UNL     1      -0.201  11.761  21.848  0.00  0.00    +0.000 C 
ATOM     15  O   UNL     1       0.916  12.262  21.685  0.00  0.00    +0.000 OA
ATOM     16  H   UNL     1      -1.541  10.204  21.517  0.00  0.00    +0.000 HD
BRANCH  14  17
ATOM     17  C   UNL     1      -1.208  12.598  22.576  0.00  0.00    +0.000 A 
ATOM     18  C   UNL     1      -2.416  12.092  23.067  0.00  0.00    +0.000 A 
ATOM     19  C   UNL     1      -3.259  12.915  23.825  0.00  0.00    +0.000 A 
ATOM     20  C   UNL     1      -2.900  14.238  24.094  0.00  0.00    +0.000 A 
ATOM     21 CL   UNL     1      -3.927  15.228  25.054  0.00  0.00    +0.000 Cl
ATOM     22  C   UNL     1      -1.705  14.752  23.604  0.00  0.00    +0.000 A 
ATOM     23  C   UNL     1      -0.863  13.935  22.848  0.00  0.00    +0.000 A 
ENDBRANCH  14  17
ENDBRANCH   5  13
BRANCH  10  24
ATOM     24  N   UNL     1       3.485   4.592  18.303  0.00  0.00    +0.000 N 
ATOM     25  H   UNL     1       2.835   3.836  18.104  0.00  0.00    +0.000 HD
BRANCH  24  26
ATOM     26  C   UNL     1       4.693   4.057  18.948  0.00  0.00    +0.000 C 
BRANCH  26  27
ATOM     27  C   UNL     1       5.748   5.169  19.205  0.00  0.00    +0.000 C 
BRANCH  27  28
ATOM     28  N   UNL     1       7.102   4.834  18.697  0.00  0.00    +0.000 NA
ATOM     29  C   UNL     1       8.060   5.954  18.849  0.00  0.00    +0.000 C 
ATOM     30  C   UNL     1       7.665   7.157  17.983  0.00  0.00    +0.000 C 
ATOM     31  O   UNL     1       7.752   6.797  16.599  0.00  0.00    +0.000 OA
ATOM     32  C   UNL     1       6.913   5.672  16.291  0.00  0.00    +0.000 C 
ATOM     33  C   UNL     1       7.099   4.480  17.257  0.00  0.00    +0.000 C 
ENDBRANCH  27  28
ENDBRANCH  26  27
ENDBRANCH  24  26
ENDBRANCH  10  24
TORSDOF 6
ENDMDL
MODEL 3
REMARK VINA RESULT:      -8.1      4.206     10.853
REMARK  Name = 
REMARK  7 active torsions:
REMARK  status: ('A' for Active; 'I' for Inactive)
REMARK    1  A    between atoms: C_1  and  N_2
REMARK    2  A    between atoms: C_5  and  N_6
REMARK    3  A    between atoms: C_7  and  C_9
REMARK    4  A    between atoms: C_20  and  N_21
REMARK    5  A    between atoms: N_21  and  C_22
REMARK    6  A    between atoms: C_22  and  C_23
REMARK    7  A    between atoms: C_23  and  N_24
REMARK                            x       y       z     vdW  Elec       q    Type
REMARK                         _______ _______ _______ _____ _____    ______ ____
ROOT
ATOM      1  C   UNL     1       2.480   8.852  17.499  0.00  0.00    +0.000 C 
ATOM      2  N   UNL     1       1.910   8.686  18.826  0.00  0.00    +0.000 N 
ATOM      3  C   UNL     1       1.108   9.697  19.352  0.00  0.00    +0.000 A 
ATOM      4  O   UNL     1       0.818  10.732  18.747  0.00  0.00    +0.000 OA
ATOM      5  C   UNL     1       0.570   9.519  20.758  0.00  0.00    +0.000 A 
ATOM      6  C   UNL     1       0.750   8.342  21.377  0.00  0.00    +0.000 A 
ATOM      7  C   UNL     1       1.420   7.230  20.706  0.00  0.00    +0.000 A 
ATOM      8  C   UNL     1       1.454   5.955  21.252  0.00  0.00    +0.000 A 
ATOM      9  N   UNL     1       1.991   4.876  20.623  0.00  0.00    +0.000 NA
ATOM     10  C   UNL     1       2.575   5.068  19.425  0.00  0.00    +0.000 A 
ATOM     11  C   UNL     1       2.693   6.341  18.878  0.00  0.00    +0.000 A 
ATOM     12  C   UNL     1       2.040   7.420  19.479  0.00  0.00    +0.000 A 
ENDROOT
BRANCH   5  13
ATOM     13  N   UNL     1      -0.106  10.617  21.296  0.00  0.00    +0.000 N 
ATOM     14  C   UNL     1      -0.525  10.771  22.601  0.00  0.00    +0.000 C 
ATOM     15  O   UNL     1      -0.302   9.974  23.518  0.00  0.00    +0.000 OA
ATOM     16  H   UNL     1      -0.260  11.360  20.623  0.00  0.00    +0.000 HD
BRANCH  14  17
ATOM     17  C   UNL     1      -1.315  11.993  22.957  0.00  0.00    +0.000 A 
ATOM     18  C   UNL     1      -0.847  13.296  22.757  0.00  0.00    +0.000 A 
ATOM     19  C   UNL     1      -1.687  14.386  23.022  0.00  0.00    +0.000 A 
ATOM     20  C   UNL     1      -2.989  14.180  23.482  0.00  0.00    +0.000 A 
ATOM     21 CL   UNL     1      -4.021  15.525  23.770  0.00  0.00    +0.000 Cl
ATOM     22  C   UNL     1      -3.462  12.889  23.691  0.00  0.00    +0.000 A 
ATOM     23  C   UNL     1      -2.628  11.801  23.429  0.00  0.00    +0.000 A 
ENDBRANCH  14  17
ENDBRANCH   5  13
BRANCH  10  24
ATOM     24  N   UNL     1       3.101   3.980  18.679  0.00  0.00    +0.000 N 
ATOM     25  H   UNL     1       2.950   3.124  19.205  0.00  0.00    +0.000 HD
BRANCH  24  26
ATOM     26  C   UNL     1       4.535   4.156  18.409  0.00  0.00    +0.000 C 
BRANCH  26  27
ATOM     27  C   UNL     1       4.872   3.917  16.911  0.00  0.00    +0.000 C 
BRANCH  27  28
ATOM     28  N   UNL     1       4.875   5.156  16.095  0.00  0.00    +0.000 NA
ATOM     29  C   UNL     1       5.566   4.982  14.796  0.00  0.00    +0.000 C 
ATOM     30  C   UNL     1       7.062   4.700  14.985  0.00  0.00    +0.000 C 
ATOM     31  O   UNL     1       7.691   5.845  15.573  0.00  0.00    +0.000 OA
ATOM     32  C   UNL     1       7.092   6.190  16.833  0.00  0.00    +0.000 C 
ATOM     33  C   UNL     1       5.551   6.286  16.778  0.00  0.00    +0.000 C 
ENDBRANCH  27  28
ENDBRANCH  26  27
ENDBRANCH  24  26
ENDBRANCH  10  24
TORSDOF 6
ENDMDL
MODEL 4
REMARK VINA RESULT:      -8.0      1.987      2.323
REMARK  Name = 
REMARK  7 active torsions:
REMARK  status: ('A' for Active; 'I' for Inactive)
REMARK    1  A    between atoms: C_1  and  N_2
REMARK    2  A    between atoms: C_5  and  N_6
REMARK    3  A    between atoms: C_7  and  C_9
REMARK    4  A    between atoms: C_20  and  N_21
REMARK    5  A    between atoms: N_21  and  C_22
REMARK    6  A    between atoms: C_22  and  C_23
REMARK    7  A    between atoms: C_23  and  N_24
REMARK                            x       y       z     vdW  Elec       q    Type
REMARK                         _______ _______ _______ _____ _____    ______ ____
ROOT
ATOM      1  C   UNL     1      -0.490  11.733  18.556  0.00  0.00    +0.000 C 
ATOM      2  N   UNL     1       0.127  10.611  19.245  0.00  0.00    +0.000 N 
ATOM      3  C   UNL     1       1.076   9.842  18.576  0.00  0.00    +0.000 A 
ATOM      4  O   UNL     1       1.460  10.067  17.425  0.00  0.00    +0.000 OA
ATOM      5  C   UNL     1       1.664   8.647  19.301  0.00  0.00    +0.000 A 
ATOM      6  C   UNL     1       1.373   8.469  20.599  0.00  0.00    +0.000 A 
ATOM      7  C   UNL     1       0.533   9.422  21.322  0.00  0.00    +0.000 A 
ATOM      8  C   UNL     1       0.370   9.361  22.699  0.00  0.00    +0.000 A 
ATOM      9  N   UNL     1      -0.331  10.275  23.420  0.00  0.00    +0.000 NA
ATOM     10  C   UNL     1      -0.951  11.266  22.752  0.00  0.00    +0.000 A 
ATOM     11  C   UNL     1      -0.938  11.315  21.363  0.00  0.00    +0.000 A 
ATOM     12  C   UNL     1      -0.124  10.437  20.643  0.00  0.00    +0.000 A 
ENDROOT
BRANCH   5  13
ATOM     13  N   UNL     1       2.501   7.824  18.543  0.00  0.00    +0.000 N 
ATOM     14  C   UNL     1       2.644   6.457  18.662  0.00  0.00    +0.000 C 
ATOM     15  O   UNL     1       1.994   5.738  19.427  0.00  0.00    +0.000 OA
ATOM     16  H   UNL     1       3.017   8.328  17.830  0.00  0.00    +0.000 HD
BRANCH  14  17
ATOM     17  C   UNL     1       3.664   5.770  17.807  0.00  0.00    +0.000 A 
ATOM     18  C   UNL     1       3.763   4.379  17.696  0.00  0.00    +0.000 A 
ATOM     19  C   UNL     1       4.678   3.815  16.797  0.00  0.00    +0.000 A 
ATOM     20  C   UNL     1       5.491   4.634  16.010  0.00  0.00    +0.000 A 
ATOM     21 CL   UNL     1       6.587   3.931  14.886  0.00  0.00    +0.000 Cl
ATOM     22  C   UNL     1       5.407   6.018  16.119  0.00  0.00    +0.000 A 
ATOM     23  C   UNL     1       4.496   6.582  17.013  0.00  0.00    +0.000 A 
ENDBRANCH  14  17
ENDBRANCH   5  13
BRANCH  10  24
ATOM     24  N   UNL     1      -1.649  12.294  23.440  0.00  0.00    +0.000 N 
ATOM     25  H   UNL     1      -2.622  12.276  23.148  0.00  0.00    +0.000 HD
BRANCH  24  26
ATOM     26  C   UNL     1      -1.068  13.615  23.167  0.00  0.00    +0.000 C 
BRANCH  26  27
ATOM     27  C   UNL     1      -2.142  14.738  23.213  0.00  0.00    +0.000 C 
BRANCH  27  28
ATOM     28  N   UNL     1      -2.914  14.773  24.480  0.00  0.00    +0.000 NA
ATOM     29  C   UNL     1      -4.077  15.689  24.412  0.00  0.00    +0.000 C 
ATOM     30  C   UNL     1      -3.638  17.149  24.244  0.00  0.00    +0.000 C 
ATOM     31  O   UNL     1      -2.921  17.568  25.412  0.00  0.00    +0.000 OA
ATOM     32  C   UNL     1      -1.777  16.735  25.658  0.00  0.00    +0.000 C 
ATOM     33  C   UNL     1      -2.096  15.223  25.632  0.00  0.00    +0.000 C 
ENDBRANCH  27  28
ENDBRANCH  26  27
ENDBRANCH  24  26
ENDBRANCH  10  24
TORSDOF 6
ENDMDL
MODEL 5
REMARK VINA RESULT:      -8.0      0.934      1.243
REMARK  Name = 
REMARK  7 active torsions:
REMARK  status: ('A' for Active; 'I' for Inactive)
REMARK    1  A    between atoms: C_1  and  N_2
REMARK    2  A    between atoms: C_5  and  N_6
REMARK    3  A    between atoms: C_7  and  C_9
REMARK    4  A    between atoms: C_20  and  N_21
REMARK    5  A    between atoms: N_21  and  C_22
REMARK    6  A    between atoms: C_22  and  C_23
REMARK    7  A    between atoms: C_23  and  N_24
REMARK                            x       y       z     vdW  Elec       q    Type
REMARK                         _______ _______ _______ _____ _____    ______ ____
ROOT
ATOM      1  C   UNL     1      -0.070  12.100  18.592  0.00  0.00    +0.000 C 
ATOM      2  N   UNL     1       0.339  10.867  19.246  0.00  0.00    +0.000 N 
ATOM      3  C   UNL     1       1.251  10.030  18.607  0.00  0.00    +0.000 A 
ATOM      4  O   UNL     1       1.769  10.279  17.516  0.00  0.00    +0.000 OA
ATOM      5  C   UNL     1       1.619   8.727  19.289  0.00  0.00    +0.000 A 
ATOM      6  C   UNL     1       1.184   8.503  20.539  0.00  0.00    +0.000 A 
ATOM      7  C   UNL     1       0.396   9.505  21.254  0.00  0.00    +0.000 A 
ATOM      8  C   UNL     1       0.093   9.376  22.603  0.00  0.00    +0.000 A 
ATOM      9  N   UNL     1      -0.562  10.322  23.325  0.00  0.00    +0.000 NA
ATOM     10  C   UNL     1      -0.992  11.424  22.682  0.00  0.00    +0.000 A 
ATOM     11  C   UNL     1      -0.837  11.560  21.307  0.00  0.00    +0.000 A 
ATOM     12  C   UNL     1      -0.066  10.636  20.598  0.00  0.00    +0.000 A 
ENDROOT
BRANCH   5  13
ATOM     13  N   UNL     1       2.423   7.856  18.548  0.00  0.00    +0.000 N 
ATOM     14  C   UNL     1       2.682   6.530  18.828  0.00  0.00    +0.000 C 
ATOM     15  O   UNL     1       2.180   5.889  19.757  0.00  0.00    +0.000 OA
ATOM     16  H   UNL     1       2.813   8.284  17.715  0.00  0.00    +0.000 HD
BRANCH  14  17
ATOM     17  C   UNL     1       3.645   5.791  17.951  0.00  0.00    +0.000 A 
ATOM     18  C   UNL     1       3.669   4.397  17.839  0.00  0.00    +0.000 A 
ATOM     19  C   UNL     1       4.533   3.787  16.921  0.00  0.00    +0.000 A 
ATOM     20  C   UNL     1       5.370   4.562  16.114  0.00  0.00    +0.000 A 
ATOM     21 CL   UNL     1       6.401   3.803  14.967  0.00  0.00    +0.000 Cl
ATOM     22  C   UNL     1       5.359   5.948  16.223  0.00  0.00    +0.000 A 
ATOM     23  C   UNL     1       4.500   6.559  17.137  0.00  0.00    +0.000 A 
ENDBRANCH  14  17
ENDBRANCH   5  13
BRANCH  10  24
ATOM     24  N   UNL     1      -1.627  12.484  23.382  0.00  0.00    +0.000 N 
ATOM     25  H   UNL     1      -1.161  12.606  24.277  0.00  0.00    +0.000 HD
BRANCH  24  26
ATOM     26  C   UNL     1      -3.055  12.211  23.593  0.00  0.00    +0.000 C 
BRANCH  26  27
ATOM     27  C   UNL     1      -3.951  13.323  22.979  0.00  0.00    +0.000 C 
BRANCH  27  28
ATOM     28  N   UNL     1      -3.678  13.584  21.544  0.00  0.00    +0.000 NA
ATOM     29  C   UNL     1      -4.071  14.951  21.129  0.00  0.00    +0.000 C 
ATOM     30  C   UNL     1      -5.588  15.157  21.225  0.00  0.00    +0.000 C 
ATOM     31  O   UNL     1      -6.245  14.296  20.288  0.00  0.00    +0.000 OA
ATOM     32  C   UNL     1      -5.921  12.916  20.518  0.00  0.00    +0.000 C 
ATOM     33  C   UNL     1      -4.404  12.652  20.647  0.00  0.00    +0.000 C 
ENDBRANCH  27  28
ENDBRANCH  26  27
ENDBRANCH  24  26
ENDBRANCH  10  24
TORSDOF 6
ENDMDL
MODEL 6
REMARK VINA RESULT:      -7.9      1.608      2.041
REMARK  Name = 
REMARK  7 active torsions:
REMARK  status: ('A' for Active; 'I' for Inactive)
REMARK    1  A    between atoms: C_1  and  N_2
REMARK    2  A    between atoms: C_5  and  N_6
REMARK    3  A    between atoms: C_7  and  C_9
REMARK    4  A    between atoms: C_20  and  N_21
REMARK    5  A    between atoms: N_21  and  C_22
REMARK    6  A    between atoms: C_22  and  C_23
REMARK    7  A    between atoms: C_23  and  N_24
REMARK                            x       y       z     vdW  Elec       q    Type
REMARK                         _______ _______ _______ _____ _____    ______ ____
ROOT
ATOM      1  C   UNL     1      -0.138  12.008  18.595  0.00  0.00    +0.000 C 
ATOM      2  N   UNL     1       0.333  10.790  19.235  0.00  0.00    +0.000 N 
ATOM      3  C   UNL     1       1.232   9.971  18.557  0.00  0.00    +0.000 A 
ATOM      4  O   UNL     1       1.690  10.224  17.440  0.00  0.00    +0.000 OA
ATOM      5  C   UNL     1       1.665   8.682  19.228  0.00  0.00    +0.000 A 
ATOM      6  C   UNL     1       1.298   8.457  20.499  0.00  0.00    +0.000 A 
ATOM      7  C   UNL     1       0.523   9.444  21.247  0.00  0.00    +0.000 A 
ATOM      8  C   UNL     1       0.289   9.318  22.609  0.00  0.00    +0.000 A 
ATOM      9  N   UNL     1      -0.351  10.253  23.358  0.00  0.00    +0.000 NA
ATOM     10  C   UNL     1      -0.839  11.340  22.730  0.00  0.00    +0.000 A 
ATOM     11  C   UNL     1      -0.756  11.470  21.349  0.00  0.00    +0.000 A 
ATOM     12  C   UNL     1       0.001  10.559  20.608  0.00  0.00    +0.000 A 
ENDROOT
BRANCH   5  13
ATOM     13  N   UNL     1       2.452   7.825  18.453  0.00  0.00    +0.000 N 
ATOM     14  C   UNL     1       2.773   6.514  18.738  0.00  0.00    +0.000 C 
ATOM     15  O   UNL     1       2.350   5.873  19.705  0.00  0.00    +0.000 OA
ATOM     16  H   UNL     1       2.777   8.251  17.592  0.00  0.00    +0.000 HD
BRANCH  14  17
ATOM     17  C   UNL     1       3.707   5.792  17.815  0.00  0.00    +0.000 A 
ATOM     18  C   UNL     1       3.706   4.403  17.654  0.00  0.00    +0.000 A 
ATOM     19  C   UNL     1       4.541   3.812  16.697  0.00  0.00    +0.000 A 
ATOM     20  C   UNL     1       5.374   4.602  15.901  0.00  0.00    +0.000 A 
ATOM     21 CL   UNL     1       6.369   3.869  14.707  0.00  0.00    +0.000 Cl
ATOM     22  C   UNL     1       5.387   5.984  16.059  0.00  0.00    +0.000 A 
ATOM     23  C   UNL     1       4.557   6.575  17.011  0.00  0.00    +0.000 A 
ENDBRANCH  14  17
ENDBRANCH   5  13
BRANCH  10  24
ATOM     24  N   UNL     1      -1.465  12.390  23.454  0.00  0.00    +0.000 N 
ATOM     25  H   UNL     1      -2.471  12.307  23.339  0.00  0.00    +0.000 HD
BRANCH  24  26
ATOM     26  C   UNL     1      -1.013  13.708  22.988  0.00  0.00    +0.000 C 
BRANCH  26  27
ATOM     27  C   UNL     1      -1.525  14.851  23.910  0.00  0.00    +0.000 C 
BRANCH  27  28
ATOM     28  N   UNL     1      -2.254  15.920  23.184  0.00  0.00    +0.000 NA
ATOM     29  C   UNL     1      -2.820  16.943  24.096  0.00  0.00    +0.000 C 
ATOM     30  C   UNL     1      -3.906  16.351  25.003  0.00  0.00    +0.000 C 
ATOM     31  O   UNL     1      -5.017  15.931  24.204  0.00  0.00    +0.000 OA
ATOM     32  C   UNL     1      -4.624  14.966  23.215  0.00  0.00    +0.000 C 
ATOM     33  C   UNL     1      -3.391  15.396  22.389  0.00  0.00    +0.000 C 
ENDBRANCH  27  28
ENDBRANCH  26  27
ENDBRANCH  24  26
ENDBRANCH  10  24
TORSDOF 6
ENDMDL
MODEL 7
REMARK VINA RESULT:      -7.8      1.518      1.727
REMARK  Name = 
REMARK  7 active torsions:
REMARK  status: ('A' for Active; 'I' for Inactive)
REMARK    1  A    between atoms: C_1  and  N_2
REMARK    2  A    between atoms: C_5  and  N_6
REMARK    3  A    between atoms: C_7  and  C_9
REMARK    4  A    between atoms: C_20  and  N_21
REMARK    5  A    between atoms: N_21  and  C_22
REMARK    6  A    between atoms: C_22  and  C_23
REMARK    7  A    between atoms: C_23  and  N_24
REMARK                            x       y       z     vdW  Elec       q    Type
REMARK                         _______ _______ _______ _____ _____    ______ ____
ROOT
ATOM      1  C   UNL     1       0.334  12.428  18.682  0.00  0.00    +0.000 C 
ATOM      2  N   UNL     1       0.560  11.116  19.267  0.00  0.00    +0.000 N 
ATOM      3  C   UNL     1       1.413  10.223  18.622  0.00  0.00    +0.000 A 
ATOM      4  O   UNL     1       2.025  10.482  17.583  0.00  0.00    +0.000 OA
ATOM      5  C   UNL     1       1.588   8.844  19.227  0.00  0.00    +0.000 A 
ATOM      6  C   UNL     1       1.051   8.591  20.430  0.00  0.00    +0.000 A 
ATOM      7  C   UNL     1       0.334   9.627  21.171  0.00  0.00    +0.000 A 
ATOM      8  C   UNL     1      -0.068   9.445  22.487  0.00  0.00    +0.000 A 
ATOM      9  N   UNL     1      -0.659  10.411  23.238  0.00  0.00    +0.000 NA
ATOM     10  C   UNL     1      -0.921  11.596  22.653  0.00  0.00    +0.000 A 
ATOM     11  C   UNL     1      -0.664  11.803  21.303  0.00  0.00    +0.000 A 
ATOM     12  C   UNL     1       0.044  10.845  20.574  0.00  0.00    +0.000 A 
ENDROOT
BRANCH   5  13
ATOM     13  N   UNL     1       2.336   7.937  18.472  0.00  0.00    +0.000 N 
ATOM     14  C   UNL     1       2.773   6.691  18.872  0.00  0.00    +0.000 C 
ATOM     15  O   UNL     1       2.506   6.158  19.954  0.00  0.00    +0.000 OA
ATOM     16  H   UNL     1       2.532   8.266  17.533  0.00  0.00    +0.000 HD
BRANCH  14  17
ATOM     17  C   UNL     1       3.641   5.906  17.937  0.00  0.00    +0.000 A 
ATOM     18  C   UNL     1       3.541   4.520  17.778  0.00  0.00    +0.000 A 
ATOM     19  C   UNL     1       4.320   3.872  16.810  0.00  0.00    +0.000 A 
ATOM     20  C   UNL     1       5.194   4.603  16.001  0.00  0.00    +0.000 A 
ATOM     21 CL   UNL     1       6.119   3.802  14.793  0.00  0.00    +0.000 Cl
ATOM     22  C   UNL     1       5.306   5.980  16.157  0.00  0.00    +0.000 A 
ATOM     23  C   UNL     1       4.532   6.628  17.121  0.00  0.00    +0.000 A 
ENDBRANCH  14  17
ENDBRANCH   5  13
BRANCH  10  24
ATOM     24  N   UNL     1      -1.479  12.674  23.391  0.00  0.00    +0.000 N 
ATOM     25  H   UNL     1      -1.089  12.660  24.329  0.00  0.00    +0.000 HD
BRANCH  24  26
ATOM     26  C   UNL     1      -2.944  12.581  23.455  0.00  0.00    +0.000 C 
BRANCH  26  27
ATOM     27  C   UNL     1      -3.568  13.813  24.170  0.00  0.00    +0.000 C 
BRANCH  27  28
ATOM     28  N   UNL     1      -4.297  14.726  23.256  0.00  0.00    +0.000 NA
ATOM     29  C   UNL     1      -3.392  15.654  22.537  0.00  0.00    +0.000 C 
ATOM     30  C   UNL     1      -2.698  16.625  23.499  0.00  0.00    +0.000 C 
ATOM     31  O   UNL     1      -3.677  17.478  24.104  0.00  0.00    +0.000 OA
ATOM     32  C   UNL     1      -4.678  16.723  24.805  0.00  0.00    +0.000 C 
ATOM     33  C   UNL     1      -5.285  15.575  23.967  0.00  0.00    +0.000 C 
ENDBRANCH  27  28
ENDBRANCH  26  27
ENDBRANCH  24  26
ENDBRANCH  10  24
TORSDOF 6
ENDMDL
MODEL 8
REMARK VINA RESULT:      -7.8      4.153     10.943
REMARK  Name = 
REMARK  7 active torsions:
REMARK  status: ('A' for Active; 'I' for Inactive)
REMARK    1  A    between atoms: C_1  and  N_2
REMARK    2  A    between atoms: C_5  and  N_6
REMARK    3  A    between atoms: C_7  and  C_9
REMARK    4  A    between atoms: C_20  and  N_21
REMARK    5  A    between atoms: N_21  and  C_22
REMARK    6  A    between atoms: C_22  and  C_23
REMARK    7  A    between atoms: C_23  and  N_24
REMARK                            x       y       z     vdW  Elec       q    Type
REMARK                         _______ _______ _______ _____ _____    ______ ____
ROOT
ATOM      1  C   UNL     1       3.385   8.045  17.479  0.00  0.00    +0.000 C 
ATOM      2  N   UNL     1       2.581   7.881  18.680  0.00  0.00    +0.000 N 
ATOM      3  C   UNL     1       1.628   8.846  18.996  0.00  0.00    +0.000 A 
ATOM      4  O   UNL     1       1.391   9.836  18.300  0.00  0.00    +0.000 OA
ATOM      5  C   UNL     1       0.841   8.675  20.281  0.00  0.00    +0.000 A 
ATOM      6  C   UNL     1       0.976   7.535  20.977  0.00  0.00    +0.000 A 
ATOM      7  C   UNL     1       1.836   6.455  20.498  0.00  0.00    +0.000 A 
ATOM      8  C   UNL     1       1.849   5.204  21.100  0.00  0.00    +0.000 A 
ATOM      9  N   UNL     1       2.568   4.149  20.636  0.00  0.00    +0.000 NA
ATOM     10  C   UNL     1       3.358   4.344  19.563  0.00  0.00    +0.000 A 
ATOM     11  C   UNL     1       3.494   5.603  18.990  0.00  0.00    +0.000 A 
ATOM     12  C   UNL     1       2.667   6.650  19.404  0.00  0.00    +0.000 A 
ENDROOT
BRANCH   5  13
ATOM     13  N   UNL     1       0.002   9.736  20.628  0.00  0.00    +0.000 N 
ATOM     14  C   UNL     1      -0.050  10.386  21.845  0.00  0.00    +0.000 C 
ATOM     15  O   UNL     1       0.697  10.161  22.802  0.00  0.00    +0.000 OA
ATOM     16  H   UNL     1      -0.595  10.039  19.866  0.00  0.00    +0.000 HD
BRANCH  14  17
ATOM     17  C   UNL     1      -1.087  11.448  22.042  0.00  0.00    +0.000 A 
ATOM     18  C   UNL     1      -1.410  12.397  21.067  0.00  0.00    +0.000 A 
ATOM     19  C   UNL     1      -2.462  13.295  21.290  0.00  0.00    +0.000 A 
ATOM     20  C   UNL     1      -3.193  13.246  22.480  0.00  0.00    +0.000 A 
ATOM     21 CL   UNL     1      -4.504  14.331  22.727  0.00  0.00    +0.000 Cl
ATOM     22  C   UNL     1      -2.875  12.311  23.459  0.00  0.00    +0.000 A 
ATOM     23  C   UNL     1      -1.827  11.416  23.240  0.00  0.00    +0.000 A 
ENDBRANCH  14  17
ENDBRANCH   5  13
BRANCH  10  24
ATOM     24  N   UNL     1       4.090   3.274  18.982  0.00  0.00    +0.000 N 
ATOM     25  H   UNL     1       5.082   3.481  19.059  0.00  0.00    +0.000 HD
BRANCH  24  26
ATOM     26  C   UNL     1       3.727   3.076  17.572  0.00  0.00    +0.000 C 
BRANCH  26  27
ATOM     27  C   UNL     1       4.541   4.010  16.632  0.00  0.00    +0.000 C 
BRANCH  27  28
ATOM     28  N   UNL     1       5.941   3.568  16.420  0.00  0.00    +0.000 NA
ATOM     29  C   UNL     1       6.916   4.377  17.190  0.00  0.00    +0.000 C 
ATOM     30  C   UNL     1       6.946   5.833  16.709  0.00  0.00    +0.000 C 
ATOM     31  O   UNL     1       7.428   5.880  15.361  0.00  0.00    +0.000 OA
ATOM     32  C   UNL     1       6.616   5.088  14.480  0.00  0.00    +0.000 C 
ATOM     33  C   UNL     1       6.358   3.655  14.999  0.00  0.00    +0.000 C 
ENDBRANCH  27  28
ENDBRANCH  26  27
ENDBRANCH  24  26
ENDBRANCH  10  24
TORSDOF 6
ENDMDL
MODEL 9
REMARK VINA RESULT:      -7.8      4.257     11.132
REMARK  Name = 
REMARK  7 active torsions:
REMARK  status: ('A' for Active; 'I' for Inactive)
REMARK    1  A    between atoms: C_1  and  N_2
REMARK    2  A    between atoms: C_5  and  N_6
REMARK    3  A    between atoms: C_7  and  C_9
REMARK    4  A    between atoms: C_20  and  N_21
REMARK    5  A    between atoms: N_21  and  C_22
REMARK    6  A    between atoms: C_22  and  C_23
REMARK    7  A    between atoms: C_23  and  N_24
REMARK                            x       y       z     vdW  Elec       q    Type
REMARK                         _______ _______ _______ _____ _____    ______ ____
ROOT
ATOM      1  C   UNL     1       2.324   9.185  17.603  0.00  0.00    +0.000 C 
ATOM      2  N   UNL     1       1.737   8.975  18.916  0.00  0.00    +0.000 N 
ATOM      3  C   UNL     1       0.902   9.953  19.451  0.00  0.00    +0.000 A 
ATOM      4  O   UNL     1       0.596  10.995  18.865  0.00  0.00    +0.000 OA
ATOM      5  C   UNL     1       0.345   9.731  20.844  0.00  0.00    +0.000 A 
ATOM      6  C   UNL     1       0.543   8.544  21.439  0.00  0.00    +0.000 A 
ATOM      7  C   UNL     1       1.252   7.465  20.754  0.00  0.00    +0.000 A 
ATOM      8  C   UNL     1       1.308   6.178  21.272  0.00  0.00    +0.000 A 
ATOM      9  N   UNL     1       1.882   5.128  20.628  0.00  0.00    +0.000 NA
ATOM     10  C   UNL     1       2.481   5.361  19.445  0.00  0.00    +0.000 A 
ATOM     11  C   UNL     1       2.576   6.649  18.929  0.00  0.00    +0.000 A 
ATOM     12  C   UNL     1       1.886   7.697  19.543  0.00  0.00    +0.000 A 
ENDROOT
BRANCH   5  13
ATOM     13  N   UNL     1      -0.367  10.799  21.394  0.00  0.00    +0.000 N 
ATOM     14  C   UNL     1      -0.751  10.945  22.711  0.00  0.00    +0.000 C 
ATOM     15  O   UNL     1      -0.459  10.169  23.626  0.00  0.00    +0.000 OA
ATOM     16  H   UNL     1      -0.579  11.527  20.720  0.00  0.00    +0.000 HD
BRANCH  14  17
ATOM     17  C   UNL     1      -1.588  12.130  23.083  0.00  0.00    +0.000 A 
ATOM     18  C   UNL     1      -2.936  12.036  23.444  0.00  0.00    +0.000 A 
ATOM     19  C   UNL     1      -3.624  13.178  23.876  0.00  0.00    +0.000 A 
ATOM     20  C   UNL     1      -2.970  14.410  23.949  0.00  0.00    +0.000 A 
ATOM     21 CL   UNL     1      -3.815  15.798  24.512  0.00  0.00    +0.000 Cl
ATOM     22  C   UNL     1      -1.633  14.517  23.584  0.00  0.00    +0.000 A 
ATOM     23  C   UNL     1      -0.945  13.381  23.153  0.00  0.00    +0.000 A 
ENDBRANCH  14  17
ENDBRANCH   5  13
BRANCH  10  24
ATOM     24  N   UNL     1       3.046   4.304  18.684  0.00  0.00    +0.000 N 
ATOM     25  H   UNL     1       2.980   3.445  19.224  0.00  0.00    +0.000 HD
BRANCH  24  26
ATOM     26  C   UNL     1       4.449   4.575  18.343  0.00  0.00    +0.000 C 
BRANCH  26  27
ATOM     27  C   UNL     1       4.720   4.387  16.824  0.00  0.00    +0.000 C 
BRANCH  27  28
ATOM     28  N   UNL     1       6.028   3.754  16.526  0.00  0.00    +0.000 NA
ATOM     29  C   UNL     1       7.167   4.497  17.114  0.00  0.00    +0.000 C 
ATOM     30  C   UNL     1       7.317   5.889  16.489  0.00  0.00    +0.000 C 
ATOM     31  O   UNL     1       7.656   5.755  15.104  0.00  0.00    +0.000 OA
ATOM     32  C   UNL     1       6.666   4.999  14.387  0.00  0.00    +0.000 C 
ATOM     33  C   UNL     1       6.298   3.662  15.070  0.00  0.00    +0.000 C 
ENDBRANCH  27  28
ENDBRANCH  26  27
ENDBRANCH  24  26
ENDBRANCH  10  24
TORSDOF 6
ENDMDL
