MODEL 1
REMARK VINA RESULT:      -7.3      0.000      0.000
REMARK  Name = 
REMARK  8 active torsions:
REMARK  status: ('A' for Active; 'I' for Inactive)
REMARK    1  A    between atoms: C_1  and  O_2
REMARK    2  A    between atoms: O_2  and  C_3
REMARK    3  A    between atoms: C_5  and  N_6
REMARK    4  A    between atoms: N_15  and  C_16
REMARK    5  A    between atoms: C_16  and  C_17
REMARK    6  A    between atoms: C_17  and  C_18
REMARK    7  A    between atoms: N_20  and  C_21
REMARK    8  A    between atoms: C_21  and  C_22
REMARK                            x       y       z     vdW  Elec       q    Type
REMARK                         _______ _______ _______ _____ _____    ______ ____
ROOT
ATOM      1  N   UNL     1       0.424  11.631  19.062  0.00  0.00    +0.000 N 
ATOM      2  C   UNL     1       0.170  10.671  17.956  0.00  0.00    +0.000 C 
ATOM      3  C   UNL     1       1.145   9.485  17.963  0.00  0.00    +0.000 C 
ATOM      4  C   UNL     1       1.244   8.921  19.334  0.00  0.00    +0.000 A 
ATOM      5  N   UNL     1       1.635   7.630  19.539  0.00  0.00    +0.000 NA
ATOM      6  C   UNL     1       1.658   7.390  20.827  0.00  0.00    +0.000 A 
ATOM      7  N   UNL     1       1.956   6.190  21.410  0.00  0.00    +0.000 N 
ATOM      8  C   UNL     1       2.111   5.021  20.719  0.00  0.00    +0.000 C 
ATOM      9  O   UNL     1       2.430   3.992  21.311  0.00  0.00    +0.000 OA
ATOM     10  N   UNL     1       1.841   5.052  19.383  0.00  0.00    +0.000 N 
ATOM     11  S   UNL     1       1.235   8.690  21.855  0.00  0.00    +0.000 S 
ATOM     12  C   UNL     1       0.944   9.648  20.464  0.00  0.00    +0.000 A 
ATOM     13  C   UNL     1       0.409  11.050  20.439  0.00  0.00    +0.000 C 
ATOM     14  H   UNL     1       2.048   6.142  22.414  0.00  0.00    +0.000 HD
ATOM     15  H   UNL     1       1.674   5.967  18.965  0.00  0.00    +0.000 HD
ENDROOT
BRANCH   1  18
ATOM     16  C   UNL     1       1.529  15.179  18.771  0.00  0.00    +0.000 A 
ATOM     17  C   UNL     1       0.757  14.039  19.060  0.00  0.00    +0.000 A 
ATOM     18  C   UNL     1       1.231  12.740  18.831  0.00  0.00    +0.000 A 
ATOM     19  C   UNL     1       2.526  12.673  18.313  0.00  0.00    +0.000 A 
ATOM     20  N   UNL     1       3.324  13.731  18.042  0.00  0.00    +0.000 NA
ATOM     21  C   UNL     1       2.813  14.958  18.282  0.00  0.00    +0.000 A 
ATOM     22 CL   UNL     1       3.993  16.169  17.972  0.00  0.00    +0.000 Cl
BRANCH  16  24
ATOM     23  C   UNL     1       1.403  17.099  20.186  0.00  0.00    +0.000 C 
ATOM     24  O   UNL     1       0.907  16.358  19.075  0.00  0.00    +0.000 OA
ENDBRANCH  16  24
ENDBRANCH   1  18
BRANCH  10  25
ATOM     25  C   UNL     1       1.865   3.893  18.517  0.00  0.00    +0.000 C 
BRANCH  25  26
ATOM     26  C   UNL     1       2.545   4.163  17.172  0.00  0.00    +0.000 C 
BRANCH  26  27
ATOM     27  C   UNL     1       3.909   4.766  17.278  0.00  0.00    +0.000 A 
ATOM     28  C   UNL     1       5.132   4.148  17.430  0.00  0.00    +0.000 A 
ATOM     29  N   UNL     1       6.040   5.165  17.522  0.00  0.00    +0.000 N 
ATOM     30  C   UNL     1       5.358   6.344  17.435  0.00  0.00    +0.000 A 
ATOM     31  N   UNL     1       4.068   6.136  17.280  0.00  0.00    +0.000 NA
BRANCH  29  32
ATOM     32  C   UNL     1       7.464   5.032  17.726  0.00  0.00    +0.000 C 
BRANCH  32  33
ATOM     33  C   UNL     1       7.907   5.583  19.063  0.00  0.00    +0.000 C 
ATOM     34  F   UNL     1       8.378   6.848  18.914  0.00  0.00    +0.000 F 
ATOM     35  F   UNL     1       6.828   5.676  19.883  0.00  0.00    +0.000 F 
ENDBRANCH  32  33
ENDBRANCH  29  32
ENDBRANCH  26  27
ENDBRANCH  25  26
ENDBRANCH  10  25
TORSDOF 7
ENDMDL
MODEL 2
REMARK VINA RESULT:      -7.2      1.084      1.230
REMARK  Name = 
REMARK  8 active torsions:
REMARK  status: ('A' for Active; 'I' for Inactive)
REMARK    1  A    between atoms: C_1  and  O_2
REMARK    2  A    between atoms: O_2  and  C_3
REMARK    3  A    between atoms: C_5  and  N_6
REMARK    4  A    between atoms: N_15  and  C_16
REMARK    5  A    between atoms: C_16  and  C_17
REMARK    6  A    between atoms: C_17  and  C_18
REMARK    7  A    between atoms: N_20  and  C_21
REMARK    8  A    between atoms: C_21  and  C_22
REMARK                            x       y       z     vdW  Elec       q    Type
REMARK                         _______ _______ _______ _____ _____    ______ ____
ROOT
ATOM      1  N   UNL     1      -0.009  11.865  19.386  0.00  0.00    +0.000 N 
ATOM      2  C   UNL     1      -0.223  11.017  18.183  0.00  0.00    +0.000 C 
ATOM      3  C   UNL     1       0.849   9.929  18.025  0.00  0.00    +0.000 C 
ATOM      4  C   UNL     1       1.047   9.224  19.318  0.00  0.00    +0.000 A 
ATOM      5  N   UNL     1       1.552   7.957  19.360  0.00  0.00    +0.000 NA
ATOM      6  C   UNL     1       1.644   7.576  20.610  0.00  0.00    +0.000 A 
ATOM      7  N   UNL     1       2.064   6.348  21.041  0.00  0.00    +0.000 N 
ATOM      8  C   UNL     1       2.291   5.283  20.215  0.00  0.00    +0.000 C 
ATOM      9  O   UNL     1       2.718   4.226  20.674  0.00  0.00    +0.000 OA
ATOM     10  N   UNL     1       1.969   5.442  18.899  0.00  0.00    +0.000 N 
ATOM     11  S   UNL     1       1.151   8.708  21.794  0.00  0.00    +0.000 S 
ATOM     12  C   UNL     1       0.728   9.789  20.533  0.00  0.00    +0.000 A 
ATOM     13  C   UNL     1       0.076  11.131  20.685  0.00  0.00    +0.000 C 
ATOM     14  H   UNL     1       2.196   6.195  22.029  0.00  0.00    +0.000 HD
ATOM     15  H   UNL     1       1.710   6.380  18.595  0.00  0.00    +0.000 HD
ENDROOT
BRANCH   1  18
ATOM     16  C   UNL     1       0.703  15.495  18.935  0.00  0.00    +0.000 A 
ATOM     17  C   UNL     1       0.019  14.282  19.128  0.00  0.00    +0.000 A 
ATOM     18  C   UNL     1       0.692  13.060  19.263  0.00  0.00    +0.000 A 
ATOM     19  C   UNL     1       2.084  13.149  19.207  0.00  0.00    +0.000 A 
ATOM     20  N   UNL     1       2.797  14.289  19.053  0.00  0.00    +0.000 NA
ATOM     21  C   UNL     1       2.094  15.435  18.927  0.00  0.00    +0.000 A 
ATOM     22 CL   UNL     1       3.158  16.782  18.836  0.00  0.00    +0.000 Cl
BRANCH  16  24
ATOM     23  C   UNL     1      -0.299  17.379  20.009  0.00  0.00    +0.000 C 
ATOM     24  O   UNL     1      -0.119  16.584  18.841  0.00  0.00    +0.000 OA
ENDBRANCH  16  24
ENDBRANCH   1  18
BRANCH  10  25
ATOM     25  C   UNL     1       2.059   4.396  17.904  0.00  0.00    +0.000 C 
BRANCH  25  26
ATOM     26  C   UNL     1       3.467   3.808  17.775  0.00  0.00    +0.000 C 
BRANCH  26  27
ATOM     27  C   UNL     1       4.560   4.828  17.732  0.00  0.00    +0.000 A 
ATOM     28  C   UNL     1       5.804   4.806  18.328  0.00  0.00    +0.000 A 
ATOM     29  N   UNL     1       6.378   6.003  18.005  0.00  0.00    +0.000 N 
ATOM     30  C   UNL     1       5.484   6.705  17.248  0.00  0.00    +0.000 A 
ATOM     31  N   UNL     1       4.378   6.018  17.060  0.00  0.00    +0.000 NA
BRANCH  29  32
ATOM     32  C   UNL     1       7.676   6.476  18.424  0.00  0.00    +0.000 C 
BRANCH  32  33
ATOM     33  C   UNL     1       7.890   7.938  18.097  0.00  0.00    +0.000 C 
ATOM     34  F   UNL     1       8.903   8.441  18.847  0.00  0.00    +0.000 F 
ATOM     35  F   UNL     1       8.289   8.047  16.802  0.00  0.00    +0.000 F 
ENDBRANCH  32  33
ENDBRANCH  29  32
ENDBRANCH  26  27
ENDBRANCH  25  26
ENDBRANCH  10  25
TORSDOF 7
ENDMDL
MODEL 3
REMARK VINA RESULT:      -7.2      1.047      1.145
REMARK  Name = 
REMARK  8 active torsions:
REMARK  status: ('A' for Active; 'I' for Inactive)
REMARK    1  A    between atoms: C_1  and  O_2
REMARK    2  A    between atoms: O_2  and  C_3
REMARK    3  A    between atoms: C_5  and  N_6
REMARK    4  A    between atoms: N_15  and  C_16
REMARK    5  A    between atoms: C_16  and  C_17
REMARK    6  A    between atoms: C_17  and  C_18
REMARK    7  A    between atoms: N_20  and  C_21
REMARK    8  A    between atoms: C_21  and  C_22
REMARK                            x       y       z     vdW  Elec       q    Type
REMARK                         _______ _______ _______ _____ _____    ______ ____
ROOT
ATOM      1  N   UNL     1       0.276  11.765  19.225  0.00  0.00    +0.000 N 
ATOM      2  C   UNL     1      -0.049  10.823  18.122  0.00  0.00    +0.000 C 
ATOM      3  C   UNL     1       0.919   9.632  18.054  0.00  0.00    +0.000 C 
ATOM      4  C   UNL     1       1.095   9.047  19.409  0.00  0.00    +0.000 A 
ATOM      5  N   UNL     1       1.489   7.751  19.571  0.00  0.00    +0.000 NA
ATOM      6  C   UNL     1       1.587   7.492  20.852  0.00  0.00    +0.000 A 
ATOM      7  N   UNL     1       1.911   6.282  21.399  0.00  0.00    +0.000 N 
ATOM      8  C   UNL     1       2.018   5.122  20.684  0.00  0.00    +0.000 C 
ATOM      9  O   UNL     1       2.366   4.084  21.240  0.00  0.00    +0.000 OA
ATOM     10  N   UNL     1       1.670   5.174  19.366  0.00  0.00    +0.000 N 
ATOM     11  S   UNL     1       1.232   8.779  21.922  0.00  0.00    +0.000 S 
ATOM     12  C   UNL     1       0.865   9.759  20.565  0.00  0.00    +0.000 A 
ATOM     13  C   UNL     1       0.338  11.163  20.592  0.00  0.00    +0.000 C 
ATOM     14  H   UNL     1       2.061   6.219  22.395  0.00  0.00    +0.000 HD
ATOM     15  H   UNL     1       1.484   6.097  18.972  0.00  0.00    +0.000 HD
ENDROOT
BRANCH   1  18
ATOM     16  C   UNL     1       1.355  15.312  18.840  0.00  0.00    +0.000 A 
ATOM     17  C   UNL     1       0.592  14.175  19.161  0.00  0.00    +0.000 A 
ATOM     18  C   UNL     1       1.075  12.874  18.963  0.00  0.00    +0.000 A 
ATOM     19  C   UNL     1       2.368  12.802  18.442  0.00  0.00    +0.000 A 
ATOM     20  N   UNL     1       3.158  13.858  18.142  0.00  0.00    +0.000 NA
ATOM     21  C   UNL     1       2.640  15.087  18.353  0.00  0.00    +0.000 A 
ATOM     22 CL   UNL     1       3.810  16.298  18.008  0.00  0.00    +0.000 Cl
BRANCH  16  24
ATOM     23  C   UNL     1       0.092  17.173  18.035  0.00  0.00    +0.000 C 
ATOM     24  O   UNL     1       0.726  16.494  19.116  0.00  0.00    +0.000 OA
ENDBRANCH  16  24
ENDBRANCH   1  18
BRANCH  10  25
ATOM     25  C   UNL     1       1.637   4.029  18.484  0.00  0.00    +0.000 C 
BRANCH  25  26
ATOM     26  C   UNL     1       2.482   4.218  17.221  0.00  0.00    +0.000 C 
BRANCH  26  27
ATOM     27  C   UNL     1       3.913   4.567  17.482  0.00  0.00    +0.000 A 
ATOM     28  C   UNL     1       4.769   5.364  16.752  0.00  0.00    +0.000 A 
ATOM     29  N   UNL     1       5.966   5.303  17.408  0.00  0.00    +0.000 N 
ATOM     30  C   UNL     1       5.809   4.481  18.487  0.00  0.00    +0.000 A 
ATOM     31  N   UNL     1       4.577   4.026  18.563  0.00  0.00    +0.000 NA
BRANCH  29  32
ATOM     32  C   UNL     1       7.197   5.945  17.014  0.00  0.00    +0.000 C 
BRANCH  32  33
ATOM     33  C   UNL     1       7.386   7.288  17.683  0.00  0.00    +0.000 C 
ATOM     34  F   UNL     1       8.349   7.998  17.041  0.00  0.00    +0.000 F 
ATOM     35  F   UNL     1       6.240   8.008  17.559  0.00  0.00    +0.000 F 
ENDBRANCH  32  33
ENDBRANCH  29  32
ENDBRANCH  26  27
ENDBRANCH  25  26
ENDBRANCH  10  25
TORSDOF 7
ENDMDL
MODEL 4
REMARK VINA RESULT:      -7.2      1.712      2.196
REMARK  Name = 
REMARK  8 active torsions:
REMARK  status: ('A' for Active; 'I' for Inactive)
REMARK    1  A    between atoms: C_1  and  O_2
REMARK    2  A    between atoms: O_2  and  C_3
REMARK    3  A    between atoms: C_5  and  N_6
REMARK    4  A    between atoms: N_15  and  C_16
REMARK    5  A    between atoms: C_16  and  C_17
REMARK    6  A    between atoms: C_17  and  C_18
REMARK    7  A    between atoms: N_20  and  C_21
REMARK    8  A    between atoms: C_21  and  C_22
REMARK                            x       y       z     vdW  Elec       q    Type
REMARK                         _______ _______ _______ _____ _____    ______ ____
ROOT
ATOM      1  N   UNL     1       1.005  11.625  19.222  0.00  0.00    +0.000 N 
ATOM      2  C   UNL     1       1.181  10.909  17.932  0.00  0.00    +0.000 C 
ATOM      3  C   UNL     1       2.147   9.720  18.038  0.00  0.00    +0.000 C 
ATOM      4  C   UNL     1       1.802   8.894  19.224  0.00  0.00    +0.000 A 
ATOM      5  N   UNL     1       2.156   7.578  19.294  0.00  0.00    +0.000 NA
ATOM      6  C   UNL     1       1.753   7.088  20.441  0.00  0.00    +0.000 A 
ATOM      7  N   UNL     1       1.888   5.790  20.845  0.00  0.00    +0.000 N 
ATOM      8  C   UNL     1       2.317   4.776  20.035  0.00  0.00    +0.000 C 
ATOM      9  O   UNL     1       2.462   3.643  20.488  0.00  0.00    +0.000 OA
ATOM     10  N   UNL     1       2.513   5.077  18.719  0.00  0.00    +0.000 N 
ATOM     11  S   UNL     1       0.951   8.170  21.496  0.00  0.00    +0.000 S 
ATOM     12  C   UNL     1       1.105   9.391  20.304  0.00  0.00    +0.000 A 
ATOM     13  C   UNL     1       0.551  10.784  20.371  0.00  0.00    +0.000 C 
ATOM     14  H   UNL     1       1.637   5.542  21.791  0.00  0.00    +0.000 HD
ATOM     15  H   UNL     1       2.458   6.061  18.456  0.00  0.00    +0.000 HD
ENDROOT
BRANCH   1  18
ATOM     16  C   UNL     1       3.522  14.343  18.809  0.00  0.00    +0.000 A 
ATOM     17  C   UNL     1       2.665  13.262  18.534  0.00  0.00    +0.000 A 
ATOM     18  C   UNL     1       1.794  12.737  19.499  0.00  0.00    +0.000 A 
ATOM     19  C   UNL     1       1.837  13.379  20.737  0.00  0.00    +0.000 A 
ATOM     20  N   UNL     1       2.618  14.439  21.051  0.00  0.00    +0.000 NA
ATOM     21  C   UNL     1       3.437  14.901  20.082  0.00  0.00    +0.000 A 
ATOM     22 CL   UNL     1       4.278  16.298  20.625  0.00  0.00    +0.000 Cl
BRANCH  16  24
ATOM     23  C   UNL     1       5.692  14.512  17.825  0.00  0.00    +0.000 C 
ATOM     24  O   UNL     1       4.286  14.727  17.742  0.00  0.00    +0.000 OA
ENDBRANCH  16  24
ENDBRANCH   1  18
BRANCH  10  25
ATOM     25  C   UNL     1       2.879   4.112  17.706  0.00  0.00    +0.000 C 
BRANCH  25  26
ATOM     26  C   UNL     1       4.079   4.552  16.862  0.00  0.00    +0.000 C 
BRANCH  26  27
ATOM     27  C   UNL     1       5.211   5.129  17.652  0.00  0.00    +0.000 A 
ATOM     28  C   UNL     1       6.147   6.072  17.282  0.00  0.00    +0.000 A 
ATOM     29  N   UNL     1       6.976   6.197  18.361  0.00  0.00    +0.000 N 
ATOM     30  C   UNL     1       6.536   5.340  19.328  0.00  0.00    +0.000 A 
ATOM     31  N   UNL     1       5.466   4.685  18.932  0.00  0.00    +0.000 NA
BRANCH  29  32
ATOM     32  C   UNL     1       8.142   7.043  18.456  0.00  0.00    +0.000 C 
BRANCH  32  33
ATOM     33  C   UNL     1       7.980   8.336  17.688  0.00  0.00    +0.000 C 
ATOM     34  F   UNL     1       6.687   8.746  17.733  0.00  0.00    +0.000 F 
ATOM     35  F   UNL     1       8.706   9.308  18.300  0.00  0.00    +0.000 F 
ENDBRANCH  32  33
ENDBRANCH  29  32
ENDBRANCH  26  27
ENDBRANCH  25  26
ENDBRANCH  10  25
TORSDOF 7
ENDMDL
MODEL 5
REMARK VINA RESULT:      -7.1      1.245      1.548
REMARK  Name = 
REMARK  8 active torsions:
REMARK  status: ('A' for Active; 'I' for Inactive)
REMARK    1  A    between atoms: C_1  and  O_2
REMARK    2  A    between atoms: O_2  and  C_3
REMARK    3  A    between atoms: C_5  and  N_6
REMARK    4  A    between atoms: N_15  and  C_16
REMARK    5  A    between atoms: C_16  and  C_17
REMARK    6  A    between atoms: C_17  and  C_18
REMARK    7  A    between atoms: N_20  and  C_21
REMARK    8  A    between atoms: C_21  and  C_22
REMARK                            x       y       z     vdW  Elec       q    Type
REMARK                         _______ _______ _______ _____ _____    ______ ____
ROOT
ATOM      1  N   UNL     1       0.674  11.351  18.976  0.00  0.00    +0.000 N 
ATOM      2  C   UNL     1       0.793  10.526  17.745  0.00  0.00    +0.000 C 
ATOM      3  C   UNL     1       1.852   9.421  17.870  0.00  0.00    +0.000 C 
ATOM      4  C   UNL     1       1.671   8.693  19.153  0.00  0.00    +0.000 A 
ATOM      5  N   UNL     1       2.128   7.416  19.309  0.00  0.00    +0.000 NA
ATOM      6  C   UNL     1       1.863   7.014  20.528  0.00  0.00    +0.000 A 
ATOM      7  N   UNL     1       2.129   5.773  21.034  0.00  0.00    +0.000 N 
ATOM      8  C   UNL     1       2.563   4.716  20.283  0.00  0.00    +0.000 C 
ATOM      9  O   UNL     1       2.831   3.645  20.822  0.00  0.00    +0.000 OA
ATOM     10  N   UNL     1       2.623   4.901  18.933  0.00  0.00    +0.000 N 
ATOM     11  S   UNL     1       1.075   8.137  21.550  0.00  0.00    +0.000 S 
ATOM     12  C   UNL     1       1.034   9.245  20.242  0.00  0.00    +0.000 A 
ATOM     13  C   UNL     1       0.384  10.597  20.233  0.00  0.00    +0.000 C 
ATOM     14  H   UNL     1       1.979   5.602  22.017  0.00  0.00    +0.000 HD
ATOM     15  H   UNL     1       2.472   5.848  18.588  0.00  0.00    +0.000 HD
ENDROOT
BRANCH   1  18
ATOM     16  C   UNL     1       1.658  14.796  20.003  0.00  0.00    +0.000 A 
ATOM     17  C   UNL     1       0.982  13.565  19.932  0.00  0.00    +0.000 A 
ATOM     18  C   UNL     1       1.398  12.534  19.077  0.00  0.00    +0.000 A 
ATOM     19  C   UNL     1       2.536  12.824  18.323  0.00  0.00    +0.000 A 
ATOM     20  N   UNL     1       3.243  13.976  18.370  0.00  0.00    +0.000 NA
ATOM     21  C   UNL     1       2.795  14.933  19.211  0.00  0.00    +0.000 A 
ATOM     22 CL   UNL     1       3.863  16.280  19.209  0.00  0.00    +0.000 Cl
BRANCH  16  24
ATOM     23  C   UNL     1       0.735  15.159  22.176  0.00  0.00    +0.000 C 
ATOM     24  O   UNL     1       1.117  15.672  20.903  0.00  0.00    +0.000 OA
ENDBRANCH  16  24
ENDBRANCH   1  18
BRANCH  10  25
ATOM     25  C   UNL     1       2.972   3.869  17.982  0.00  0.00    +0.000 C 
BRANCH  25  26
ATOM     26  C   UNL     1       3.853   4.379  16.838  0.00  0.00    +0.000 C 
BRANCH  26  27
ATOM     27  C   UNL     1       5.251   4.723  17.240  0.00  0.00    +0.000 A 
ATOM     28  C   UNL     1       5.706   5.751  18.039  0.00  0.00    +0.000 A 
ATOM     29  N   UNL     1       7.067   5.632  18.037  0.00  0.00    +0.000 N 
ATOM     30  C   UNL     1       7.393   4.566  17.248  0.00  0.00    +0.000 A 
ATOM     31  N   UNL     1       6.316   3.992  16.757  0.00  0.00    +0.000 NA
BRANCH  29  32
ATOM     32  C   UNL     1       8.008   6.501  18.704  0.00  0.00    +0.000 C 
BRANCH  32  33
ATOM     33  C   UNL     1       7.904   7.934  18.231  0.00  0.00    +0.000 C 
ATOM     34  F   UNL     1       8.876   8.687  18.807  0.00  0.00    +0.000 F 
ATOM     35  F   UNL     1       8.137   7.975  16.892  0.00  0.00    +0.000 F 
ENDBRANCH  32  33
ENDBRANCH  29  32
ENDBRANCH  26  27
ENDBRANCH  25  26
ENDBRANCH  10  25
TORSDOF 7
ENDMDL
MODEL 6
REMARK VINA RESULT:      -7.0      1.087      1.235
REMARK  Name = 
REMARK  8 active torsions:
REMARK  status: ('A' for Active; 'I' for Inactive)
REMARK    1  A    between atoms: C_1  and  O_2
REMARK    2  A    between atoms: O_2  and  C_3
REMARK    3  A    between atoms: C_5  and  N_6
REMARK    4  A    between atoms: N_15  and  C_16
REMARK    5  A    between atoms: C_16  and  C_17
REMARK    6  A    between atoms: C_17  and  C_18
REMARK    7  A    between atoms: N_20  and  C_21
REMARK    8  A    between atoms: C_21  and  C_22
REMARK                            x       y       z     vdW  Elec       q    Type
REMARK                         _______ _______ _______ _____ _____    ______ ____
ROOT
ATOM      1  N   UNL     1       0.379  11.957  19.473  0.00  0.00    +0.000 N 
ATOM      2  C   UNL     1       0.118  11.122  18.270  0.00  0.00    +0.000 C 
ATOM      3  C   UNL     1       1.095   9.944  18.140  0.00  0.00    +0.000 C 
ATOM      4  C   UNL     1       1.204   9.235  19.441  0.00  0.00    +0.000 A 
ATOM      5  N   UNL     1       1.598   7.929  19.501  0.00  0.00    +0.000 NA
ATOM      6  C   UNL     1       1.631   7.550  20.755  0.00  0.00    +0.000 A 
ATOM      7  N   UNL     1       1.935   6.295  21.201  0.00  0.00    +0.000 N 
ATOM      8  C   UNL     1       2.086   5.208  20.386  0.00  0.00    +0.000 C 
ATOM      9  O   UNL     1       2.411   4.122  20.860  0.00  0.00    +0.000 OA
ATOM     10  N   UNL     1       1.805   5.384  19.063  0.00  0.00    +0.000 N 
ATOM     11  S   UNL     1       1.214   8.730  21.922  0.00  0.00    +0.000 S 
ATOM     12  C   UNL     1       0.911   9.833  20.646  0.00  0.00    +0.000 A 
ATOM     13  C   UNL     1       0.375  11.228  20.777  0.00  0.00    +0.000 C 
ATOM     14  H   UNL     1       2.033   6.138  22.193  0.00  0.00    +0.000 HD
ATOM     15  H   UNL     1       1.635   6.339  18.749  0.00  0.00    +0.000 HD
ENDROOT
BRANCH   1  18
ATOM     16  C   UNL     1       1.797  15.345  20.106  0.00  0.00    +0.000 A 
ATOM     17  C   UNL     1       1.043  14.165  20.242  0.00  0.00    +0.000 A 
ATOM     18  C   UNL     1       1.183  13.086  19.358  0.00  0.00    +0.000 A 
ATOM     19  C   UNL     1       2.135  13.272  18.353  0.00  0.00    +0.000 A 
ATOM     20  N   UNL     1       2.908  14.370  18.191  0.00  0.00    +0.000 NA
ATOM     21  C   UNL     1       2.728  15.377  19.072  0.00  0.00    +0.000 A 
ATOM     22 CL   UNL     1       3.853  16.642  18.772  0.00  0.00    +0.000 Cl
BRANCH  16  24
ATOM     23  C   UNL     1       2.134  16.095  22.349  0.00  0.00    +0.000 C 
ATOM     24  O   UNL     1       1.536  16.280  21.069  0.00  0.00    +0.000 OA
ENDBRANCH  16  24
ENDBRANCH   1  18
BRANCH  10  25
ATOM     25  C   UNL     1       1.825   4.327  18.076  0.00  0.00    +0.000 C 
BRANCH  25  26
ATOM     26  C   UNL     1       2.954   3.316  18.301  0.00  0.00    +0.000 C 
BRANCH  26  27
ATOM     27  C   UNL     1       4.307   3.799  17.886  0.00  0.00    +0.000 A 
ATOM     28  C   UNL     1       5.353   4.251  18.663  0.00  0.00    +0.000 A 
ATOM     29  N   UNL     1       6.329   4.610  17.778  0.00  0.00    +0.000 N 
ATOM     30  C   UNL     1       5.856   4.382  16.518  0.00  0.00    +0.000 A 
ATOM     31  N   UNL     1       4.639   3.884  16.550  0.00  0.00    +0.000 NA
BRANCH  29  32
ATOM     32  C   UNL     1       7.616   5.180  18.100  0.00  0.00    +0.000 C 
BRANCH  32  33
ATOM     33  C   UNL     1       7.574   6.691  18.178  0.00  0.00    +0.000 C 
ATOM     34  F   UNL     1       8.633   7.150  18.892  0.00  0.00    +0.000 F 
ATOM     35  F   UNL     1       7.713   7.201  16.926  0.00  0.00    +0.000 F 
ENDBRANCH  32  33
ENDBRANCH  29  32
ENDBRANCH  26  27
ENDBRANCH  25  26
ENDBRANCH  10  25
TORSDOF 7
ENDMDL
MODEL 7
REMARK VINA RESULT:      -7.0      1.365      1.750
REMARK  Name = 
REMARK  8 active torsions:
REMARK  status: ('A' for Active; 'I' for Inactive)
REMARK    1  A    between atoms: C_1  and  O_2
REMARK    2  A    between atoms: O_2  and  C_3
REMARK    3  A    between atoms: C_5  and  N_6
REMARK    4  A    between atoms: N_15  and  C_16
REMARK    5  A    between atoms: C_16  and  C_17
REMARK    6  A    between atoms: C_17  and  C_18
REMARK    7  A    between atoms: N_20  and  C_21
REMARK    8  A    between atoms: C_21  and  C_22
REMARK                            x       y       z     vdW  Elec       q    Type
REMARK                         _______ _______ _______ _____ _____    ______ ____
ROOT
ATOM      1  N   UNL     1      -0.058  11.895  19.235  0.00  0.00    +0.000 N 
ATOM      2  C   UNL     1      -0.365  10.915  18.159  0.00  0.00    +0.000 C 
ATOM      3  C   UNL     1       0.660   9.774  18.084  0.00  0.00    +0.000 C 
ATOM      4  C   UNL     1       0.906   9.227  19.444  0.00  0.00    +0.000 A 
ATOM      5  N   UNL     1       1.371   7.956  19.619  0.00  0.00    +0.000 NA
ATOM      6  C   UNL     1       1.519   7.728  20.900  0.00  0.00    +0.000 A 
ATOM      7  N   UNL     1       1.922   6.548  21.460  0.00  0.00    +0.000 N 
ATOM      8  C   UNL     1       2.068   5.381  20.763  0.00  0.00    +0.000 C 
ATOM      9  O   UNL     1       2.485   4.373  21.329  0.00  0.00    +0.000 OA
ATOM     10  N   UNL     1       1.679   5.389  19.456  0.00  0.00    +0.000 N 
ATOM     11  S   UNL     1       1.129   9.016  21.957  0.00  0.00    +0.000 S 
ATOM     12  C   UNL     1       0.673   9.949  20.593  0.00  0.00    +0.000 A 
ATOM     13  C   UNL     1       0.075  11.325  20.609  0.00  0.00    +0.000 C 
ATOM     14  H   UNL     1       2.103   6.512  22.452  0.00  0.00    +0.000 HD
ATOM     15  H   UNL     1       1.435   6.292  19.050  0.00  0.00    +0.000 HD
ENDROOT
BRANCH   1  18
ATOM     16  C   UNL     1       2.807  14.096  18.319  0.00  0.00    +0.000 A 
ATOM     17  C   UNL     1       2.027  12.952  18.569  0.00  0.00    +0.000 A 
ATOM     18  C   UNL     1       0.674  13.037  18.928  0.00  0.00    +0.000 A 
ATOM     19  C   UNL     1       0.168  14.336  19.000  0.00  0.00    +0.000 A 
ATOM     20  N   UNL     1       0.861  15.469  18.743  0.00  0.00    +0.000 NA
ATOM     21  C   UNL     1       2.160  15.326  18.403  0.00  0.00    +0.000 A 
ATOM     22 CL   UNL     1       2.851  16.853  18.023  0.00  0.00    +0.000 Cl
BRANCH  16  24
ATOM     23  C   UNL     1       5.122  14.656  18.492  0.00  0.00    +0.000 C 
ATOM     24  O   UNL     1       4.098  13.816  17.967  0.00  0.00    +0.000 OA
ENDBRANCH  16  24
ENDBRANCH   1  18
BRANCH  10  25
ATOM     25  C   UNL     1       1.680   4.225  18.596  0.00  0.00    +0.000 C 
BRANCH  25  26
ATOM     26  C   UNL     1       2.475   4.434  17.304  0.00  0.00    +0.000 C 
BRANCH  26  27
ATOM     27  C   UNL     1       3.929   4.716  17.511  0.00  0.00    +0.000 A 
ATOM     28  C   UNL     1       4.823   5.362  16.684  0.00  0.00    +0.000 A 
ATOM     29  N   UNL     1       6.023   5.301  17.334  0.00  0.00    +0.000 N 
ATOM     30  C   UNL     1       5.830   4.627  18.505  0.00  0.00    +0.000 A 
ATOM     31  N   UNL     1       4.572   4.266  18.644  0.00  0.00    +0.000 NA
BRANCH  29  32
ATOM     32  C   UNL     1       7.288   5.809  16.857  0.00  0.00    +0.000 C 
BRANCH  32  33
ATOM     33  C   UNL     1       7.610   7.174  17.423  0.00  0.00    +0.000 C 
ATOM     34  F   UNL     1       6.471   7.898  17.572  0.00  0.00    +0.000 F 
ATOM     35  F   UNL     1       8.129   7.025  18.670  0.00  0.00    +0.000 F 
ENDBRANCH  32  33
ENDBRANCH  29  32
ENDBRANCH  26  27
ENDBRANCH  25  26
ENDBRANCH  10  25
TORSDOF 7
ENDMDL
MODEL 8
REMARK VINA RESULT:      -7.0      1.540      1.686
REMARK  Name = 
REMARK  8 active torsions:
REMARK  status: ('A' for Active; 'I' for Inactive)
REMARK    1  A    between atoms: C_1  and  O_2
REMARK    2  A    between atoms: O_2  and  C_3
REMARK    3  A    between atoms: C_5  and  N_6
REMARK    4  A    between atoms: N_15  and  C_16
REMARK    5  A    between atoms: C_16  and  C_17
REMARK    6  A    between atoms: C_17  and  C_18
REMARK    7  A    between atoms: N_20  and  C_21
REMARK    8  A    between atoms: C_21  and  C_22
REMARK                            x       y       z     vdW  Elec       q    Type
REMARK                         _______ _______ _______ _____ _____    ______ ____
ROOT
ATOM      1  N   UNL     1       0.979  11.805  19.220  0.00  0.00    +0.000 N 
ATOM      2  C   UNL     1       0.841  10.943  18.015  0.00  0.00    +0.000 C 
ATOM      3  C   UNL     1       1.697   9.670  18.094  0.00  0.00    +0.000 C 
ATOM      4  C   UNL     1       1.506   9.016  19.415  0.00  0.00    +0.000 A 
ATOM      5  N   UNL     1       1.744   7.683  19.582  0.00  0.00    +0.000 NA
ATOM      6  C   UNL     1       1.521   7.363  20.833  0.00  0.00    +0.000 A 
ATOM      7  N   UNL     1       1.610   6.106  21.363  0.00  0.00    +0.000 N 
ATOM      8  C   UNL     1       1.784   4.972  20.620  0.00  0.00    +0.000 C 
ATOM      9  O   UNL     1       1.906   3.883  21.175  0.00  0.00    +0.000 OA
ATOM     10  N   UNL     1       1.755   5.111  19.263  0.00  0.00    +0.000 N 
ATOM     11  S   UNL     1       1.036   8.632  21.873  0.00  0.00    +0.000 S 
ATOM     12  C   UNL     1       1.075   9.698  20.531  0.00  0.00    +0.000 A 
ATOM     13  C   UNL     1       0.674  11.143  20.524  0.00  0.00    +0.000 C 
ATOM     14  H   UNL     1       1.520   5.988  22.361  0.00  0.00    +0.000 HD
ATOM     15  H   UNL     1       1.742   6.063  18.895  0.00  0.00    +0.000 HD
ENDROOT
BRANCH   1  18
ATOM     16  C   UNL     1       3.256  14.493  20.434  0.00  0.00    +0.000 A 
ATOM     17  C   UNL     1       2.371  13.400  20.413  0.00  0.00    +0.000 A 
ATOM     18  C   UNL     1       1.905  12.842  19.214  0.00  0.00    +0.000 A 
ATOM     19  C   UNL     1       2.400  13.445  18.057  0.00  0.00    +0.000 A 
ATOM     20  N   UNL     1       3.273  14.478  18.015  0.00  0.00    +0.000 NA
ATOM     21  C   UNL     1       3.687  14.975  19.201  0.00  0.00    +0.000 A 
ATOM     22 CL   UNL     1       4.857  16.210  18.957  0.00  0.00    +0.000 Cl
BRANCH  16  24
ATOM     23  C   UNL     1       4.838  14.391  22.221  0.00  0.00    +0.000 C 
ATOM     24  O   UNL     1       3.613  14.890  21.694  0.00  0.00    +0.000 OA
ENDBRANCH  16  24
ENDBRANCH   1  18
BRANCH  10  25
ATOM     25  C   UNL     1       1.832   4.012  18.327  0.00  0.00    +0.000 C 
BRANCH  25  26
ATOM     26  C   UNL     1       2.851   4.246  17.208  0.00  0.00    +0.000 C 
BRANCH  26  27
ATOM     27  C   UNL     1       4.203   4.676  17.683  0.00  0.00    +0.000 A 
ATOM     28  C   UNL     1       5.243   5.239  16.974  0.00  0.00    +0.000 A 
ATOM     29  N   UNL     1       6.256   5.388  17.879  0.00  0.00    +0.000 N 
ATOM     30  C   UNL     1       5.815   4.912  19.080  0.00  0.00    +0.000 A 
ATOM     31  N   UNL     1       4.575   4.481  18.996  0.00  0.00    +0.000 NA
BRANCH  29  32
ATOM     32  C   UNL     1       7.577   5.905  17.614  0.00  0.00    +0.000 C 
BRANCH  32  33
ATOM     33  C   UNL     1       7.591   7.413  17.490  0.00  0.00    +0.000 C 
ATOM     34  F   UNL     1       6.332   7.903  17.625  0.00  0.00    +0.000 F 
ATOM     35  F   UNL     1       8.312   7.935  18.516  0.00  0.00    +0.000 F 
ENDBRANCH  32  33
ENDBRANCH  29  32
ENDBRANCH  26  27
ENDBRANCH  25  26
ENDBRANCH  10  25
TORSDOF 7
ENDMDL
MODEL 9
REMARK VINA RESULT:      -7.0      1.810      2.136
REMARK  Name = 
REMARK  8 active torsions:
REMARK  status: ('A' for Active; 'I' for Inactive)
REMARK    1  A    between atoms: C_1  and  O_2
REMARK    2  A    between atoms: O_2  and  C_3
REMARK    3  A    between atoms: C_5  and  N_6
REMARK    4  A    between atoms: N_15  and  C_16
REMARK    5  A    between atoms: C_16  and  C_17
REMARK    6  A    between atoms: C_17  and  C_18
REMARK    7  A    between atoms: N_20  and  C_21
REMARK    8  A    between atoms: C_21  and  C_22
REMARK                            x       y       z     vdW  Elec       q    Type
REMARK                         _______ _______ _______ _____ _____    ______ ____
ROOT
ATOM      1  N   UNL     1       1.009  10.860  19.042  0.00  0.00    +0.000 N 
ATOM      2  C   UNL     1       1.450  10.110  17.837  0.00  0.00    +0.000 C 
ATOM      3  C   UNL     1       2.465   9.004  18.162  0.00  0.00    +0.000 C 
ATOM      4  C   UNL     1       1.982   8.201  19.315  0.00  0.00    +0.000 A 
ATOM      5  N   UNL     1       2.409   6.919  19.510  0.00  0.00    +0.000 NA
ATOM      6  C   UNL     1       1.853   6.445  20.598  0.00  0.00    +0.000 A 
ATOM      7  N   UNL     1       2.008   5.177  21.084  0.00  0.00    +0.000 N 
ATOM      8  C   UNL     1       2.637   4.169  20.409  0.00  0.00    +0.000 C 
ATOM      9  O   UNL     1       2.781   3.069  20.937  0.00  0.00    +0.000 OA
ATOM     10  N   UNL     1       3.031   4.433  19.131  0.00  0.00    +0.000 N 
ATOM     11  S   UNL     1       0.812   7.502  21.449  0.00  0.00    +0.000 S 
ATOM     12  C   UNL     1       1.080   8.684  20.238  0.00  0.00    +0.000 A 
ATOM     13  C   UNL     1       0.428  10.031  20.141  0.00  0.00    +0.000 C 
ATOM     14  H   UNL     1       1.618   4.948  21.987  0.00  0.00    +0.000 HD
ATOM     15  H   UNL     1       2.954   5.399  18.812  0.00  0.00    +0.000 HD
ENDROOT
BRANCH   1  18
ATOM     16  C   UNL     1       3.145  13.904  18.788  0.00  0.00    +0.000 A 
ATOM     17  C   UNL     1       2.421  12.747  18.447  0.00  0.00    +0.000 A 
ATOM     18  C   UNL     1       1.662  12.039  19.389  0.00  0.00    +0.000 A 
ATOM     19  C   UNL     1       1.671  12.581  20.675  0.00  0.00    +0.000 A 
ATOM     20  N   UNL     1       2.323  13.704  21.054  0.00  0.00    +0.000 NA
ATOM     21  C   UNL     1       3.038  14.344  20.105  0.00  0.00    +0.000 A 
ATOM     22 CL   UNL     1       3.716  15.791  20.739  0.00  0.00    +0.000 Cl
BRANCH  16  24
ATOM     23  C   UNL     1       5.224  14.618  17.853  0.00  0.00    +0.000 C 
ATOM     24  O   UNL     1       3.812  14.468  17.736  0.00  0.00    +0.000 OA
ENDBRANCH  16  24
ENDBRANCH   1  18
BRANCH  10  25
ATOM     25  C   UNL     1       3.629   3.461  18.242  0.00  0.00    +0.000 C 
BRANCH  25  26
ATOM     26  C   UNL     1       4.085   4.064  16.910  0.00  0.00    +0.000 C 
BRANCH  26  27
ATOM     27  C   UNL     1       5.177   5.078  17.033  0.00  0.00    +0.000 A 
ATOM     28  C   UNL     1       6.105   5.250  18.038  0.00  0.00    +0.000 A 
ATOM     29  N   UNL     1       6.831   6.348  17.672  0.00  0.00    +0.000 N 
ATOM     30  C   UNL     1       6.329   6.806  16.488  0.00  0.00    +0.000 A 
ATOM     31  N   UNL     1       5.332   6.055  16.072  0.00  0.00    +0.000 NA
BRANCH  29  32
ATOM     32  C   UNL     1       7.907   6.956  18.419  0.00  0.00    +0.000 C 
BRANCH  32  33
ATOM     33  C   UNL     1       8.230   8.351  17.931  0.00  0.00    +0.000 C 
ATOM     34  F   UNL     1       7.095   9.094  17.856  0.00  0.00    +0.000 F 
ATOM     35  F   UNL     1       9.025   8.967  18.845  0.00  0.00    +0.000 F 
ENDBRANCH  32  33
ENDBRANCH  29  32
ENDBRANCH  26  27
ENDBRANCH  25  26
ENDBRANCH  10  25
TORSDOF 7
ENDMDL
