MODEL 1
REMARK VINA RESULT:      -8.6      0.000      0.000
REMARK  Name = 
REMARK  3 active torsions:
REMARK  status: ('A' for Active; 'I' for Inactive)
REMARK    1  A    between atoms: C_2  and  C_10
REMARK    2  A    between atoms: C_15  and  C_16
REMARK    3  A    between atoms: N_18  and  C_19
REMARK                            x       y       z     vdW  Elec       q    Type
REMARK                         _______ _______ _______ _____ _____    ______ ____
ROOT
ATOM      1  C   UNL     1       2.615   5.505  19.017  0.00  0.00    +0.000 C 
ATOM      2  C   UNL     1       1.709   4.258  18.840  0.00  0.00    +0.000 C 
ATOM      3  C   UNL     1       1.059   3.823  20.174  0.00  0.00    +0.000 C 
ATOM      4  C   UNL     1       2.266   3.380  21.030  0.00  0.00    +0.000 C 
ATOM      5  C   UNL     1       3.456   3.462  20.040  0.00  0.00    +0.000 C 
ATOM      6  C   UNL     1       3.814   4.960  19.874  0.00  0.00    +0.000 C 
ATOM      7  C   UNL     1       2.754   3.185  18.740  0.00  0.00    +0.000 C 
ATOM      8  C   UNL     1       2.474   1.802  18.228  0.00  0.00    +0.000 C 
ATOM      9  C   UNL     1       3.418   2.716  17.477  0.00  0.00    +0.000 C 
ENDROOT
BRANCH   1  11
ATOM     10  O   UNL     1       1.647   6.654  20.841  0.00  0.00    +0.000 OA
ATOM     11  C   UNL     1       2.025   6.745  19.673  0.00  0.00    +0.000 C 
ATOM     12  N   UNL     1       2.033   7.897  18.914  0.00  0.00    +0.000 N 
ATOM     13  C   UNL     1       1.486   9.046  19.415  0.00  0.00    +0.000 A 
ATOM     14  N   UNL     1       1.197   9.332  20.656  0.00  0.00    +0.000 NA
ATOM     15  C   UNL     1       0.576  10.561  20.719  0.00  0.00    +0.000 A 
ATOM     16  C   UNL     1       0.410  11.177  19.503  0.00  0.00    +0.000 A 
ATOM     17 BR   UNL     1      -0.465  12.807  19.262  0.00  0.00    +0.000 Br
ATOM     18  S   UNL     1       1.100  10.247  18.253  0.00  0.00    +0.000 S 
ATOM     19  H   UNL     1       2.235   7.887  17.927  0.00  0.00    +0.000 HD
ENDBRANCH   1  11
BRANCH   6  20
ATOM     20  C   UNL     1       5.165   5.156  19.196  0.00  0.00    +0.000 C 
ATOM     21  O   UNL     1       6.243   5.009  19.768  0.00  0.00    +0.000 OA
ATOM     22  N   UNL     1       5.074   5.560  17.880  0.00  0.00    +0.000 N 
ATOM     23  H   UNL     1       4.148   5.799  17.522  0.00  0.00    +0.000 HD
BRANCH  22  24
ATOM     24  C   UNL     1       6.281   5.859  17.073  0.00  0.00    +0.000 C 
ATOM     25  C   UNL     1       7.144   4.639  16.667  0.00  0.00    +0.000 C 
ATOM     26  N   UNL     1       7.277   5.239  15.317  0.00  0.00    +0.000 NA
ATOM     27  C   UNL     1       6.019   5.979  15.554  0.00  0.00    +0.000 C 
ATOM     28  H   UNL     1       7.245   4.570  14.550  0.00  0.00    +0.000 HD
ENDBRANCH  22  24
ENDBRANCH   6  20
TORSDOF 3
ENDMDL
MODEL 2
REMARK VINA RESULT:      -8.2      1.418      1.541
REMARK  Name = 
REMARK  3 active torsions:
REMARK  status: ('A' for Active; 'I' for Inactive)
REMARK    1  A    between atoms: C_2  and  C_10
REMARK    2  A    between atoms: C_15  and  C_16
REMARK    3  A    between atoms: N_18  and  C_19
REMARK                            x       y       z     vdW  Elec       q    Type
REMARK                         _______ _______ _______ _____ _____    ______ ____
ROOT
ATOM      1  C   UNL     1       2.841   5.511  18.269  0.00  0.00    +0.000 C 
ATOM      2  C   UNL     1       1.677   4.578  18.696  0.00  0.00    +0.000 C 
ATOM      3  C   UNL     1       1.114   4.958  20.086  0.00  0.00    +0.000 C 
ATOM      4  C   UNL     1       2.293   4.665  21.040  0.00  0.00    +0.000 C 
ATOM      5  C   UNL     1       3.346   4.003  20.114  0.00  0.00    +0.000 C 
ATOM      6  C   UNL     1       3.991   5.131  19.271  0.00  0.00    +0.000 C 
ATOM      7  C   UNL     1       2.450   3.356  19.095  0.00  0.00    +0.000 C 
ATOM      8  C   UNL     1       1.823   2.004  19.283  0.00  0.00    +0.000 C 
ATOM      9  C   UNL     1       2.843   2.226  18.186  0.00  0.00    +0.000 C 
ENDROOT
BRANCH   1  11
ATOM     10  O   UNL     1       3.236   7.701  17.474  0.00  0.00    +0.000 OA
ATOM     11  C   UNL     1       2.611   7.015  18.283  0.00  0.00    +0.000 C 
ATOM     12  N   UNL     1       1.657   7.475  19.165  0.00  0.00    +0.000 N 
ATOM     13  C   UNL     1       1.417   8.818  19.269  0.00  0.00    +0.000 A 
ATOM     14  N   UNL     1       1.748   9.767  18.436  0.00  0.00    +0.000 NA
ATOM     15  C   UNL     1       1.397  10.993  18.960  0.00  0.00    +0.000 A 
ATOM     16  C   UNL     1       0.801  10.932  20.196  0.00  0.00    +0.000 A 
ATOM     17 BR   UNL     1       0.290  12.426  21.190  0.00  0.00    +0.000 Br
ATOM     18  S   UNL     1       0.606   9.315  20.697  0.00  0.00    +0.000 S 
ATOM     19  H   UNL     1       1.269   6.892  19.889  0.00  0.00    +0.000 HD
ENDBRANCH   1  11
BRANCH   6  20
ATOM     20  C   UNL     1       5.262   4.669  18.568  0.00  0.00    +0.000 C 
ATOM     21  O   UNL     1       6.278   4.312  19.160  0.00  0.00    +0.000 OA
ATOM     22  N   UNL     1       5.188   4.724  17.192  0.00  0.00    +0.000 N 
ATOM     23  H   UNL     1       4.365   5.166  16.780  0.00  0.00    +0.000 HD
BRANCH  22  24
ATOM     24  C   UNL     1       6.346   4.370  16.335  0.00  0.00    +0.000 C 
ATOM     25  C   UNL     1       6.112   4.465  14.807  0.00  0.00    +0.000 C 
ATOM     26  N   UNL     1       7.449   5.093  14.686  0.00  0.00    +0.000 NA
ATOM     27  C   UNL     1       7.339   5.530  16.094  0.00  0.00    +0.000 C 
ATOM     28  H   UNL     1       7.503   5.848  14.004  0.00  0.00    +0.000 HD
ENDBRANCH  22  24
ENDBRANCH   6  20
TORSDOF 3
ENDMDL
MODEL 3
REMARK VINA RESULT:      -8.2      0.917      1.140
REMARK  Name = 
REMARK  3 active torsions:
REMARK  status: ('A' for Active; 'I' for Inactive)
REMARK    1  A    between atoms: C_2  and  C_10
REMARK    2  A    between atoms: C_15  and  C_16
REMARK    3  A    between atoms: N_18  and  C_19
REMARK                            x       y       z     vdW  Elec       q    Type
REMARK                         _______ _______ _______ _____ _____    ______ ____
ROOT
ATOM      1  C   UNL     1       2.429   5.236  19.096  0.00  0.00    +0.000 C 
ATOM      2  C   UNL     1       1.431   4.049  19.047  0.00  0.00    +0.000 C 
ATOM      3  C   UNL     1       0.823   3.748  20.437  0.00  0.00    +0.000 C 
ATOM      4  C   UNL     1       2.041   3.273  21.262  0.00  0.00    +0.000 C 
ATOM      5  C   UNL     1       3.180   3.205  20.212  0.00  0.00    +0.000 C 
ATOM      6  C   UNL     1       3.632   4.660  19.928  0.00  0.00    +0.000 C 
ATOM      7  C   UNL     1       2.392   2.899  18.969  0.00  0.00    +0.000 C 
ATOM      8  C   UNL     1       1.989   1.510  18.564  0.00  0.00    +0.000 C 
ATOM      9  C   UNL     1       2.953   2.304  17.709  0.00  0.00    +0.000 C 
ENDROOT
BRANCH   1  11
ATOM     10  O   UNL     1       1.605   6.557  20.874  0.00  0.00    +0.000 OA
ATOM     11  C   UNL     1       1.963   6.555  19.696  0.00  0.00    +0.000 C 
ATOM     12  N   UNL     1       2.052   7.660  18.877  0.00  0.00    +0.000 N 
ATOM     13  C   UNL     1       1.617   8.877  19.326  0.00  0.00    +0.000 A 
ATOM     14  N   UNL     1       1.382   9.251  20.554  0.00  0.00    +0.000 NA
ATOM     15  C   UNL     1       0.871  10.531  20.563  0.00  0.00    +0.000 A 
ATOM     16  C   UNL     1       0.731  11.095  19.319  0.00  0.00    +0.000 A 
ATOM     17 BR   UNL     1      -0.007  12.780  19.008  0.00  0.00    +0.000 Br
ATOM     18  S   UNL     1       1.309  10.046  18.108  0.00  0.00    +0.000 S 
ATOM     19  H   UNL     1       2.230   7.582  17.888  0.00  0.00    +0.000 HD
ENDBRANCH   1  11
BRANCH   6  20
ATOM     20  C   UNL     1       4.955   4.714  19.175  0.00  0.00    +0.000 C 
ATOM     21  O   UNL     1       5.871   3.913  19.347  0.00  0.00    +0.000 OA
ATOM     22  N   UNL     1       5.055   5.777  18.302  0.00  0.00    +0.000 N 
ATOM     23  H   UNL     1       4.312   6.477  18.322  0.00  0.00    +0.000 HD
BRANCH  22  24
ATOM     24  C   UNL     1       6.291   6.031  17.523  0.00  0.00    +0.000 C 
ATOM     25  C   UNL     1       6.351   7.384  16.771  0.00  0.00    +0.000 C 
ATOM     26  N   UNL     1       7.760   7.516  17.214  0.00  0.00    +0.000 NA
ATOM     27  C   UNL     1       7.456   6.620  18.350  0.00  0.00    +0.000 C 
ATOM     28  H   UNL     1       8.036   8.462  17.473  0.00  0.00    +0.000 HD
ENDBRANCH  22  24
ENDBRANCH   6  20
TORSDOF 3
ENDMDL
MODEL 4
REMARK VINA RESULT:      -7.9      1.162      1.242
REMARK  Name = 
REMARK  3 active torsions:
REMARK  status: ('A' for Active; 'I' for Inactive)
REMARK    1  A    between atoms: C_2  and  C_10
REMARK    2  A    between atoms: C_15  and  C_16
REMARK    3  A    between atoms: N_18  and  C_19
REMARK                            x       y       z     vdW  Elec       q    Type
REMARK                         _______ _______ _______ _____ _____    ______ ____
ROOT
ATOM      1  C   UNL     1       2.345   5.464  19.198  0.00  0.00    +0.000 C 
ATOM      2  C   UNL     1       1.545   4.145  19.024  0.00  0.00    +0.000 C 
ATOM      3  C   UNL     1       1.314   3.429  20.376  0.00  0.00    +0.000 C 
ATOM      4  C   UNL     1       2.740   3.032  20.817  0.00  0.00    +0.000 C 
ATOM      5  C   UNL     1       3.614   3.424  19.598  0.00  0.00    +0.000 C 
ATOM      6  C   UNL     1       3.773   4.965  19.623  0.00  0.00    +0.000 C 
ATOM      7  C   UNL     1       2.623   3.254  18.481  0.00  0.00    +0.000 C 
ATOM      8  C   UNL     1       2.348   1.938  17.810  0.00  0.00    +0.000 C 
ATOM      9  C   UNL     1       2.971   3.076  17.030  0.00  0.00    +0.000 C 
ENDROOT
BRANCH   1  11
ATOM     10  O   UNL     1       1.578   6.121  21.335  0.00  0.00    +0.000 OA
ATOM     11  C   UNL     1       1.835   6.498  20.192  0.00  0.00    +0.000 C 
ATOM     12  N   UNL     1       1.775   7.799  19.737  0.00  0.00    +0.000 N 
ATOM     13  C   UNL     1       1.292   8.784  20.555  0.00  0.00    +0.000 A 
ATOM     14  N   UNL     1       1.134   8.756  21.850  0.00  0.00    +0.000 NA
ATOM     15  C   UNL     1       0.533   9.923  22.272  0.00  0.00    +0.000 A 
ATOM     16  C   UNL     1       0.249  10.812  21.265  0.00  0.00    +0.000 A 
ATOM     17 BR   UNL     1      -0.632  12.437  21.517  0.00  0.00    +0.000 Br
ATOM     18  S   UNL     1       0.800  10.224  19.764  0.00  0.00    +0.000 S 
ATOM     19  H   UNL     1       1.875   8.032  18.762  0.00  0.00    +0.000 HD
ENDBRANCH   1  11
BRANCH   6  20
ATOM     20  C   UNL     1       4.873   5.445  18.684  0.00  0.00    +0.000 C 
ATOM     21  O   UNL     1       4.784   6.453  17.986  0.00  0.00    +0.000 OA
ATOM     22  N   UNL     1       5.977   4.618  18.652  0.00  0.00    +0.000 N 
ATOM     23  H   UNL     1       5.916   3.728  19.148  0.00  0.00    +0.000 HD
BRANCH  22  24
ATOM     24  C   UNL     1       7.125   4.887  17.753  0.00  0.00    +0.000 C 
ATOM     25  C   UNL     1       6.886   4.613  16.247  0.00  0.00    +0.000 C 
ATOM     26  N   UNL     1       7.601   5.877  15.949  0.00  0.00    +0.000 NA
ATOM     27  C   UNL     1       7.251   6.360  17.302  0.00  0.00    +0.000 C 
ATOM     28  H   UNL     1       7.205   6.418  15.183  0.00  0.00    +0.000 HD
ENDBRANCH  22  24
ENDBRANCH   6  20
TORSDOF 3
ENDMDL
MODEL 5
REMARK VINA RESULT:      -7.8      2.331      4.488
REMARK  Name = 
REMARK  3 active torsions:
REMARK  status: ('A' for Active; 'I' for Inactive)
REMARK    1  A    between atoms: C_2  and  C_10
REMARK    2  A    between atoms: C_15  and  C_16
REMARK    3  A    between atoms: N_18  and  C_19
REMARK                            x       y       z     vdW  Elec       q    Type
REMARK                         _______ _______ _______ _____ _____    ______ ____
ROOT
ATOM      1  C   UNL     1       3.935   6.293  18.256  0.00  0.00    +0.000 C 
ATOM      2  C   UNL     1       5.444   6.534  17.991  0.00  0.00    +0.000 C 
ATOM      3  C   UNL     1       5.690   7.201  16.617  0.00  0.00    +0.000 C 
ATOM      4  C   UNL     1       5.227   6.123  15.611  0.00  0.00    +0.000 C 
ATOM      5  C   UNL     1       4.915   4.902  16.513  0.00  0.00    +0.000 C 
ATOM      6  C   UNL     1       3.560   5.179  17.211  0.00  0.00    +0.000 C 
ATOM      7  C   UNL     1       5.877   5.140  17.643  0.00  0.00    +0.000 C 
ATOM      8  C   UNL     1       7.314   4.702  17.614  0.00  0.00    +0.000 C 
ATOM      9  C   UNL     1       6.352   4.097  18.614  0.00  0.00    +0.000 C 
ENDROOT
BRANCH   1  11
ATOM     10  O   UNL     1       2.903   8.039  17.043  0.00  0.00    +0.000 OA
ATOM     11  C   UNL     1       2.977   7.469  18.132  0.00  0.00    +0.000 C 
ATOM     12  N   UNL     1       2.213   7.750  19.245  0.00  0.00    +0.000 N 
ATOM     13  C   UNL     1       1.355   8.816  19.230  0.00  0.00    +0.000 A 
ATOM     14  N   UNL     1       0.902   9.477  18.199  0.00  0.00    +0.000 NA
ATOM     15  C   UNL     1       0.132  10.537  18.627  0.00  0.00    +0.000 A 
ATOM     16  C   UNL     1       0.026  10.649  19.991  0.00  0.00    +0.000 A 
ATOM     17 BR   UNL     1      -0.881  12.025  20.865  0.00  0.00    +0.000 Br
ATOM     18  S   UNL     1       0.841   9.371  20.769  0.00  0.00    +0.000 S 
ATOM     19  H   UNL     1       2.402   7.337  20.144  0.00  0.00    +0.000 HD
ENDBRANCH   1  11
BRANCH   6  20
ATOM     20  C   UNL     1       2.980   3.928  17.860  0.00  0.00    +0.000 C 
ATOM     21  O   UNL     1       2.626   2.934  17.229  0.00  0.00    +0.000 OA
ATOM     22  N   UNL     1       2.848   4.022  19.230  0.00  0.00    +0.000 N 
ATOM     23  H   UNL     1       3.030   4.929  19.661  0.00  0.00    +0.000 HD
BRANCH  22  24
ATOM     24  C   UNL     1       2.248   2.927  20.030  0.00  0.00    +0.000 C 
ATOM     25  C   UNL     1       2.945   2.613  21.377  0.00  0.00    +0.000 C 
ATOM     26  N   UNL     1       1.601   2.494  21.993  0.00  0.00    +0.000 NA
ATOM     27  C   UNL     1       1.066   3.366  20.926  0.00  0.00    +0.000 C 
ATOM     28  H   UNL     1       1.532   2.874  22.935  0.00  0.00    +0.000 HD
ENDBRANCH  22  24
ENDBRANCH   6  20
TORSDOF 3
ENDMDL
MODEL 6
REMARK VINA RESULT:      -7.7      1.422      1.473
REMARK  Name = 
REMARK  3 active torsions:
REMARK  status: ('A' for Active; 'I' for Inactive)
REMARK    1  A    between atoms: C_2  and  C_10
REMARK    2  A    between atoms: C_15  and  C_16
REMARK    3  A    between atoms: N_18  and  C_19
REMARK                            x       y       z     vdW  Elec       q    Type
REMARK                         _______ _______ _______ _____ _____    ______ ____
ROOT
ATOM      1  C   UNL     1       2.861   5.855  18.639  0.00  0.00    +0.000 C 
ATOM      2  C   UNL     1       1.858   4.676  18.755  0.00  0.00    +0.000 C 
ATOM      3  C   UNL     1       1.137   4.664  20.123  0.00  0.00    +0.000 C 
ATOM      4  C   UNL     1       2.279   4.378  21.124  0.00  0.00    +0.000 C 
ATOM      5  C   UNL     1       3.498   4.103  20.207  0.00  0.00    +0.000 C 
ATOM      6  C   UNL     1       3.986   5.471  19.668  0.00  0.00    +0.000 C 
ATOM      7  C   UNL     1       2.810   3.542  18.994  0.00  0.00    +0.000 C 
ATOM      8  C   UNL     1       2.428   2.096  18.853  0.00  0.00    +0.000 C 
ATOM      9  C   UNL     1       3.466   2.703  17.934  0.00  0.00    +0.000 C 
ENDROOT
BRANCH   1  11
ATOM     10  O   UNL     1       2.833   8.185  18.246  0.00  0.00    +0.000 OA
ATOM     11  C   UNL     1       2.361   7.266  18.915  0.00  0.00    +0.000 C 
ATOM     12  N   UNL     1       1.357   7.381  19.853  0.00  0.00    +0.000 N 
ATOM     13  C   UNL     1       0.878   8.618  20.188  0.00  0.00    +0.000 A 
ATOM     14  N   UNL     1       1.013   9.743  19.538  0.00  0.00    +0.000 NA
ATOM     15  C   UNL     1       0.455  10.772  20.266  0.00  0.00    +0.000 A 
ATOM     16  C   UNL     1      -0.093  10.388  21.465  0.00  0.00    +0.000 A 
ATOM     17 BR   UNL     1      -0.848  11.566  22.699  0.00  0.00    +0.000 Br
ATOM     18  S   UNL     1       0.020   8.701  21.671  0.00  0.00    +0.000 S 
ATOM     19  H   UNL     1       1.097   6.619  20.458  0.00  0.00    +0.000 HD
ENDBRANCH   1  11
BRANCH   6  20
ATOM     20  C   UNL     1       5.367   5.378  19.029  0.00  0.00    +0.000 C 
ATOM     21  O   UNL     1       6.378   5.035  19.638  0.00  0.00    +0.000 OA
ATOM     22  N   UNL     1       5.393   5.755  17.703  0.00  0.00    +0.000 N 
ATOM     23  H   UNL     1       4.543   6.163  17.311  0.00  0.00    +0.000 HD
BRANCH  22  24
ATOM     24  C   UNL     1       6.657   5.788  16.928  0.00  0.00    +0.000 C 
ATOM     25  C   UNL     1       7.215   4.413  16.485  0.00  0.00    +0.000 C 
ATOM     26  N   UNL     1       7.521   5.013  15.164  0.00  0.00    +0.000 NA
ATOM     27  C   UNL     1       6.470   6.022  15.411  0.00  0.00    +0.000 C 
ATOM     28  H   UNL     1       7.350   4.399  14.370  0.00  0.00    +0.000 HD
ENDBRANCH  22  24
ENDBRANCH   6  20
TORSDOF 3
ENDMDL
MODEL 7
REMARK VINA RESULT:      -7.4      1.194      1.203
REMARK  Name = 
REMARK  3 active torsions:
REMARK  status: ('A' for Active; 'I' for Inactive)
REMARK    1  A    between atoms: C_2  and  C_10
REMARK    2  A    between atoms: C_15  and  C_16
REMARK    3  A    between atoms: N_18  and  C_19
REMARK                            x       y       z     vdW  Elec       q    Type
REMARK                         _______ _______ _______ _____ _____    ______ ____
ROOT
ATOM      1  C   UNL     1       2.064   6.237  19.034  0.00  0.00    +0.000 C 
ATOM      2  C   UNL     1       1.305   4.887  19.125  0.00  0.00    +0.000 C 
ATOM      3  C   UNL     1       1.183   4.389  20.584  0.00  0.00    +0.000 C 
ATOM      4  C   UNL     1       2.648   4.106  20.987  0.00  0.00    +0.000 C 
ATOM      5  C   UNL     1       3.430   4.322  19.666  0.00  0.00    +0.000 C 
ATOM      6  C   UNL     1       3.533   5.851  19.436  0.00  0.00    +0.000 C 
ATOM      7  C   UNL     1       2.379   3.949  18.658  0.00  0.00    +0.000 C 
ATOM      8  C   UNL     1       2.112   2.536  18.223  0.00  0.00    +0.000 C 
ATOM      9  C   UNL     1       2.643   3.551  17.234  0.00  0.00    +0.000 C 
ENDROOT
BRANCH   1  11
ATOM     10  O   UNL     1       1.431   7.213  21.092  0.00  0.00    +0.000 OA
ATOM     11  C   UNL     1       1.579   7.403  19.885  0.00  0.00    +0.000 C 
ATOM     12  N   UNL     1       1.414   8.605  19.230  0.00  0.00    +0.000 N 
ATOM     13  C   UNL     1       0.944   9.693  19.912  0.00  0.00    +0.000 A 
ATOM     14  N   UNL     1       0.889   9.878  21.204  0.00  0.00    +0.000 NA
ATOM     15  C   UNL     1       0.262  11.074  21.478  0.00  0.00    +0.000 A 
ATOM     16  C   UNL     1      -0.147  11.769  20.366  0.00  0.00    +0.000 A 
ATOM     17 BR   UNL     1      -1.091  13.377  20.422  0.00  0.00    +0.000 Br
ATOM     18  S   UNL     1       0.316  10.960  18.940  0.00  0.00    +0.000 S 
ATOM     19  H   UNL     1       1.426   8.674  18.225  0.00  0.00    +0.000 HD
ENDBRANCH   1  11
BRANCH   6  20
ATOM     20  C   UNL     1       4.555   6.204  18.362  0.00  0.00    +0.000 C 
ATOM     21  O   UNL     1       4.370   7.060  17.500  0.00  0.00    +0.000 OA
ATOM     22  N   UNL     1       5.703   5.441  18.414  0.00  0.00    +0.000 N 
ATOM     23  H   UNL     1       5.720   4.656  19.067  0.00  0.00    +0.000 HD
BRANCH  22  24
ATOM     24  C   UNL     1       6.787   5.597  17.415  0.00  0.00    +0.000 C 
ATOM     25  C   UNL     1       7.802   4.430  17.329  0.00  0.00    +0.000 C 
ATOM     26  N   UNL     1       7.743   4.546  15.852  0.00  0.00    +0.000 NA
ATOM     27  C   UNL     1       6.403   5.158  15.983  0.00  0.00    +0.000 C 
ATOM     28  H   UNL     1       7.763   3.657  15.355  0.00  0.00    +0.000 HD
ENDBRANCH  22  24
ENDBRANCH   6  20
TORSDOF 3
ENDMDL
MODEL 8
REMARK VINA RESULT:      -7.2      3.579      6.572
REMARK  Name = 
REMARK  3 active torsions:
REMARK  status: ('A' for Active; 'I' for Inactive)
REMARK    1  A    between atoms: C_2  and  C_10
REMARK    2  A    between atoms: C_15  and  C_16
REMARK    3  A    between atoms: N_18  and  C_19
REMARK                            x       y       z     vdW  Elec       q    Type
REMARK                         _______ _______ _______ _____ _____    ______ ____
ROOT
ATOM      1  C   UNL     1       4.064   5.285  18.816  0.00  0.00    +0.000 C 
ATOM      2  C   UNL     1       3.674   3.851  19.262  0.00  0.00    +0.000 C 
ATOM      3  C   UNL     1       3.266   2.964  18.062  0.00  0.00    +0.000 C 
ATOM      4  C   UNL     1       1.974   3.638  17.545  0.00  0.00    +0.000 C 
ATOM      5  C   UNL     1       1.700   4.741  18.598  0.00  0.00    +0.000 C 
ATOM      6  C   UNL     1       2.699   5.894  18.329  0.00  0.00    +0.000 C 
ATOM      7  C   UNL     1       2.306   4.112  19.822  0.00  0.00    +0.000 C 
ATOM      8  C   UNL     1       1.573   3.142  20.704  0.00  0.00    +0.000 C 
ATOM      9  C   UNL     1       1.993   4.494  21.241  0.00  0.00    +0.000 C 
ENDROOT
BRANCH   1  11
ATOM     10  O   UNL     1       5.995   6.299  17.907  0.00  0.00    +0.000 OA
ATOM     11  C   UNL     1       5.124   5.447  17.735  0.00  0.00    +0.000 C 
ATOM     12  N   UNL     1       5.054   4.564  16.678  0.00  0.00    +0.000 N 
ATOM     13  C   UNL     1       5.944   4.667  15.646  0.00  0.00    +0.000 A 
ATOM     14  N   UNL     1       7.082   5.306  15.617  0.00  0.00    +0.000 NA
ATOM     15  C   UNL     1       7.628   5.233  14.353  0.00  0.00    +0.000 A 
ATOM     16  C   UNL     1       6.872   4.528  13.448  0.00  0.00    +0.000 A 
ATOM     17 BR   UNL     1       7.311   4.326  11.647  0.00  0.00    +0.000 Br
ATOM     18  S   UNL     1       5.483   3.880  14.192  0.00  0.00    +0.000 S 
ATOM     19  H   UNL     1       4.252   3.974  16.525  0.00  0.00    +0.000 HD
ENDBRANCH   1  11
BRANCH   6  20
ATOM     20  C   UNL     1       2.320   7.169  19.072  0.00  0.00    +0.000 C 
ATOM     21  O   UNL     1       2.361   7.284  20.295  0.00  0.00    +0.000 OA
ATOM     22  N   UNL     1       1.882   8.184  18.247  0.00  0.00    +0.000 N 
ATOM     23  H   UNL     1       1.741   7.964  17.261  0.00  0.00    +0.000 HD
BRANCH  22  24
ATOM     24  C   UNL     1       1.413   9.482  18.791  0.00  0.00    +0.000 C 
ATOM     25  C   UNL     1       1.963  10.749  18.091  0.00  0.00    +0.000 C 
ATOM     26  N   UNL     1       0.599  11.327  18.165  0.00  0.00    +0.000 NA
ATOM     27  C   UNL     1       0.053   9.955  18.230  0.00  0.00    +0.000 C 
ATOM     28  H   UNL     1       0.321  11.863  17.345  0.00  0.00    +0.000 HD
ENDBRANCH  22  24
ENDBRANCH   6  20
TORSDOF 3
ENDMDL
MODEL 9
REMARK VINA RESULT:      -7.2      3.462      6.530
REMARK  Name = 
REMARK  3 active torsions:
REMARK  status: ('A' for Active; 'I' for Inactive)
REMARK    1  A    between atoms: C_2  and  C_10
REMARK    2  A    between atoms: C_15  and  C_16
REMARK    3  A    between atoms: N_18  and  C_19
REMARK                            x       y       z     vdW  Elec       q    Type
REMARK                         _______ _______ _______ _____ _____    ______ ____
ROOT
ATOM      1  C   UNL     1       3.544   3.759  18.977  0.00  0.00    +0.000 C 
ATOM      2  C   UNL     1       2.957   2.524  19.711  0.00  0.00    +0.000 C 
ATOM      3  C   UNL     1       1.953   1.750  18.825  0.00  0.00    +0.000 C 
ATOM      4  C   UNL     1       0.792   2.753  18.642  0.00  0.00    +0.000 C 
ATOM      5  C   UNL     1       1.187   3.930  19.570  0.00  0.00    +0.000 C 
ATOM      6  C   UNL     1       2.309   4.724  18.855  0.00  0.00    +0.000 C 
ATOM      7  C   UNL     1       1.975   3.200  20.622  0.00  0.00    +0.000 C 
ATOM      8  C   UNL     1       1.347   2.526  21.809  0.00  0.00    +0.000 C 
ATOM      9  C   UNL     1       2.265   3.714  22.004  0.00  0.00    +0.000 C 
ENDROOT
BRANCH   1  11
ATOM     10  O   UNL     1       4.077   2.453  17.082  0.00  0.00    +0.000 OA
ATOM     11  C   UNL     1       4.187   3.558  17.613  0.00  0.00    +0.000 C 
ATOM     12  N   UNL     1       4.782   4.668  17.052  0.00  0.00    +0.000 N 
ATOM     13  C   UNL     1       5.417   4.563  15.845  0.00  0.00    +0.000 A 
ATOM     14  N   UNL     1       5.310   3.616  14.952  0.00  0.00    +0.000 NA
ATOM     15  C   UNL     1       6.190   3.848  13.917  0.00  0.00    +0.000 A 
ATOM     16  C   UNL     1       6.950   4.983  14.062  0.00  0.00    +0.000 A 
ATOM     17 BR   UNL     1       8.281   5.514  12.867  0.00  0.00    +0.000 Br
ATOM     18  S   UNL     1       6.521   5.824  15.479  0.00  0.00    +0.000 S 
ATOM     19  H   UNL     1       4.954   5.509  17.580  0.00  0.00    +0.000 HD
ENDBRANCH   1  11
BRANCH   6  20
ATOM     20  C   UNL     1       2.552   6.084  19.500  0.00  0.00    +0.000 C 
ATOM     21  O   UNL     1       3.647   6.641  19.525  0.00  0.00    +0.000 OA
ATOM     22  N   UNL     1       1.432   6.624  20.097  0.00  0.00    +0.000 N 
ATOM     23  H   UNL     1       0.599   6.037  20.158  0.00  0.00    +0.000 HD
BRANCH  22  24
ATOM     24  C   UNL     1       1.485   7.914  20.827  0.00  0.00    +0.000 C 
ATOM     25  C   UNL     1       1.188   9.180  19.987  0.00  0.00    +0.000 C 
ATOM     26  N   UNL     1       0.370   9.683  21.117  0.00  0.00    +0.000 NA
ATOM     27  C   UNL     1       0.177   8.286  21.561  0.00  0.00    +0.000 C 
ATOM     28  H   UNL     1      -0.481  10.169  20.841  0.00  0.00    +0.000 HD
ENDBRANCH  22  24
ENDBRANCH   6  20
TORSDOF 3
ENDMDL
