MODEL 1
REMARK VINA RESULT:     -10.3      0.000      0.000
REMARK  Name = 
REMARK  5 active torsions:
REMARK  status: ('A' for Active; 'I' for Inactive)
REMARK    1  A    between atoms: C_1  and  C_2
REMARK    2  A    between atoms: C_9  and  C_10
REMARK    3  A    between atoms: C_10  and  N_11
REMARK    4  A    between atoms: C_14  and  C_15
REMARK    5  A    between atoms: C_28  and  C_29
REMARK                            x       y       z     vdW  Elec       q    Type
REMARK                         _______ _______ _______ _____ _____    ______ ____
ROOT
ATOM      1  N   UNL     1       2.855   2.776  18.729  0.00  0.00    +0.000 NA
ATOM      2  C   UNL     1       3.486   3.265  19.954  0.00  0.00    +0.000 C 
ATOM      3  C   UNL     1       2.520   3.457  21.136  0.00  0.00    +0.000 C 
ATOM      4  C   UNL     1       1.345   4.401  20.838  0.00  0.00    +0.000 C 
ATOM      5  C   UNL     1       0.645   3.770  19.576  0.00  0.00    +0.000 C 
ATOM      6  C   UNL     1       1.580   3.402  18.386  0.00  0.00    +0.000 C 
ENDROOT
BRANCH   4   7
ATOM      7  C   UNL     1       1.695   5.889  20.578  0.00  0.00    +0.000 A 
ATOM      8  C   UNL     1       0.957   6.846  21.255  0.00  0.00    +0.000 A 
ATOM      9  N   UNL     1       1.795   7.933  21.257  0.00  0.00    +0.000 N 
ATOM     10  C   UNL     1       1.947   8.023  19.891  0.00  0.00    +0.000 A 
ATOM     11  C   UNL     1       1.593   9.004  18.990  0.00  0.00    +0.000 A 
ATOM     12  C   UNL     1       2.065   8.824  17.708  0.00  0.00    +0.000 A 
ATOM     13  C   UNL     1       2.976   7.789  17.451  0.00  0.00    +0.000 A 
ATOM     14  C   UNL     1       3.181   6.714  18.370  0.00  0.00    +0.000 A 
ATOM     15  C   UNL     1       2.396   6.728  19.552  0.00  0.00    +0.000 A 
ATOM     16  H   UNL     1       2.642   7.831  21.801  0.00  0.00    +0.000 HD
ENDBRANCH   4   7
BRANCH   1  17
ATOM     17  C   UNL     1       3.795   2.671  17.580  0.00  0.00    +0.000 C 
BRANCH  17  26
ATOM     18  C   UNL     1       7.838   5.337  12.750  0.00  0.00    +0.000 C 
ATOM     19  C   UNL     1       7.120   4.790  13.955  0.00  0.00    +0.000 A 
ATOM     20  C   UNL     1       7.574   5.148  15.231  0.00  0.00    +0.000 A 
ATOM     21  C   UNL     1       6.866   4.726  16.379  0.00  0.00    +0.000 A 
ATOM     22  O   UNL     1       7.360   5.218  17.598  0.00  0.00    +0.000 OA
ATOM     23  C   UNL     1       6.630   5.037  18.768  0.00  0.00    +0.000 A 
ATOM     24  O   UNL     1       6.960   5.544  19.830  0.00  0.00    +0.000 OA
ATOM     25  C   UNL     1       5.437   4.189  18.682  0.00  0.00    +0.000 A 
ATOM     26  C   UNL     1       5.019   3.582  17.559  0.00  0.00    +0.000 A 
ATOM     27  C   UNL     1       5.728   3.930  16.297  0.00  0.00    +0.000 A 
ATOM     28  C   UNL     1       5.313   3.549  15.023  0.00  0.00    +0.000 A 
ATOM     29  C   UNL     1       5.987   3.975  13.846  0.00  0.00    +0.000 A 
ATOM     30  C   UNL     1       5.445   3.581  12.501  0.00  0.00    +0.000 C 
ENDBRANCH  17  26
ENDBRANCH   1  17
TORSDOF 3
ENDMDL
MODEL 2
REMARK VINA RESULT:      -9.4      3.210      5.905
REMARK  Name = 
REMARK  5 active torsions:
REMARK  status: ('A' for Active; 'I' for Inactive)
REMARK    1  A    between atoms: C_1  and  C_2
REMARK    2  A    between atoms: C_9  and  C_10
REMARK    3  A    between atoms: C_10  and  N_11
REMARK    4  A    between atoms: C_14  and  C_15
REMARK    5  A    between atoms: C_28  and  C_29
REMARK                            x       y       z     vdW  Elec       q    Type
REMARK                         _______ _______ _______ _____ _____    ______ ____
ROOT
ATOM      1  N   UNL     1       1.908   9.129  18.800  0.00  0.00    +0.000 NA
ATOM      2  C   UNL     1       1.906  10.418  18.111  0.00  0.00    +0.000 C 
ATOM      3  C   UNL     1       1.850  11.640  19.044  0.00  0.00    +0.000 C 
ATOM      4  C   UNL     1       0.642  11.647  19.994  0.00  0.00    +0.000 C 
ATOM      5  C   UNL     1       0.752  10.287  20.779  0.00  0.00    +0.000 C 
ATOM      6  C   UNL     1       0.966   9.010  19.912  0.00  0.00    +0.000 C 
ENDROOT
BRANCH   4   7
ATOM      7  C   UNL     1      -0.758  11.786  19.341  0.00  0.00    +0.000 A 
ATOM      8  C   UNL     1      -1.751  12.399  20.085  0.00  0.00    +0.000 A 
ATOM      9  N   UNL     1      -2.623  12.845  19.124  0.00  0.00    +0.000 N 
ATOM     10  C   UNL     1      -2.860  11.621  18.540  0.00  0.00    +0.000 A 
ATOM     11  C   UNL     1      -4.006  10.861  18.429  0.00  0.00    +0.000 A 
ATOM     12  C   UNL     1      -3.902   9.754  17.616  0.00  0.00    +0.000 A 
ATOM     13  C   UNL     1      -2.738   9.569  16.853  0.00  0.00    +0.000 A 
ATOM     14  C   UNL     1      -1.532  10.284  17.125  0.00  0.00    +0.000 A 
ATOM     15  C   UNL     1      -1.556  11.179  18.227  0.00  0.00    +0.000 A 
ATOM     16  H   UNL     1      -2.270  13.574  18.518  0.00  0.00    +0.000 HD
ENDBRANCH   4   7
BRANCH   1  17
ATOM     17  C   UNL     1       1.886   7.963  17.876  0.00  0.00    +0.000 C 
BRANCH  17  26
ATOM     18  C   UNL     1       3.377   1.318  18.510  0.00  0.00    +0.000 C 
ATOM     19  C   UNL     1       3.270   2.816  18.405  0.00  0.00    +0.000 A 
ATOM     20  C   UNL     1       4.429   3.559  18.145  0.00  0.00    +0.000 A 
ATOM     21  C   UNL     1       4.346   4.956  17.950  0.00  0.00    +0.000 A 
ATOM     22  O   UNL     1       5.555   5.582  17.607  0.00  0.00    +0.000 OA
ATOM     23  C   UNL     1       5.557   6.911  17.195  0.00  0.00    +0.000 A 
ATOM     24  O   UNL     1       6.563   7.465  16.778  0.00  0.00    +0.000 OA
ATOM     25  C   UNL     1       4.288   7.639  17.293  0.00  0.00    +0.000 A 
ATOM     26  C   UNL     1       3.145   7.109  17.757  0.00  0.00    +0.000 A 
ATOM     27  C   UNL     1       3.140   5.646  18.033  0.00  0.00    +0.000 A 
ATOM     28  C   UNL     1       2.004   4.898  18.332  0.00  0.00    +0.000 A 
ATOM     29  C   UNL     1       2.047   3.489  18.511  0.00  0.00    +0.000 A 
ATOM     30  C   UNL     1       0.771   2.737  18.766  0.00  0.00    +0.000 C 
ENDBRANCH  17  26
ENDBRANCH   1  17
TORSDOF 3
ENDMDL
MODEL 3
REMARK VINA RESULT:      -9.3      3.834      7.835
REMARK  Name = 
REMARK  5 active torsions:
REMARK  status: ('A' for Active; 'I' for Inactive)
REMARK    1  A    between atoms: C_1  and  C_2
REMARK    2  A    between atoms: C_9  and  C_10
REMARK    3  A    between atoms: C_10  and  N_11
REMARK    4  A    between atoms: C_14  and  C_15
REMARK    5  A    between atoms: C_28  and  C_29
REMARK                            x       y       z     vdW  Elec       q    Type
REMARK                         _______ _______ _______ _____ _____    ______ ____
ROOT
ATOM      1  N   UNL     1       1.661   7.330  18.908  0.00  0.00    +0.000 NA
ATOM      2  C   UNL     1       1.863   6.585  17.666  0.00  0.00    +0.000 C 
ATOM      3  C   UNL     1       1.804   5.056  17.823  0.00  0.00    +0.000 C 
ATOM      4  C   UNL     1       2.806   4.492  18.842  0.00  0.00    +0.000 C 
ATOM      5  C   UNL     1       2.476   5.254  20.180  0.00  0.00    +0.000 C 
ATOM      6  C   UNL     1       2.364   6.805  20.076  0.00  0.00    +0.000 C 
ENDROOT
BRANCH   4   7
ATOM      7  C   UNL     1       4.311   4.634  18.493  0.00  0.00    +0.000 A 
ATOM      8  C   UNL     1       5.217   3.951  19.285  0.00  0.00    +0.000 A 
ATOM      9  N   UNL     1       6.308   3.824  18.463  0.00  0.00    +0.000 N 
ATOM     10  C   UNL     1       6.486   5.168  18.220  0.00  0.00    +0.000 A 
ATOM     11  C   UNL     1       7.519   6.028  18.525  0.00  0.00    +0.000 A 
ATOM     12  C   UNL     1       7.424   7.284  17.966  0.00  0.00    +0.000 A 
ATOM     13  C   UNL     1       6.413   7.542  17.027  0.00  0.00    +0.000 A 
ATOM     14  C   UNL     1       5.284   6.681  16.872  0.00  0.00    +0.000 A 
ATOM     15  C   UNL     1       5.218   5.556  17.734  0.00  0.00    +0.000 A 
ATOM     16  H   UNL     1       6.178   3.231  17.653  0.00  0.00    +0.000 HD
ENDBRANCH   4   7
BRANCH   1  17
ATOM     17  C   UNL     1       1.797   8.803  18.745  0.00  0.00    +0.000 C 
BRANCH  17  26
ATOM     18  C   UNL     1      -4.264  11.540  17.150  0.00  0.00    +0.000 C 
ATOM     19  C   UNL     1      -2.917  11.101  17.658  0.00  0.00    +0.000 A 
ATOM     20  C   UNL     1      -2.504  11.523  18.928  0.00  0.00    +0.000 A 
ATOM     21  C   UNL     1      -1.286  11.053  19.470  0.00  0.00    +0.000 A 
ATOM     22  O   UNL     1      -1.019  11.471  20.783  0.00  0.00    +0.000 OA
ATOM     23  C   UNL     1       0.042  10.911  21.488  0.00  0.00    +0.000 A 
ATOM     24  O   UNL     1       0.246  11.157  22.667  0.00  0.00    +0.000 OA
ATOM     25  C   UNL     1       0.931  10.011  20.747  0.00  0.00    +0.000 A 
ATOM     26  C   UNL     1       0.787   9.706  19.446  0.00  0.00    +0.000 A 
ATOM     27  C   UNL     1      -0.448  10.191  18.770  0.00  0.00    +0.000 A 
ATOM     28  C   UNL     1      -0.854   9.813  17.493  0.00  0.00    +0.000 A 
ATOM     29  C   UNL     1      -2.083  10.247  16.927  0.00  0.00    +0.000 A 
ATOM     30  C   UNL     1      -2.488   9.746  15.569  0.00  0.00    +0.000 C 
ENDBRANCH  17  26
ENDBRANCH   1  17
TORSDOF 3
ENDMDL
MODEL 4
REMARK VINA RESULT:      -9.1      3.732      7.843
REMARK  Name = 
REMARK  5 active torsions:
REMARK  status: ('A' for Active; 'I' for Inactive)
REMARK    1  A    between atoms: C_1  and  C_2
REMARK    2  A    between atoms: C_9  and  C_10
REMARK    3  A    between atoms: C_10  and  N_11
REMARK    4  A    between atoms: C_14  and  C_15
REMARK    5  A    between atoms: C_28  and  C_29
REMARK                            x       y       z     vdW  Elec       q    Type
REMARK                         _______ _______ _______ _____ _____    ______ ____
ROOT
ATOM      1  N   UNL     1       1.626   7.207  18.927  0.00  0.00    +0.000 NA
ATOM      2  C   UNL     1       1.839   6.435  17.704  0.00  0.00    +0.000 C 
ATOM      3  C   UNL     1       1.780   4.909  17.895  0.00  0.00    +0.000 C 
ATOM      4  C   UNL     1       2.774   4.369  18.935  0.00  0.00    +0.000 C 
ATOM      5  C   UNL     1       2.432   5.161  20.252  0.00  0.00    +0.000 C 
ATOM      6  C   UNL     1       2.320   6.709  20.113  0.00  0.00    +0.000 C 
ENDROOT
BRANCH   4   7
ATOM      7  C   UNL     1       4.282   4.505  18.596  0.00  0.00    +0.000 A 
ATOM      8  C   UNL     1       5.064   5.258  19.455  0.00  0.00    +0.000 A 
ATOM      9  N   UNL     1       6.325   4.766  19.231  0.00  0.00    +0.000 N 
ATOM     10  C   UNL     1       6.358   5.015  17.877  0.00  0.00    +0.000 A 
ATOM     11  C   UNL     1       7.154   5.843  17.114  0.00  0.00    +0.000 A 
ATOM     12  C   UNL     1       7.013   5.702  15.750  0.00  0.00    +0.000 A 
ATOM     13  C   UNL     1       6.227   4.654  15.246  0.00  0.00    +0.000 A 
ATOM     14  C   UNL     1       5.304   3.936  16.067  0.00  0.00    +0.000 A 
ATOM     15  C   UNL     1       5.199   4.350  17.420  0.00  0.00    +0.000 A 
ATOM     16  H   UNL     1       6.478   3.808  19.518  0.00  0.00    +0.000 HD
ENDBRANCH   4   7
BRANCH   1  17
ATOM     17  C   UNL     1       1.763   8.676  18.731  0.00  0.00    +0.000 C 
BRANCH  17  26
ATOM     18  C   UNL     1      -4.224  11.608  17.202  0.00  0.00    +0.000 C 
ATOM     19  C   UNL     1      -2.888  11.123  17.698  0.00  0.00    +0.000 A 
ATOM     20  C   UNL     1      -2.458  11.514  18.972  0.00  0.00    +0.000 A 
ATOM     21  C   UNL     1      -1.252  11.002  19.502  0.00  0.00    +0.000 A 
ATOM     22  O   UNL     1      -0.968  11.393  20.820  0.00  0.00    +0.000 OA
ATOM     23  C   UNL     1       0.079  10.793  21.512  0.00  0.00    +0.000 A 
ATOM     24  O   UNL     1       0.294  11.015  22.694  0.00  0.00    +0.000 OA
ATOM     25  C   UNL     1       0.939   9.879  20.754  0.00  0.00    +0.000 A 
ATOM     26  C   UNL     1       0.782   9.597  19.450  0.00  0.00    +0.000 A 
ATOM     27  C   UNL     1      -0.442  10.127  18.786  0.00  0.00    +0.000 A 
ATOM     28  C   UNL     1      -0.863   9.779  17.505  0.00  0.00    +0.000 A 
ATOM     29  C   UNL     1      -2.081  10.256  16.951  0.00  0.00    +0.000 A 
ATOM     30  C   UNL     1      -2.506   9.787  15.587  0.00  0.00    +0.000 C 
ENDBRANCH  17  26
ENDBRANCH   1  17
TORSDOF 3
ENDMDL
MODEL 5
REMARK VINA RESULT:      -9.0      3.873      7.099
REMARK  Name = 
REMARK  5 active torsions:
REMARK  status: ('A' for Active; 'I' for Inactive)
REMARK    1  A    between atoms: C_1  and  C_2
REMARK    2  A    between atoms: C_9  and  C_10
REMARK    3  A    between atoms: C_10  and  N_11
REMARK    4  A    between atoms: C_14  and  C_15
REMARK    5  A    between atoms: C_28  and  C_29
REMARK                            x       y       z     vdW  Elec       q    Type
REMARK                         _______ _______ _______ _____ _____    ______ ____
ROOT
ATOM      1  N   UNL     1       0.581   9.901  22.025  0.00  0.00    +0.000 NA
ATOM      2  C   UNL     1       1.010  10.793  20.950  0.00  0.00    +0.000 C 
ATOM      3  C   UNL     1       0.745  12.286  21.215  0.00  0.00    +0.000 C 
ATOM      4  C   UNL     1      -0.727  12.619  21.501  0.00  0.00    +0.000 C 
ATOM      5  C   UNL     1      -1.104  11.706  22.728  0.00  0.00    +0.000 C 
ATOM      6  C   UNL     1      -0.728  10.199  22.603  0.00  0.00    +0.000 C 
ENDROOT
BRANCH   4   7
ATOM      7  C   UNL     1      -1.729  12.406  20.337  0.00  0.00    +0.000 A 
ATOM      8  C   UNL     1      -3.072  12.612  20.605  0.00  0.00    +0.000 A 
ATOM      9  N   UNL     1      -3.594  12.880  19.365  0.00  0.00    +0.000 N 
ATOM     10  C   UNL     1      -3.186  11.712  18.761  0.00  0.00    +0.000 A 
ATOM     11  C   UNL     1      -3.896  10.664  18.214  0.00  0.00    +0.000 A 
ATOM     12  C   UNL     1      -3.141   9.732  17.536  0.00  0.00    +0.000 A 
ATOM     13  C   UNL     1      -1.779   9.985  17.310  0.00  0.00    +0.000 A 
ATOM     14  C   UNL     1      -1.065  10.992  18.030  0.00  0.00    +0.000 A 
ATOM     15  C   UNL     1      -1.796  11.714  19.009  0.00  0.00    +0.000 A 
ATOM     16  H   UNL     1      -3.283  13.743  18.937  0.00  0.00    +0.000 HD
ENDBRANCH   4   7
BRANCH   1  17
ATOM     17  C   UNL     1       0.778   8.459  21.713  0.00  0.00    +0.000 C 
BRANCH  17  26
ATOM     18  C   UNL     1       3.287   2.741  18.923  0.00  0.00    +0.000 C 
ATOM     19  C   UNL     1       2.864   4.110  19.387  0.00  0.00    +0.000 A 
ATOM     20  C   UNL     1       3.058   5.202  18.532  0.00  0.00    +0.000 A 
ATOM     21  C   UNL     1       2.588   6.483  18.901  0.00  0.00    +0.000 A 
ATOM     22  O   UNL     1       2.759   7.481  17.928  0.00  0.00    +0.000 OA
ATOM     23  C   UNL     1       2.156   8.724  18.097  0.00  0.00    +0.000 A 
ATOM     24  O   UNL     1       2.179   9.584  17.229  0.00  0.00    +0.000 OA
ATOM     25  C   UNL     1       1.494   8.974  19.381  0.00  0.00    +0.000 A 
ATOM     26  C   UNL     1       1.442   8.088  20.390  0.00  0.00    +0.000 A 
ATOM     27  C   UNL     1       1.951   6.717  20.115  0.00  0.00    +0.000 A 
ATOM     28  C   UNL     1       1.802   5.628  20.971  0.00  0.00    +0.000 A 
ATOM     29  C   UNL     1       2.241   4.322  20.622  0.00  0.00    +0.000 A 
ATOM     30  C   UNL     1       1.988   3.181  21.567  0.00  0.00    +0.000 C 
ENDBRANCH  17  26
ENDBRANCH   1  17
TORSDOF 3
ENDMDL
MODEL 6
REMARK VINA RESULT:      -9.0      2.449      7.272
REMARK  Name = 
REMARK  5 active torsions:
REMARK  status: ('A' for Active; 'I' for Inactive)
REMARK    1  A    between atoms: C_1  and  C_2
REMARK    2  A    between atoms: C_9  and  C_10
REMARK    3  A    between atoms: C_10  and  N_11
REMARK    4  A    between atoms: C_14  and  C_15
REMARK    5  A    between atoms: C_28  and  C_29
REMARK                            x       y       z     vdW  Elec       q    Type
REMARK                         _______ _______ _______ _____ _____    ______ ____
ROOT
ATOM      1  N   UNL     1       1.681   4.495  20.177  0.00  0.00    +0.000 NA
ATOM      2  C   UNL     1       1.429   4.527  18.738  0.00  0.00    +0.000 C 
ATOM      3  C   UNL     1       1.693   3.194  18.015  0.00  0.00    +0.000 C 
ATOM      4  C   UNL     1       3.119   2.653  18.200  0.00  0.00    +0.000 C 
ATOM      5  C   UNL     1       3.297   2.544  19.761  0.00  0.00    +0.000 C 
ATOM      6  C   UNL     1       2.903   3.806  20.586  0.00  0.00    +0.000 C 
ENDROOT
BRANCH   4   7
ATOM      7  C   UNL     1       4.269   3.489  17.579  0.00  0.00    +0.000 A 
ATOM      8  C   UNL     1       4.825   3.030  16.397  0.00  0.00    +0.000 A 
ATOM      9  N   UNL     1       5.365   4.167  15.852  0.00  0.00    +0.000 N 
ATOM     10  C   UNL     1       6.180   4.486  16.915  0.00  0.00    +0.000 A 
ATOM     11  C   UNL     1       7.552   4.565  17.031  0.00  0.00    +0.000 A 
ATOM     12  C   UNL     1       8.013   5.089  18.219  0.00  0.00    +0.000 A 
ATOM     13  C   UNL     1       7.097   5.641  19.127  0.00  0.00    +0.000 A 
ATOM     14  C   UNL     1       5.694   5.389  19.037  0.00  0.00    +0.000 A 
ATOM     15  C   UNL     1       5.267   4.528  17.992  0.00  0.00    +0.000 A 
ATOM     16  H   UNL     1       4.699   4.873  15.565  0.00  0.00    +0.000 HD
ENDBRANCH   4   7
BRANCH   1  17
ATOM     17  C   UNL     1       1.492   5.813  20.842  0.00  0.00    +0.000 C 
BRANCH  17  26
ATOM     18  C   UNL     1      -0.320  12.381  21.447  0.00  0.00    +0.000 C 
ATOM     19  C   UNL     1       0.099  10.979  21.092  0.00  0.00    +0.000 A 
ATOM     20  C   UNL     1       0.754  10.758  19.874  0.00  0.00    +0.000 A 
ATOM     21  C   UNL     1       1.242   9.470  19.554  0.00  0.00    +0.000 A 
ATOM     22  O   UNL     1       1.958   9.388  18.350  0.00  0.00    +0.000 OA
ATOM     23  C   UNL     1       2.654   8.225  18.034  0.00  0.00    +0.000 A 
ATOM     24  O   UNL     1       3.383   8.144  17.057  0.00  0.00    +0.000 OA
ATOM     25  C   UNL     1       2.466   7.075  18.925  0.00  0.00    +0.000 A 
ATOM     26  C   UNL     1       1.669   7.078  20.006  0.00  0.00    +0.000 A 
ATOM     27  C   UNL     1       1.072   8.382  20.404  0.00  0.00    +0.000 A 
ATOM     28  C   UNL     1       0.383   8.610  21.593  0.00  0.00    +0.000 A 
ATOM     29  C   UNL     1      -0.099   9.896  21.957  0.00  0.00    +0.000 A 
ATOM     30  C   UNL     1      -0.775  10.083  23.286  0.00  0.00    +0.000 C 
ENDBRANCH  17  26
ENDBRANCH   1  17
TORSDOF 3
ENDMDL
MODEL 7
REMARK VINA RESULT:      -8.9      3.521      5.691
REMARK  Name = 
REMARK  5 active torsions:
REMARK  status: ('A' for Active; 'I' for Inactive)
REMARK    1  A    between atoms: C_1  and  C_2
REMARK    2  A    between atoms: C_9  and  C_10
REMARK    3  A    between atoms: C_10  and  N_11
REMARK    4  A    between atoms: C_14  and  C_15
REMARK    5  A    between atoms: C_28  and  C_29
REMARK                            x       y       z     vdW  Elec       q    Type
REMARK                         _______ _______ _______ _____ _____    ______ ____
ROOT
ATOM      1  N   UNL     1       1.080   8.350  19.785  0.00  0.00    +0.000 NA
ATOM      2  C   UNL     1       0.360   9.108  20.807  0.00  0.00    +0.000 C 
ATOM      3  C   UNL     1      -0.740  10.035  20.257  0.00  0.00    +0.000 C 
ATOM      4  C   UNL     1      -0.240  11.054  19.222  0.00  0.00    +0.000 C 
ATOM      5  C   UNL     1       0.434  10.177  18.101  0.00  0.00    +0.000 C 
ATOM      6  C   UNL     1       1.452   9.103  18.590  0.00  0.00    +0.000 C 
ENDROOT
BRANCH   4   7
ATOM      7  C   UNL     1       0.747  12.138  19.731  0.00  0.00    +0.000 A 
ATOM      8  C   UNL     1       0.379  12.860  20.854  0.00  0.00    +0.000 A 
ATOM      9  N   UNL     1       1.584  13.294  21.346  0.00  0.00    +0.000 N 
ATOM     10  C   UNL     1       1.995  13.955  20.210  0.00  0.00    +0.000 A 
ATOM     11  C   UNL     1       2.253  15.286  19.963  0.00  0.00    +0.000 A 
ATOM     12  C   UNL     1       2.819  15.559  18.737  0.00  0.00    +0.000 A 
ATOM     13  C   UNL     1       3.236  14.496  17.922  0.00  0.00    +0.000 A 
ATOM     14  C   UNL     1       2.802  13.153  18.146  0.00  0.00    +0.000 A 
ATOM     15  C   UNL     1       1.905  12.946  19.226  0.00  0.00    +0.000 A 
ATOM     16  H   UNL     1       2.199  12.572  21.697  0.00  0.00    +0.000 HD
ENDBRANCH   4   7
BRANCH   1  17
ATOM     17  C   UNL     1       2.186   7.520  20.333  0.00  0.00    +0.000 C 
BRANCH  17  26
ATOM     18  C   UNL     1       5.476   3.784  15.643  0.00  0.00    +0.000 C 
ATOM     19  C   UNL     1       4.606   4.433  16.687  0.00  0.00    +0.000 A 
ATOM     20  C   UNL     1       3.746   3.628  17.444  0.00  0.00    +0.000 A 
ATOM     21  C   UNL     1       2.986   4.193  18.493  0.00  0.00    +0.000 A 
ATOM     22  O   UNL     1       2.228   3.277  19.239  0.00  0.00    +0.000 OA
ATOM     23  C   UNL     1       1.605   3.685  20.414  0.00  0.00    +0.000 A 
ATOM     24  O   UNL     1       1.031   2.902  21.156  0.00  0.00    +0.000 OA
ATOM     25  C   UNL     1       1.649   5.117  20.727  0.00  0.00    +0.000 A 
ATOM     26  C   UNL     1       2.241   6.043  19.954  0.00  0.00    +0.000 A 
ATOM     27  C   UNL     1       3.036   5.550  18.795  0.00  0.00    +0.000 A 
ATOM     28  C   UNL     1       3.866   6.344  18.007  0.00  0.00    +0.000 A 
ATOM     29  C   UNL     1       4.662   5.804  16.961  0.00  0.00    +0.000 A 
ATOM     30  C   UNL     1       5.585   6.709  16.194  0.00  0.00    +0.000 C 
ENDBRANCH  17  26
ENDBRANCH   1  17
TORSDOF 3
ENDMDL
MODEL 8
REMARK VINA RESULT:      -8.9      1.623      3.165
REMARK  Name = 
REMARK  5 active torsions:
REMARK  status: ('A' for Active; 'I' for Inactive)
REMARK    1  A    between atoms: C_1  and  C_2
REMARK    2  A    between atoms: C_9  and  C_10
REMARK    3  A    between atoms: C_10  and  N_11
REMARK    4  A    between atoms: C_14  and  C_15
REMARK    5  A    between atoms: C_28  and  C_29
REMARK                            x       y       z     vdW  Elec       q    Type
REMARK                         _______ _______ _______ _____ _____    ______ ____
ROOT
ATOM      1  N   UNL     1       3.580   2.291  18.297  0.00  0.00    +0.000 NA
ATOM      2  C   UNL     1       3.678   2.611  19.719  0.00  0.00    +0.000 C 
ATOM      3  C   UNL     1       2.325   2.721  20.444  0.00  0.00    +0.000 C 
ATOM      4  C   UNL     1       1.366   3.750  19.826  0.00  0.00    +0.000 C 
ATOM      5  C   UNL     1       1.218   3.297  18.325  0.00  0.00    +0.000 C 
ATOM      6  C   UNL     1       2.546   3.014  17.560  0.00  0.00    +0.000 C 
ENDROOT
BRANCH   4   7
ATOM      7  C   UNL     1       1.796   5.239  19.905  0.00  0.00    +0.000 A 
ATOM      8  C   UNL     1       1.102   6.058  20.779  0.00  0.00    +0.000 A 
ATOM      9  N   UNL     1       1.995   7.071  21.022  0.00  0.00    +0.000 N 
ATOM     10  C   UNL     1       2.167   7.456  19.711  0.00  0.00    +0.000 A 
ATOM     11  C   UNL     1       1.873   8.630  19.052  0.00  0.00    +0.000 A 
ATOM     12  C   UNL     1       2.349   8.716  17.762  0.00  0.00    +0.000 A 
ATOM     13  C   UNL     1       3.208   7.717  17.279  0.00  0.00    +0.000 A 
ATOM     14  C   UNL     1       3.346   6.455  17.934  0.00  0.00    +0.000 A 
ATOM     15  C   UNL     1       2.551   6.247  19.090  0.00  0.00    +0.000 A 
ATOM     16  H   UNL     1       2.831   6.805  21.529  0.00  0.00    +0.000 HD
ENDBRANCH   4   7
BRANCH   1  17
ATOM     17  C   UNL     1       4.896   2.264  17.602  0.00  0.00    +0.000 C 
BRANCH  17  26
ATOM     18  C   UNL     1       8.476   8.038  18.390  0.00  0.00    +0.000 C 
ATOM     19  C   UNL     1       7.592   6.871  18.040  0.00  0.00    +0.000 A 
ATOM     20  C   UNL     1       7.043   6.803  16.753  0.00  0.00    +0.000 A 
ATOM     21  C   UNL     1       6.285   5.675  16.365  0.00  0.00    +0.000 A 
ATOM     22  O   UNL     1       5.862   5.675  15.026  0.00  0.00    +0.000 OA
ATOM     23  C   UNL     1       5.288   4.532  14.479  0.00  0.00    +0.000 A 
ATOM     24  O   UNL     1       5.009   4.443  13.293  0.00  0.00    +0.000 OA
ATOM     25  C   UNL     1       5.012   3.422  15.397  0.00  0.00    +0.000 A 
ATOM     26  C   UNL     1       5.271   3.448  16.715  0.00  0.00    +0.000 A 
ATOM     27  C   UNL     1       6.032   4.618  17.233  0.00  0.00    +0.000 A 
ATOM     28  C   UNL     1       6.552   4.720  18.522  0.00  0.00    +0.000 A 
ATOM     29  C   UNL     1       7.338   5.828  18.938  0.00  0.00    +0.000 A 
ATOM     30  C   UNL     1       7.921   5.840  20.323  0.00  0.00    +0.000 C 
ENDBRANCH  17  26
ENDBRANCH   1  17
TORSDOF 3
ENDMDL
MODEL 9
REMARK VINA RESULT:      -8.9      2.549      7.146
REMARK  Name = 
REMARK  5 active torsions:
REMARK  status: ('A' for Active; 'I' for Inactive)
REMARK    1  A    between atoms: C_1  and  C_2
REMARK    2  A    between atoms: C_9  and  C_10
REMARK    3  A    between atoms: C_10  and  N_11
REMARK    4  A    between atoms: C_14  and  C_15
REMARK    5  A    between atoms: C_28  and  C_29
REMARK                            x       y       z     vdW  Elec       q    Type
REMARK                         _______ _______ _______ _____ _____    ______ ____
ROOT
ATOM      1  N   UNL     1       1.614   4.643  20.287  0.00  0.00    +0.000 NA
ATOM      2  C   UNL     1       1.602   4.684  18.826  0.00  0.00    +0.000 C 
ATOM      3  C   UNL     1       1.866   3.329  18.147  0.00  0.00    +0.000 C 
ATOM      4  C   UNL     1       3.191   2.670  18.558  0.00  0.00    +0.000 C 
ATOM      5  C   UNL     1       3.105   2.559  20.127  0.00  0.00    +0.000 C 
ATOM      6  C   UNL     1       2.691   3.856  20.884  0.00  0.00    +0.000 C 
ENDROOT
BRANCH   4   7
ATOM      7  C   UNL     1       4.493   3.401  18.137  0.00  0.00    +0.000 A 
ATOM      8  C   UNL     1       5.266   3.958  19.141  0.00  0.00    +0.000 A 
ATOM      9  N   UNL     1       6.511   4.023  18.568  0.00  0.00    +0.000 N 
ATOM     10  C   UNL     1       6.149   4.784  17.479  0.00  0.00    +0.000 A 
ATOM     11  C   UNL     1       6.515   6.052  17.080  0.00  0.00    +0.000 A 
ATOM     12  C   UNL     1       6.078   6.425  15.828  0.00  0.00    +0.000 A 
ATOM     13  C   UNL     1       5.459   5.472  15.006  0.00  0.00    +0.000 A 
ATOM     14  C   UNL     1       4.961   4.236  15.520  0.00  0.00    +0.000 A 
ATOM     15  C   UNL     1       5.101   4.024  16.916  0.00  0.00    +0.000 A 
ATOM     16  H   UNL     1       6.950   3.133  18.372  0.00  0.00    +0.000 HD
ENDBRANCH   4   7
BRANCH   1  17
ATOM     17  C   UNL     1       1.432   5.978  20.919  0.00  0.00    +0.000 C 
BRANCH  17  26
ATOM     18  C   UNL     1      -0.462  12.538  21.322  0.00  0.00    +0.000 C 
ATOM     19  C   UNL     1      -0.023  11.131  21.011  0.00  0.00    +0.000 A 
ATOM     20  C   UNL     1       0.647  10.885  19.806  0.00  0.00    +0.000 A 
ATOM     21  C   UNL     1       1.152   9.595  19.528  0.00  0.00    +0.000 A 
ATOM     22  O   UNL     1       1.882   9.487  18.333  0.00  0.00    +0.000 OA
ATOM     23  C   UNL     1       2.595   8.324  18.057  0.00  0.00    +0.000 A 
ATOM     24  O   UNL     1       3.335   8.225  17.090  0.00  0.00    +0.000 OA
ATOM     25  C   UNL     1       2.411   7.197  18.978  0.00  0.00    +0.000 A 
ATOM     26  C   UNL     1       1.602   7.221  20.050  0.00  0.00    +0.000 A 
ATOM     27  C   UNL     1       0.986   8.529  20.405  0.00  0.00    +0.000 A 
ATOM     28  C   UNL     1       0.283   8.781  21.581  0.00  0.00    +0.000 A 
ATOM     29  C   UNL     1      -0.218  10.071  21.904  0.00  0.00    +0.000 A 
ATOM     30  C   UNL     1      -0.910  10.286  23.221  0.00  0.00    +0.000 C 
ENDBRANCH  17  26
ENDBRANCH   1  17
TORSDOF 3
ENDMDL
