MODEL 1
REMARK VINA RESULT:      -8.9      0.000      0.000
REMARK  Name = 
REMARK  16 active torsions:
REMARK  status: ('A' for Active; 'I' for Inactive)
REMARK    1  A    between atoms: C_1  and  C_2
REMARK    2  A    between atoms: C_2  and  C_3
REMARK    3  A    between atoms: C_4  and  C_5
REMARK    4  A    between atoms: C_5  and  C_6
REMARK    5  A    between atoms: C_8  and  C_9
REMARK    6  A    between atoms: C_9  and  C_10
REMARK    7  A    between atoms: C_10  and  O_11
REMARK    8  A    between atoms: C_10  and  C_12
REMARK    9  A    between atoms: C_12  and  C_14
REMARK   10  A    between atoms: C_16  and  C_17
REMARK   11  A    between atoms: C_17  and  C_18
REMARK   12  A    between atoms: C_19  and  C_20
REMARK   13  A    between atoms: C_19  and  C_21
REMARK   14  A    between atoms: C_22  and  O_23
REMARK   15  A    between atoms: C_25  and  O_26
REMARK   16  A    between atoms: C_29  and  O_30
REMARK                            x       y       z     vdW  Elec       q    Type
REMARK                         _______ _______ _______ _____ _____    ______ ____
ROOT
ATOM      1  C   UNL     1       3.412   2.576  18.150  0.00  0.00    +0.000 C 
ENDROOT
BRANCH   1   2
ATOM      2  O   UNL     1       2.818   1.456  18.821  0.00  0.00    +0.000 OA
ATOM      3  H   UNL     1       1.902   1.710  19.035  0.00  0.00    +0.000 HD
ENDBRANCH   1   2
BRANCH   1   4
ATOM      4  C   UNL     1       2.328   3.620  17.847  0.00  0.00    +0.000 C 
ATOM      5  O   UNL     1       1.619   3.538  16.841  0.00  0.00    +0.000 OA
BRANCH   4   6
ATOM      6  C   UNL     1       2.163   4.795  18.759  0.00  0.00    +0.000 A 
ATOM      7  C   UNL     1       2.376   6.085  18.230  0.00  0.00    +0.000 A 
ATOM      8  C   UNL     1       2.243   7.234  19.034  0.00  0.00    +0.000 A 
ATOM      9  C   UNL     1       1.897   7.058  20.377  0.00  0.00    +0.000 A 
ATOM     10  C   UNL     1       1.633   5.801  20.902  0.00  0.00    +0.000 A 
ATOM     11  C   UNL     1       1.781   4.673  20.101  0.00  0.00    +0.000 A 
BRANCH   9  12
ATOM     12  O   UNL     1       1.799   8.101  21.254  0.00  0.00    +0.000 OA
ATOM     13  H   UNL     1       1.195   7.815  21.961  0.00  0.00    +0.000 HD
ENDBRANCH   9  12
BRANCH  11  14
ATOM     14  O   UNL     1       1.535   3.459  20.663  0.00  0.00    +0.000 OA
ATOM     15  H   UNL     1       2.249   3.233  21.288  0.00  0.00    +0.000 HD
ENDBRANCH  11  14
BRANCH   8  16
ATOM     16  C   UNL     1       2.410   8.606  18.421  0.00  0.00    +0.000 C 
BRANCH  16  17
ATOM     17  C   UNL     1       1.149   9.179  17.833  0.00  0.00    +0.000 C 
ATOM     18  C   UNL     1       0.249   9.994  18.422  0.00  0.00    +0.000 C 
ATOM     19  C   UNL     1       0.386  10.612  19.787  0.00  0.00    +0.000 C 
ATOM     20  C   UNL     1      -1.058  10.315  17.737  0.00  0.00    +0.000 C 
ENDBRANCH  16  17
ENDBRANCH   8  16
ENDBRANCH   4   6
ENDBRANCH   1   4
BRANCH   1  21
ATOM     21  C   UNL     1       4.501   3.177  19.055  0.00  0.00    +0.000 C 
BRANCH  21  24
ATOM     22  C   UNL     1       6.579   4.946  16.339  0.00  0.00    +0.000 A 
ATOM     23  C   UNL     1       5.762   4.007  16.995  0.00  0.00    +0.000 A 
ATOM     24  C   UNL     1       5.410   4.162  18.346  0.00  0.00    +0.000 A 
ATOM     25  C   UNL     1       5.878   5.285  19.039  0.00  0.00    +0.000 A 
ATOM     26  C   UNL     1       6.700   6.217  18.406  0.00  0.00    +0.000 A 
ATOM     27  C   UNL     1       7.047   6.042  17.068  0.00  0.00    +0.000 A 
BRANCH  27  28
ATOM     28  O   UNL     1       7.853   6.956  16.450  0.00  0.00    +0.000 OA
ATOM     29  H   UNL     1       8.257   6.536  15.674  0.00  0.00    +0.000 HD
ENDBRANCH  27  28
BRANCH  22  30
ATOM     30  C   UNL     1       6.934   4.747  14.883  0.00  0.00    +0.000 C 
BRANCH  30  34
ATOM     31  C   UNL     1       4.647   3.174  12.126  0.00  0.00    +0.000 C 
ATOM     32  C   UNL     1       5.860   3.764  12.786  0.00  0.00    +0.000 C 
ATOM     33  C   UNL     1       7.114   3.860  11.961  0.00  0.00    +0.000 C 
ATOM     34  C   UNL     1       5.805   4.178  14.066  0.00  0.00    +0.000 C 
ENDBRANCH  30  34
ENDBRANCH  22  30
ENDBRANCH  21  24
ENDBRANCH   1  21
TORSDOF 12
ENDMDL
MODEL 2
REMARK VINA RESULT:      -8.4      1.502      7.888
REMARK  Name = 
REMARK  16 active torsions:
REMARK  status: ('A' for Active; 'I' for Inactive)
REMARK    1  A    between atoms: C_1  and  C_2
REMARK    2  A    between atoms: C_2  and  C_3
REMARK    3  A    between atoms: C_4  and  C_5
REMARK    4  A    between atoms: C_5  and  C_6
REMARK    5  A    between atoms: C_8  and  C_9
REMARK    6  A    between atoms: C_9  and  C_10
REMARK    7  A    between atoms: C_10  and  O_11
REMARK    8  A    between atoms: C_10  and  C_12
REMARK    9  A    between atoms: C_12  and  C_14
REMARK   10  A    between atoms: C_16  and  C_17
REMARK   11  A    between atoms: C_17  and  C_18
REMARK   12  A    between atoms: C_19  and  C_20
REMARK   13  A    between atoms: C_19  and  C_21
REMARK   14  A    between atoms: C_22  and  O_23
REMARK   15  A    between atoms: C_25  and  O_26
REMARK   16  A    between atoms: C_29  and  O_30
REMARK                            x       y       z     vdW  Elec       q    Type
REMARK                         _______ _______ _______ _____ _____    ______ ____
ROOT
ATOM      1  C   UNL     1       2.849   4.706  18.940  0.00  0.00    +0.000 C 
ENDROOT
BRANCH   1   2
ATOM      2  O   UNL     1       1.586   4.377  18.346  0.00  0.00    +0.000 OA
ATOM      3  H   UNL     1       1.779   3.842  17.555  0.00  0.00    +0.000 HD
ENDBRANCH   1   2
BRANCH   1   4
ATOM      4  C   UNL     1       3.914   3.712  18.454  0.00  0.00    +0.000 C 
ATOM      5  O   UNL     1       3.944   2.550  18.866  0.00  0.00    +0.000 OA
BRANCH   4   6
ATOM      6  C   UNL     1       4.974   4.175  17.505  0.00  0.00    +0.000 A 
ATOM      7  C   UNL     1       4.691   4.146  16.123  0.00  0.00    +0.000 A 
ATOM      8  C   UNL     1       5.645   4.562  15.174  0.00  0.00    +0.000 A 
ATOM      9  C   UNL     1       6.886   5.004  15.643  0.00  0.00    +0.000 A 
ATOM     10  C   UNL     1       7.164   5.089  17.000  0.00  0.00    +0.000 A 
ATOM     11  C   UNL     1       6.218   4.662  17.926  0.00  0.00    +0.000 A 
BRANCH   9  12
ATOM     12  O   UNL     1       7.899   5.374  14.805  0.00  0.00    +0.000 OA
ATOM     13  H   UNL     1       8.700   5.452  15.352  0.00  0.00    +0.000 HD
ENDBRANCH   9  12
BRANCH  11  14
ATOM     14  O   UNL     1       6.541   4.740  19.245  0.00  0.00    +0.000 OA
ATOM     15  H   UNL     1       6.276   3.919  19.700  0.00  0.00    +0.000 HD
ENDBRANCH  11  14
BRANCH   8  16
ATOM     16  C   UNL     1       5.287   4.584  13.706  0.00  0.00    +0.000 C 
BRANCH  16  17
ATOM     17  C   UNL     1       5.895   3.467  12.903  0.00  0.00    +0.000 C 
ATOM     18  C   UNL     1       5.361   2.804  11.856  0.00  0.00    +0.000 C 
ATOM     19  C   UNL     1       4.059   3.137  11.179  0.00  0.00    +0.000 C 
ATOM     20  C   UNL     1       6.043   1.580  11.294  0.00  0.00    +0.000 C 
ENDBRANCH  16  17
ENDBRANCH   8  16
ENDBRANCH   4   6
ENDBRANCH   1   4
BRANCH   1  21
ATOM     21  C   UNL     1       3.229   6.141  18.536  0.00  0.00    +0.000 C 
BRANCH  21  24
ATOM     22  C   UNL     1       1.017   9.242  19.102  0.00  0.00    +0.000 A 
ATOM     23  C   UNL     1       1.829   8.278  18.478  0.00  0.00    +0.000 A 
ATOM     24  C   UNL     1       2.382   7.208  19.203  0.00  0.00    +0.000 A 
ATOM     25  C   UNL     1       2.099   7.104  20.570  0.00  0.00    +0.000 A 
ATOM     26  C   UNL     1       1.307   8.061  21.205  0.00  0.00    +0.000 A 
ATOM     27  C   UNL     1       0.776   9.121  20.473  0.00  0.00    +0.000 A 
BRANCH  27  28
ATOM     28  O   UNL     1       0.001  10.057  21.097  0.00  0.00    +0.000 OA
ATOM     29  H   UNL     1      -0.211   9.738  21.988  0.00  0.00    +0.000 HD
ENDBRANCH  27  28
BRANCH  22  30
ATOM     30  C   UNL     1       0.438  10.377  18.289  0.00  0.00    +0.000 C 
BRANCH  30  34
ATOM     31  C   UNL     1      -3.293  10.183  17.129  0.00  0.00    +0.000 C 
ATOM     32  C   UNL     1      -2.074  10.608  17.895  0.00  0.00    +0.000 C 
ATOM     33  C   UNL     1      -2.252  11.685  18.930  0.00  0.00    +0.000 C 
ATOM     34  C   UNL     1      -0.880  10.038  17.645  0.00  0.00    +0.000 C 
ENDBRANCH  30  34
ENDBRANCH  22  30
ENDBRANCH  21  24
ENDBRANCH   1  21
TORSDOF 12
ENDMDL
MODEL 3
REMARK VINA RESULT:      -8.1      1.880      7.951
REMARK  Name = 
REMARK  16 active torsions:
REMARK  status: ('A' for Active; 'I' for Inactive)
REMARK    1  A    between atoms: C_1  and  C_2
REMARK    2  A    between atoms: C_2  and  C_3
REMARK    3  A    between atoms: C_4  and  C_5
REMARK    4  A    between atoms: C_5  and  C_6
REMARK    5  A    between atoms: C_8  and  C_9
REMARK    6  A    between atoms: C_9  and  C_10
REMARK    7  A    between atoms: C_10  and  O_11
REMARK    8  A    between atoms: C_10  and  C_12
REMARK    9  A    between atoms: C_12  and  C_14
REMARK   10  A    between atoms: C_16  and  C_17
REMARK   11  A    between atoms: C_17  and  C_18
REMARK   12  A    between atoms: C_19  and  C_20
REMARK   13  A    between atoms: C_19  and  C_21
REMARK   14  A    between atoms: C_22  and  O_23
REMARK   15  A    between atoms: C_25  and  O_26
REMARK   16  A    between atoms: C_29  and  O_30
REMARK                            x       y       z     vdW  Elec       q    Type
REMARK                         _______ _______ _______ _____ _____    ______ ____
ROOT
ATOM      1  C   UNL     1       2.723   4.897  18.802  0.00  0.00    +0.000 C 
ENDROOT
BRANCH   1   2
ATOM      2  O   UNL     1       1.672   4.339  18.002  0.00  0.00    +0.000 OA
ATOM      3  H   UNL     1       1.413   5.026  17.362  0.00  0.00    +0.000 HD
ENDBRANCH   1   2
BRANCH   1   4
ATOM      4  C   UNL     1       3.975   4.015  18.683  0.00  0.00    +0.000 C 
ATOM      5  O   UNL     1       4.166   3.064  19.444  0.00  0.00    +0.000 OA
BRANCH   4   6
ATOM      6  C   UNL     1       5.015   4.350  17.661  0.00  0.00    +0.000 A 
ATOM      7  C   UNL     1       4.662   4.265  16.298  0.00  0.00    +0.000 A 
ATOM      8  C   UNL     1       5.594   4.560  15.283  0.00  0.00    +0.000 A 
ATOM      9  C   UNL     1       6.884   4.938  15.667  0.00  0.00    +0.000 A 
ATOM     10  C   UNL     1       7.234   5.077  17.002  0.00  0.00    +0.000 A 
ATOM     11  C   UNL     1       6.309   4.770  17.995  0.00  0.00    +0.000 A 
BRANCH   9  12
ATOM     12  O   UNL     1       7.876   5.189  14.763  0.00  0.00    +0.000 OA
ATOM     13  H   UNL     1       7.609   4.764  13.930  0.00  0.00    +0.000 HD
ENDBRANCH   9  12
BRANCH  11  14
ATOM     14  O   UNL     1       6.702   4.897  19.291  0.00  0.00    +0.000 OA
ATOM     15  H   UNL     1       5.938   4.767  19.883  0.00  0.00    +0.000 HD
ENDBRANCH  11  14
BRANCH   8  16
ATOM     16  C   UNL     1       5.164   4.527  13.834  0.00  0.00    +0.000 C 
BRANCH  16  17
ATOM     17  C   UNL     1       5.841   3.464  13.011  0.00  0.00    +0.000 C 
ATOM     18  C   UNL     1       5.379   2.845  11.905  0.00  0.00    +0.000 C 
ATOM     19  C   UNL     1       4.110   3.187  11.173  0.00  0.00    +0.000 C 
ATOM     20  C   UNL     1       6.119   1.665  11.321  0.00  0.00    +0.000 C 
ENDBRANCH  16  17
ENDBRANCH   8  16
ENDBRANCH   4   6
ENDBRANCH   1   4
BRANCH   1  21
ATOM     21  C   UNL     1       3.020   6.323  18.309  0.00  0.00    +0.000 C 
BRANCH  21  24
ATOM     22  C   UNL     1       1.180   9.589  19.187  0.00  0.00    +0.000 A 
ATOM     23  C   UNL     1       1.895   8.611  18.474  0.00  0.00    +0.000 A 
ATOM     24  C   UNL     1       2.281   7.402  19.077  0.00  0.00    +0.000 A 
ATOM     25  C   UNL     1       1.928   7.174  20.412  0.00  0.00    +0.000 A 
ATOM     26  C   UNL     1       1.231   8.140  21.137  0.00  0.00    +0.000 A 
ATOM     27  C   UNL     1       0.865   9.338  20.526  0.00  0.00    +0.000 A 
BRANCH  27  28
ATOM     28  O   UNL     1       0.184  10.284  21.237  0.00  0.00    +0.000 OA
ATOM     29  H   UNL     1       0.603  10.377  22.107  0.00  0.00    +0.000 HD
ENDBRANCH  27  28
BRANCH  22  30
ATOM     30  C   UNL     1       0.780  10.877  18.504  0.00  0.00    +0.000 C 
BRANCH  30  34
ATOM     31  C   UNL     1       3.224  13.930  18.394  0.00  0.00    +0.000 C 
ATOM     32  C   UNL     1       1.975  13.129  18.627  0.00  0.00    +0.000 C 
ATOM     33  C   UNL     1       0.803  13.845  19.242  0.00  0.00    +0.000 C 
ATOM     34  C   UNL     1       1.931  11.825  18.297  0.00  0.00    +0.000 C 
ENDBRANCH  30  34
ENDBRANCH  22  30
ENDBRANCH  21  24
ENDBRANCH   1  21
TORSDOF 12
ENDMDL
MODEL 4
REMARK VINA RESULT:      -8.1      1.232      7.173
REMARK  Name = 
REMARK  16 active torsions:
REMARK  status: ('A' for Active; 'I' for Inactive)
REMARK    1  A    between atoms: C_1  and  C_2
REMARK    2  A    between atoms: C_2  and  C_3
REMARK    3  A    between atoms: C_4  and  C_5
REMARK    4  A    between atoms: C_5  and  C_6
REMARK    5  A    between atoms: C_8  and  C_9
REMARK    6  A    between atoms: C_9  and  C_10
REMARK    7  A    between atoms: C_10  and  O_11
REMARK    8  A    between atoms: C_10  and  C_12
REMARK    9  A    between atoms: C_12  and  C_14
REMARK   10  A    between atoms: C_16  and  C_17
REMARK   11  A    between atoms: C_17  and  C_18
REMARK   12  A    between atoms: C_19  and  C_20
REMARK   13  A    between atoms: C_19  and  C_21
REMARK   14  A    between atoms: C_22  and  O_23
REMARK   15  A    between atoms: C_25  and  O_26
REMARK   16  A    between atoms: C_29  and  O_30
REMARK                            x       y       z     vdW  Elec       q    Type
REMARK                         _______ _______ _______ _____ _____    ______ ____
ROOT
ATOM      1  C   UNL     1       2.803   2.781  18.285  0.00  0.00    +0.000 C 
ENDROOT
BRANCH   1   2
ATOM      2  O   UNL     1       2.728   1.690  17.358  0.00  0.00    +0.000 OA
ATOM      3  H   UNL     1       3.372   1.023  17.657  0.00  0.00    +0.000 HD
ENDBRANCH   1   2
BRANCH   1   4
ATOM      4  C   UNL     1       4.262   2.980  18.719  0.00  0.00    +0.000 C 
ATOM      5  O   UNL     1       4.699   2.475  19.756  0.00  0.00    +0.000 OA
BRANCH   4   6
ATOM      6  C   UNL     1       5.161   3.852  17.899  0.00  0.00    +0.000 A 
ATOM      7  C   UNL     1       5.467   3.445  16.584  0.00  0.00    +0.000 A 
ATOM      8  C   UNL     1       6.310   4.215  15.759  0.00  0.00    +0.000 A 
ATOM      9  C   UNL     1       6.840   5.397  16.285  0.00  0.00    +0.000 A 
ATOM     10  C   UNL     1       6.509   5.840  17.558  0.00  0.00    +0.000 A 
ATOM     11  C   UNL     1       5.685   5.064  18.367  0.00  0.00    +0.000 A 
BRANCH   9  12
ATOM     12  O   UNL     1       7.713   6.185  15.590  0.00  0.00    +0.000 OA
ATOM     13  H   UNL     1       8.323   6.568  16.243  0.00  0.00    +0.000 HD
ENDBRANCH   9  12
BRANCH  11  14
ATOM     14  O   UNL     1       5.406   5.524  19.616  0.00  0.00    +0.000 OA
ATOM     15  H   UNL     1       4.443   5.506  19.768  0.00  0.00    +0.000 HD
ENDBRANCH  11  14
BRANCH   8  16
ATOM     16  C   UNL     1       6.563   3.787  14.331  0.00  0.00    +0.000 C 
BRANCH  16  17
ATOM     17  C   UNL     1       5.360   3.883  13.433  0.00  0.00    +0.000 C 
ATOM     18  C   UNL     1       5.139   3.247  12.264  0.00  0.00    +0.000 C 
ATOM     19  C   UNL     1       6.021   2.189  11.660  0.00  0.00    +0.000 C 
ATOM     20  C   UNL     1       3.953   3.614  11.404  0.00  0.00    +0.000 C 
ENDBRANCH  16  17
ENDBRANCH   8  16
ENDBRANCH   4   6
ENDBRANCH   1   4
BRANCH   1  21
ATOM     21  C   UNL     1       2.266   4.051  17.602  0.00  0.00    +0.000 C 
BRANCH  21  24
ATOM     22  C   UNL     1       2.046   7.662  18.920  0.00  0.00    +0.000 A 
ATOM     23  C   UNL     1       2.185   6.565  18.052  0.00  0.00    +0.000 A 
ATOM     24  C   UNL     1       2.154   5.244  18.531  0.00  0.00    +0.000 A 
ATOM     25  C   UNL     1       1.967   5.030  19.902  0.00  0.00    +0.000 A 
ATOM     26  C   UNL     1       1.841   6.109  20.778  0.00  0.00    +0.000 A 
ATOM     27  C   UNL     1       1.885   7.412  20.286  0.00  0.00    +0.000 A 
BRANCH  27  28
ATOM     28  O   UNL     1       1.763   8.467  21.144  0.00  0.00    +0.000 OA
ATOM     29  H   UNL     1       0.838   8.526  21.431  0.00  0.00    +0.000 HD
ENDBRANCH  27  28
BRANCH  22  30
ATOM     30  C   UNL     1       2.082   9.068  18.367  0.00  0.00    +0.000 C 
BRANCH  30  34
ATOM     31  C   UNL     1      -0.994  11.485  18.402  0.00  0.00    +0.000 C 
ATOM     32  C   UNL     1       0.410  10.985  18.584  0.00  0.00    +0.000 C 
ATOM     33  C   UNL     1       1.427  11.964  19.104  0.00  0.00    +0.000 C 
ATOM     34  C   UNL     1       0.723   9.711  18.283  0.00  0.00    +0.000 C 
ENDBRANCH  30  34
ENDBRANCH  22  30
ENDBRANCH  21  24
ENDBRANCH   1  21
TORSDOF 12
ENDMDL
MODEL 5
REMARK VINA RESULT:      -7.8      1.906      8.189
REMARK  Name = 
REMARK  16 active torsions:
REMARK  status: ('A' for Active; 'I' for Inactive)
REMARK    1  A    between atoms: C_1  and  C_2
REMARK    2  A    between atoms: C_2  and  C_3
REMARK    3  A    between atoms: C_4  and  C_5
REMARK    4  A    between atoms: C_5  and  C_6
REMARK    5  A    between atoms: C_8  and  C_9
REMARK    6  A    between atoms: C_9  and  C_10
REMARK    7  A    between atoms: C_10  and  O_11
REMARK    8  A    between atoms: C_10  and  C_12
REMARK    9  A    between atoms: C_12  and  C_14
REMARK   10  A    between atoms: C_16  and  C_17
REMARK   11  A    between atoms: C_17  and  C_18
REMARK   12  A    between atoms: C_19  and  C_20
REMARK   13  A    between atoms: C_19  and  C_21
REMARK   14  A    between atoms: C_22  and  O_23
REMARK   15  A    between atoms: C_25  and  O_26
REMARK   16  A    between atoms: C_29  and  O_30
REMARK                            x       y       z     vdW  Elec       q    Type
REMARK                         _______ _______ _______ _____ _____    ______ ____
ROOT
ATOM      1  C   UNL     1       2.354   7.147  18.331  0.00  0.00    +0.000 C 
ENDROOT
BRANCH   1   2
ATOM      2  O   UNL     1       3.371   8.030  17.838  0.00  0.00    +0.000 OA
ATOM      3  H   UNL     1       3.743   8.490  18.611  0.00  0.00    +0.000 HD
ENDBRANCH   1   2
BRANCH   1   4
ATOM      4  C   UNL     1       2.701   5.703  17.940  0.00  0.00    +0.000 C 
ATOM      5  O   UNL     1       1.825   4.844  17.811  0.00  0.00    +0.000 OA
BRANCH   4   6
ATOM      6  C   UNL     1       4.135   5.313  17.766  0.00  0.00    +0.000 A 
ATOM      7  C   UNL     1       4.632   5.166  16.453  0.00  0.00    +0.000 A 
ATOM      8  C   UNL     1       5.970   4.795  16.217  0.00  0.00    +0.000 A 
ATOM      9  C   UNL     1       6.794   4.574  17.325  0.00  0.00    +0.000 A 
ATOM     10  C   UNL     1       6.338   4.764  18.622  0.00  0.00    +0.000 A 
ATOM     11  C   UNL     1       5.010   5.118  18.841  0.00  0.00    +0.000 A 
BRANCH   9  12
ATOM     12  O   UNL     1       8.089   4.156  17.207  0.00  0.00    +0.000 OA
ATOM     13  H   UNL     1       8.591   4.903  16.836  0.00  0.00    +0.000 HD
ENDBRANCH   9  12
BRANCH  11  14
ATOM     14  O   UNL     1       4.598   5.270  20.129  0.00  0.00    +0.000 OA
ATOM     15  H   UNL     1       4.329   4.408  20.495  0.00  0.00    +0.000 HD
ENDBRANCH  11  14
BRANCH   8  16
ATOM     16  C   UNL     1       6.490   4.713  14.801  0.00  0.00    +0.000 C 
BRANCH  16  17
ATOM     17  C   UNL     1       5.598   3.955  13.856  0.00  0.00    +0.000 C 
ATOM     18  C   UNL     1       5.829   3.635  12.566  0.00  0.00    +0.000 C 
ATOM     19  C   UNL     1       7.114   3.872  11.819  0.00  0.00    +0.000 C 
ATOM     20  C   UNL     1       4.734   3.034  11.717  0.00  0.00    +0.000 C 
ENDBRANCH  16  17
ENDBRANCH   8  16
ENDBRANCH   4   6
ENDBRANCH   1   4
BRANCH   1  21
ATOM     21  C   UNL     1       2.274   7.286  19.861  0.00  0.00    +0.000 C 
BRANCH  21  24
ATOM     22  C   UNL     1      -0.002  10.392  19.860  0.00  0.00    +0.000 A 
ATOM     23  C   UNL     1       0.832   9.349  19.420  0.00  0.00    +0.000 A 
ATOM     24  C   UNL     1       1.402   8.437  20.325  0.00  0.00    +0.000 A 
ATOM     25  C   UNL     1       1.115   8.573  21.688  0.00  0.00    +0.000 A 
ATOM     26  C   UNL     1       0.301   9.611  22.141  0.00  0.00    +0.000 A 
ATOM     27  C   UNL     1      -0.248  10.512  21.231  0.00  0.00    +0.000 A 
BRANCH  27  28
ATOM     28  O   UNL     1      -1.044  11.529  21.676  0.00  0.00    +0.000 OA
ATOM     29  H   UNL     1      -1.964  11.220  21.684  0.00  0.00    +0.000 HD
ENDBRANCH  27  28
BRANCH  22  30
ATOM     30  C   UNL     1      -0.599  11.352  18.857  0.00  0.00    +0.000 C 
BRANCH  30  34
ATOM     31  C   UNL     1      -4.306  10.595  17.860  0.00  0.00    +0.000 C 
ATOM     32  C   UNL     1      -2.807  10.643  17.789  0.00  0.00    +0.000 C 
ATOM     33  C   UNL     1      -2.153   9.981  16.607  0.00  0.00    +0.000 C 
ATOM     34  C   UNL     1      -2.099  11.254  18.757  0.00  0.00    +0.000 C 
ENDBRANCH  30  34
ENDBRANCH  22  30
ENDBRANCH  21  24
ENDBRANCH   1  21
TORSDOF 12
ENDMDL
MODEL 6
REMARK VINA RESULT:      -7.8      1.386      7.562
REMARK  Name = 
REMARK  16 active torsions:
REMARK  status: ('A' for Active; 'I' for Inactive)
REMARK    1  A    between atoms: C_1  and  C_2
REMARK    2  A    between atoms: C_2  and  C_3
REMARK    3  A    between atoms: C_4  and  C_5
REMARK    4  A    between atoms: C_5  and  C_6
REMARK    5  A    between atoms: C_8  and  C_9
REMARK    6  A    between atoms: C_9  and  C_10
REMARK    7  A    between atoms: C_10  and  O_11
REMARK    8  A    between atoms: C_10  and  C_12
REMARK    9  A    between atoms: C_12  and  C_14
REMARK   10  A    between atoms: C_16  and  C_17
REMARK   11  A    between atoms: C_17  and  C_18
REMARK   12  A    between atoms: C_19  and  C_20
REMARK   13  A    between atoms: C_19  and  C_21
REMARK   14  A    between atoms: C_22  and  O_23
REMARK   15  A    between atoms: C_25  and  O_26
REMARK   16  A    between atoms: C_29  and  O_30
REMARK                            x       y       z     vdW  Elec       q    Type
REMARK                         _______ _______ _______ _____ _____    ______ ____
ROOT
ATOM      1  C   UNL     1       2.777   4.010  19.151  0.00  0.00    +0.000 C 
ENDROOT
BRANCH   1   2
ATOM      2  O   UNL     1       1.658   3.118  19.248  0.00  0.00    +0.000 OA
ATOM      3  H   UNL     1       1.945   2.266  18.873  0.00  0.00    +0.000 HD
ENDBRANCH   1   2
BRANCH   1   4
ATOM      4  C   UNL     1       3.993   3.244  18.611  0.00  0.00    +0.000 C 
ATOM      5  O   UNL     1       4.196   2.065  18.912  0.00  0.00    +0.000 OA
BRANCH   4   6
ATOM      6  C   UNL     1       4.986   3.955  17.745  0.00  0.00    +0.000 A 
ATOM      7  C   UNL     1       4.764   3.973  16.352  0.00  0.00    +0.000 A 
ATOM      8  C   UNL     1       5.661   4.620  15.479  0.00  0.00    +0.000 A 
ATOM      9  C   UNL     1       6.783   5.243  16.035  0.00  0.00    +0.000 A 
ATOM     10  C   UNL     1       6.990   5.280  17.407  0.00  0.00    +0.000 A 
ATOM     11  C   UNL     1       6.103   4.626  18.257  0.00  0.00    +0.000 A 
BRANCH   9  12
ATOM     12  O   UNL     1       7.742   5.846  15.273  0.00  0.00    +0.000 OA
ATOM     13  H   UNL     1       7.996   5.206  14.586  0.00  0.00    +0.000 HD
ENDBRANCH   9  12
BRANCH  11  14
ATOM     14  O   UNL     1       6.357   4.668  19.593  0.00  0.00    +0.000 OA
ATOM     15  H   UNL     1       7.161   4.152  19.793  0.00  0.00    +0.000 HD
ENDBRANCH  11  14
BRANCH   8  16
ATOM     16  C   UNL     1       5.360   4.680  13.999  0.00  0.00    +0.000 C 
BRANCH  16  17
ATOM     17  C   UNL     1       6.079   3.646  13.177  0.00  0.00    +0.000 C 
ATOM     18  C   UNL     1       5.621   2.965  12.106  0.00  0.00    +0.000 C 
ATOM     19  C   UNL     1       4.303   3.195  11.418  0.00  0.00    +0.000 C 
ATOM     20  C   UNL     1       6.421   1.825  11.523  0.00  0.00    +0.000 C 
ENDBRANCH  16  17
ENDBRANCH   8  16
ENDBRANCH   4   6
ENDBRANCH   1   4
BRANCH   1  21
ATOM     21  C   UNL     1       2.409   5.169  18.208  0.00  0.00    +0.000 C 
BRANCH  21  24
ATOM     22  C   UNL     1       1.567   8.859  18.916  0.00  0.00    +0.000 A 
ATOM     23  C   UNL     1       1.908   7.674  18.240  0.00  0.00    +0.000 A 
ATOM     24  C   UNL     1       2.077   6.461  18.929  0.00  0.00    +0.000 A 
ATOM     25  C   UNL     1       1.888   6.444  20.316  0.00  0.00    +0.000 A 
ATOM     26  C   UNL     1       1.564   7.614  21.003  0.00  0.00    +0.000 A 
ATOM     27  C   UNL     1       1.409   8.810  20.304  0.00  0.00    +0.000 A 
BRANCH  27  28
ATOM     28  O   UNL     1       1.093   9.955  20.978  0.00  0.00    +0.000 OA
ATOM     29  H   UNL     1       1.540  10.700  20.547  0.00  0.00    +0.000 HD
ENDBRANCH  27  28
BRANCH  22  30
ATOM     30  C   UNL     1       1.390  10.144  18.140  0.00  0.00    +0.000 C 
BRANCH  30  34
ATOM     31  C   UNL     1      -2.123  11.713  18.852  0.00  0.00    +0.000 C 
ATOM     32  C   UNL     1      -1.066  10.831  18.251  0.00  0.00    +0.000 C 
ATOM     33  C   UNL     1      -1.517   9.802  17.250  0.00  0.00    +0.000 C 
ATOM     34  C   UNL     1       0.223  10.970  18.612  0.00  0.00    +0.000 C 
ENDBRANCH  30  34
ENDBRANCH  22  30
ENDBRANCH  21  24
ENDBRANCH   1  21
TORSDOF 12
ENDMDL
MODEL 7
REMARK VINA RESULT:      -7.7      1.101      1.520
REMARK  Name = 
REMARK  16 active torsions:
REMARK  status: ('A' for Active; 'I' for Inactive)
REMARK    1  A    between atoms: C_1  and  C_2
REMARK    2  A    between atoms: C_2  and  C_3
REMARK    3  A    between atoms: C_4  and  C_5
REMARK    4  A    between atoms: C_5  and  C_6
REMARK    5  A    between atoms: C_8  and  C_9
REMARK    6  A    between atoms: C_9  and  C_10
REMARK    7  A    between atoms: C_10  and  O_11
REMARK    8  A    between atoms: C_10  and  C_12
REMARK    9  A    between atoms: C_12  and  C_14
REMARK   10  A    between atoms: C_16  and  C_17
REMARK   11  A    between atoms: C_17  and  C_18
REMARK   12  A    between atoms: C_19  and  C_20
REMARK   13  A    between atoms: C_19  and  C_21
REMARK   14  A    between atoms: C_22  and  O_23
REMARK   15  A    between atoms: C_25  and  O_26
REMARK   16  A    between atoms: C_29  and  O_30
REMARK                            x       y       z     vdW  Elec       q    Type
REMARK                         _______ _______ _______ _____ _____    ______ ____
ROOT
ATOM      1  C   UNL     1       4.366   2.726  18.756  0.00  0.00    +0.000 C 
ENDROOT
BRANCH   1   2
ATOM      2  O   UNL     1       4.706   1.796  19.794  0.00  0.00    +0.000 OA
ATOM      3  H   UNL     1       4.389   0.923  19.503  0.00  0.00    +0.000 HD
ENDBRANCH   1   2
BRANCH   1   4
ATOM      4  C   UNL     1       2.892   3.132  18.900  0.00  0.00    +0.000 C 
ATOM      5  O   UNL     1       1.982   2.390  18.524  0.00  0.00    +0.000 OA
BRANCH   4   6
ATOM      6  C   UNL     1       2.552   4.479  19.455  0.00  0.00    +0.000 A 
ATOM      7  C   UNL     1       2.664   5.599  18.604  0.00  0.00    +0.000 A 
ATOM      8  C   UNL     1       2.365   6.897  19.063  0.00  0.00    +0.000 A 
ATOM      9  C   UNL     1       1.954   7.043  20.392  0.00  0.00    +0.000 A 
ATOM     10  C   UNL     1       1.787   5.948  21.228  0.00  0.00    +0.000 A 
ATOM     11  C   UNL     1       2.099   4.673  20.766  0.00  0.00    +0.000 A 
BRANCH   9  12
ATOM     12  O   UNL     1       1.696   8.262  20.951  0.00  0.00    +0.000 OA
ATOM     13  H   UNL     1       1.361   8.092  21.849  0.00  0.00    +0.000 HD
ENDBRANCH   9  12
BRANCH  11  14
ATOM     14  O   UNL     1       1.944   3.631  21.626  0.00  0.00    +0.000 OA
ATOM     15  H   UNL     1       2.753   3.519  22.160  0.00  0.00    +0.000 HD
ENDBRANCH  11  14
BRANCH   8  16
ATOM     16  C   UNL     1       2.429   8.067  18.109  0.00  0.00    +0.000 C 
BRANCH  16  17
ATOM     17  C   UNL     1       1.088   8.637  17.736  0.00  0.00    +0.000 C 
ATOM     18  C   UNL     1       0.581   9.849  18.047  0.00  0.00    +0.000 C 
ATOM     19  C   UNL     1       1.321  10.957  18.746  0.00  0.00    +0.000 C 
ATOM     20  C   UNL     1      -0.862  10.176  17.747  0.00  0.00    +0.000 C 
ENDBRANCH  16  17
ENDBRANCH   8  16
ENDBRANCH   4   6
ENDBRANCH   1   4
BRANCH   1  21
ATOM     21  C   UNL     1       5.278   3.959  18.875  0.00  0.00    +0.000 C 
BRANCH  21  24
ATOM     22  C   UNL     1       5.914   4.528  15.120  0.00  0.00    +0.000 A 
ATOM     23  C   UNL     1       5.319   4.113  16.325  0.00  0.00    +0.000 A 
ATOM     24  C   UNL     1       5.926   4.369  17.567  0.00  0.00    +0.000 A 
ATOM     25  C   UNL     1       7.142   5.063  17.591  0.00  0.00    +0.000 A 
ATOM     26  C   UNL     1       7.751   5.469  16.403  0.00  0.00    +0.000 A 
ATOM     27  C   UNL     1       7.139   5.198  15.181  0.00  0.00    +0.000 A 
BRANCH  27  28
ATOM     28  O   UNL     1       7.737   5.595  14.019  0.00  0.00    +0.000 OA
ATOM     29  H   UNL     1       7.944   6.541  14.086  0.00  0.00    +0.000 HD
ENDBRANCH  27  28
BRANCH  22  30
ATOM     30  C   UNL     1       5.230   4.238  13.804  0.00  0.00    +0.000 C 
BRANCH  30  34
ATOM     31  C   UNL     1       6.398   1.691  11.073  0.00  0.00    +0.000 C 
ATOM     32  C   UNL     1       5.541   2.687  11.800  0.00  0.00    +0.000 C 
ATOM     33  C   UNL     1       4.236   3.071  11.157  0.00  0.00    +0.000 C 
ATOM     34  C   UNL     1       5.945   3.205  12.975  0.00  0.00    +0.000 C 
ENDBRANCH  30  34
ENDBRANCH  22  30
ENDBRANCH  21  24
ENDBRANCH   1  21
TORSDOF 12
ENDMDL
MODEL 8
REMARK VINA RESULT:      -7.7      1.646      7.599
REMARK  Name = 
REMARK  16 active torsions:
REMARK  status: ('A' for Active; 'I' for Inactive)
REMARK    1  A    between atoms: C_1  and  C_2
REMARK    2  A    between atoms: C_2  and  C_3
REMARK    3  A    between atoms: C_4  and  C_5
REMARK    4  A    between atoms: C_5  and  C_6
REMARK    5  A    between atoms: C_8  and  C_9
REMARK    6  A    between atoms: C_9  and  C_10
REMARK    7  A    between atoms: C_10  and  O_11
REMARK    8  A    between atoms: C_10  and  C_12
REMARK    9  A    between atoms: C_12  and  C_14
REMARK   10  A    between atoms: C_16  and  C_17
REMARK   11  A    between atoms: C_17  and  C_18
REMARK   12  A    between atoms: C_19  and  C_20
REMARK   13  A    between atoms: C_19  and  C_21
REMARK   14  A    between atoms: C_22  and  O_23
REMARK   15  A    between atoms: C_25  and  O_26
REMARK   16  A    between atoms: C_29  and  O_30
REMARK                            x       y       z     vdW  Elec       q    Type
REMARK                         _______ _______ _______ _____ _____    ______ ____
ROOT
ATOM      1  C   UNL     1       2.452   4.152  19.114  0.00  0.00    +0.000 C 
ENDROOT
BRANCH   1   2
ATOM      2  O   UNL     1       1.683   4.609  17.993  0.00  0.00    +0.000 OA
ATOM      3  H   UNL     1       0.850   4.964  18.351  0.00  0.00    +0.000 HD
ENDBRANCH   1   2
BRANCH   1   4
ATOM      4  C   UNL     1       3.632   3.308  18.611  0.00  0.00    +0.000 C 
ATOM      5  O   UNL     1       3.737   2.113  18.899  0.00  0.00    +0.000 OA
BRANCH   4   6
ATOM      6  C   UNL     1       4.709   3.959  17.801  0.00  0.00    +0.000 A 
ATOM      7  C   UNL     1       4.511   4.090  16.411  0.00  0.00    +0.000 A 
ATOM      8  C   UNL     1       5.487   4.688  15.589  0.00  0.00    +0.000 A 
ATOM      9  C   UNL     1       6.662   5.147  16.192  0.00  0.00    +0.000 A 
ATOM     10  C   UNL     1       6.851   5.073  17.565  0.00  0.00    +0.000 A 
ATOM     11  C   UNL     1       5.886   4.469  18.364  0.00  0.00    +0.000 A 
BRANCH   9  12
ATOM     12  O   UNL     1       7.692   5.688  15.478  0.00  0.00    +0.000 OA
ATOM     13  H   UNL     1       7.810   5.130  14.691  0.00  0.00    +0.000 HD
ENDBRANCH   9  12
BRANCH  11  14
ATOM     14  O   UNL     1       6.124   4.397  19.702  0.00  0.00    +0.000 OA
ATOM     15  H   UNL     1       5.614   3.661  20.090  0.00  0.00    +0.000 HD
ENDBRANCH  11  14
BRANCH   8  16
ATOM     16  C   UNL     1       5.215   4.876  14.113  0.00  0.00    +0.000 C 
BRANCH  16  17
ATOM     17  C   UNL     1       5.236   3.603  13.312  0.00  0.00    +0.000 C 
ATOM     18  C   UNL     1       6.050   3.275  12.288  0.00  0.00    +0.000 C 
ATOM     19  C   UNL     1       7.218   4.088  11.800  0.00  0.00    +0.000 C 
ATOM     20  C   UNL     1       5.798   2.026  11.478  0.00  0.00    +0.000 C 
ENDBRANCH  16  17
ENDBRANCH   8  16
ENDBRANCH   4   6
ENDBRANCH   1   4
BRANCH   1  21
ATOM     21  C   UNL     1       2.960   5.373  19.900  0.00  0.00    +0.000 C 
BRANCH  21  24
ATOM     22  C   UNL     1       1.516   8.886  19.268  0.00  0.00    +0.000 A 
ATOM     23  C   UNL     1       1.790   7.644  19.868  0.00  0.00    +0.000 A 
ATOM     24  C   UNL     1       2.627   6.701  19.248  0.00  0.00    +0.000 A 
ATOM     25  C   UNL     1       3.205   7.022  18.014  0.00  0.00    +0.000 A 
ATOM     26  C   UNL     1       2.931   8.245  17.400  0.00  0.00    +0.000 A 
ATOM     27  C   UNL     1       2.091   9.164  18.025  0.00  0.00    +0.000 A 
BRANCH  27  28
ATOM     28  O   UNL     1       1.824  10.360  17.422  0.00  0.00    +0.000 OA
ATOM     29  H   UNL     1       2.650  10.865  17.358  0.00  0.00    +0.000 HD
ENDBRANCH  27  28
BRANCH  22  30
ATOM     30  C   UNL     1       0.613   9.876  19.967  0.00  0.00    +0.000 C 
BRANCH  30  34
ATOM     31  C   UNL     1      -2.651  11.264  18.315  0.00  0.00    +0.000 C 
ATOM     32  C   UNL     1      -1.353  11.235  19.071  0.00  0.00    +0.000 C 
ATOM     33  C   UNL     1      -0.821  12.550  19.574  0.00  0.00    +0.000 C 
ATOM     34  C   UNL     1      -0.709  10.071  19.273  0.00  0.00    +0.000 C 
ENDBRANCH  30  34
ENDBRANCH  22  30
ENDBRANCH  21  24
ENDBRANCH   1  21
TORSDOF 12
ENDMDL
MODEL 9
REMARK VINA RESULT:      -7.7      1.353      7.800
REMARK  Name = 
REMARK  16 active torsions:
REMARK  status: ('A' for Active; 'I' for Inactive)
REMARK    1  A    between atoms: C_1  and  C_2
REMARK    2  A    between atoms: C_2  and  C_3
REMARK    3  A    between atoms: C_4  and  C_5
REMARK    4  A    between atoms: C_5  and  C_6
REMARK    5  A    between atoms: C_8  and  C_9
REMARK    6  A    between atoms: C_9  and  C_10
REMARK    7  A    between atoms: C_10  and  O_11
REMARK    8  A    between atoms: C_10  and  C_12
REMARK    9  A    between atoms: C_12  and  C_14
REMARK   10  A    between atoms: C_16  and  C_17
REMARK   11  A    between atoms: C_17  and  C_18
REMARK   12  A    between atoms: C_19  and  C_20
REMARK   13  A    between atoms: C_19  and  C_21
REMARK   14  A    between atoms: C_22  and  O_23
REMARK   15  A    between atoms: C_25  and  O_26
REMARK   16  A    between atoms: C_29  and  O_30
REMARK                            x       y       z     vdW  Elec       q    Type
REMARK                         _______ _______ _______ _____ _____    ______ ____
ROOT
ATOM      1  C   UNL     1       2.534   4.181  18.016  0.00  0.00    +0.000 C 
ENDROOT
BRANCH   1   2
ATOM      2  O   UNL     1       1.550   3.521  17.207  0.00  0.00    +0.000 OA
ATOM      3  H   UNL     1       0.690   3.918  17.433  0.00  0.00    +0.000 HD
ENDBRANCH   1   2
BRANCH   1   4
ATOM      4  C   UNL     1       3.877   3.448  17.880  0.00  0.00    +0.000 C 
ATOM      5  O   UNL     1       4.077   2.363  18.431  0.00  0.00    +0.000 OA
BRANCH   4   6
ATOM      6  C   UNL     1       4.989   4.089  17.110  0.00  0.00    +0.000 A 
ATOM      7  C   UNL     1       5.202   3.677  15.778  0.00  0.00    +0.000 A 
ATOM      8  C   UNL     1       6.234   4.235  14.998  0.00  0.00    +0.000 A 
ATOM      9  C   UNL     1       7.046   5.210  15.585  0.00  0.00    +0.000 A 
ATOM     10  C   UNL     1       6.819   5.665  16.877  0.00  0.00    +0.000 A 
ATOM     11  C   UNL     1       5.805   5.097  17.640  0.00  0.00    +0.000 A 
BRANCH   9  12
ATOM     12  O   UNL     1       8.109   5.771  14.936  0.00  0.00    +0.000 OA
ATOM     13  H   UNL     1       8.536   6.374  15.569  0.00  0.00    +0.000 HD
ENDBRANCH   9  12
BRANCH  11  14
ATOM     14  O   UNL     1       5.632   5.556  18.909  0.00  0.00    +0.000 OA
ATOM     15  H   UNL     1       6.141   6.379  19.035  0.00  0.00    +0.000 HD
ENDBRANCH  11  14
BRANCH   8  16
ATOM     16  C   UNL     1       6.393   3.822  13.552  0.00  0.00    +0.000 C 
BRANCH  16  17
ATOM     17  C   UNL     1       5.104   3.769  12.778  0.00  0.00    +0.000 C 
ATOM     18  C   UNL     1       4.785   2.964  11.743  0.00  0.00    +0.000 C 
ATOM     19  C   UNL     1       5.631   1.838  11.214  0.00  0.00    +0.000 C 
ATOM     20  C   UNL     1       3.510   3.185  10.965  0.00  0.00    +0.000 C 
ENDBRANCH  16  17
ENDBRANCH   8  16
ENDBRANCH   4   6
ENDBRANCH   1   4
BRANCH   1  21
ATOM     21  C   UNL     1       2.666   5.639  17.546  0.00  0.00    +0.000 C 
BRANCH  21  24
ATOM     22  C   UNL     1       1.441   8.890  19.207  0.00  0.00    +0.000 A 
ATOM     23  C   UNL     1       1.867   7.966  18.236  0.00  0.00    +0.000 A 
ATOM     24  C   UNL     1       2.239   6.657  18.587  0.00  0.00    +0.000 A 
ATOM     25  C   UNL     1       2.167   6.274  19.931  0.00  0.00    +0.000 A 
ATOM     26  C   UNL     1       1.760   7.184  20.907  0.00  0.00    +0.000 A 
ATOM     27  C   UNL     1       1.404   8.481  20.543  0.00  0.00    +0.000 A 
BRANCH  27  28
ATOM     28  O   UNL     1       1.006   9.371  21.499  0.00  0.00    +0.000 OA
ATOM     29  H   UNL     1       1.792   9.692  21.969  0.00  0.00    +0.000 HD
ENDBRANCH  27  28
BRANCH  22  30
ATOM     30  C   UNL     1       1.045  10.289  18.791  0.00  0.00    +0.000 C 
BRANCH  30  34
ATOM     31  C   UNL     1      -2.744  11.080  18.223  0.00  0.00    +0.000 C 
ATOM     32  C   UNL     1      -1.392  11.045  18.875  0.00  0.00    +0.000 C 
ATOM     33  C   UNL     1      -1.239  11.775  20.182  0.00  0.00    +0.000 C 
ATOM     34  C   UNL     1      -0.373  10.385  18.294  0.00  0.00    +0.000 C 
ENDBRANCH  30  34
ENDBRANCH  22  30
ENDBRANCH  21  24
ENDBRANCH   1  21
TORSDOF 12
ENDMDL
