MODEL 1
REMARK VINA RESULT:      -8.6      0.000      0.000
REMARK  Name = 
REMARK  3 active torsions:
REMARK  status: ('A' for Active; 'I' for Inactive)
REMARK    1  A    between atoms: C_2  and  O_3
REMARK    2  A    between atoms: C_2  and  C_17
REMARK    3  A    between atoms: O_3  and  C_4
REMARK                            x       y       z     vdW  Elec       q    Type
REMARK                         _______ _______ _______ _____ _____    ______ ____
ROOT
ATOM      1  O   UNL     1       2.946   8.487  16.749  0.00  0.00    +0.000 OA
ATOM      2  C   UNL     1       2.274   8.267  17.744  0.00  0.00    +0.000 C 
ENDROOT
BRANCH   2   3
ATOM      3  C   UNL     1       1.401   9.279  18.594  0.00  0.00    +0.000 C 
ATOM      4  C   UNL     1       1.081   9.570  20.091  0.00  0.00    +0.000 C 
ATOM      5  C   UNL     1       0.147  10.850  20.023  0.00  0.00    +0.000 C 
ATOM      6  C   UNL     1       0.734  11.465  18.650  0.00  0.00    +0.000 C 
ATOM      7  N   UNL     1       1.845  10.641  18.200  0.00  0.00    +0.000 NA
ATOM      8  C   UNL     1      -1.254  10.970  19.412  0.00  0.00    +0.000 C 
ATOM      9  O   UNL     1      -1.907  10.084  18.916  0.00  0.00    +0.000 OA
ATOM     10  N   UNL     1      -1.626  12.348  19.579  0.00  0.00    +0.000 N 
ATOM     11  C   UNL     1      -1.300  12.583  20.929  0.00  0.00    +0.000 A 
ATOM     12  C   UNL     1      -2.374  13.113  21.661  0.00  0.00    +0.000 A 
ATOM     13  C   UNL     1      -2.752  12.429  22.794  0.00  0.00    +0.000 A 
ATOM     14  C   UNL     1      -1.940  11.375  23.258  0.00  0.00    +0.000 A 
ATOM     15  C   UNL     1      -0.747  10.968  22.564  0.00  0.00    +0.000 A 
ATOM     16  C   UNL     1      -0.396  11.567  21.335  0.00  0.00    +0.000 A 
ATOM     17  H   UNL     1       2.701  10.896  18.693  0.00  0.00    +0.000 HD
ATOM     18  H   UNL     1      -1.020  12.991  19.061  0.00  0.00    +0.000 HD
ENDBRANCH   2   3
BRANCH   2  19
ATOM     19  O   UNL     1       2.209   7.040  18.422  0.00  0.00    +0.000 OA
BRANCH  19  20
ATOM     20  C   UNL     1       2.538   5.749  17.825  0.00  0.00    +0.000 C 
ATOM     21  C   UNL     1       1.552   4.653  18.275  0.00  0.00    +0.000 C 
ATOM     22  C   UNL     1       1.959   3.885  19.526  0.00  0.00    +0.000 C 
ATOM     23  S   UNL     1       3.445   2.981  19.226  0.00  0.00    +0.000 S 
ATOM     24  O   UNL     1       3.955   2.522  20.535  0.00  0.00    +0.000 OA
ATOM     25  O   UNL     1       3.244   2.062  18.135  0.00  0.00    +0.000 OA
ATOM     26  C   UNL     1       4.533   4.244  18.650  0.00  0.00    +0.000 A 
ATOM     27  C   UNL     1       5.913   4.006  18.820  0.00  0.00    +0.000 A 
ATOM     28  C   UNL     1       6.837   4.978  18.452  0.00  0.00    +0.000 A 
ATOM     29  C   UNL     1       6.365   6.180  17.927  0.00  0.00    +0.000 A 
ATOM     30 BR   UNL     1       7.610   7.522  17.450  0.00  0.00    +0.000 Br
ATOM     31  C   UNL     1       4.990   6.410  17.749  0.00  0.00    +0.000 A 
ATOM     32  C   UNL     1       4.025   5.443  18.104  0.00  0.00    +0.000 A 
ENDBRANCH  19  20
ENDBRANCH   2  19
TORSDOF 3
ENDMDL
MODEL 2
REMARK VINA RESULT:      -8.5      3.894      9.189
REMARK  Name = 
REMARK  3 active torsions:
REMARK  status: ('A' for Active; 'I' for Inactive)
REMARK    1  A    between atoms: C_2  and  O_3
REMARK    2  A    between atoms: C_2  and  C_17
REMARK    3  A    between atoms: O_3  and  C_4
REMARK                            x       y       z     vdW  Elec       q    Type
REMARK                         _______ _______ _______ _____ _____    ______ ____
ROOT
ATOM      1  O   UNL     1       1.281   7.812  21.530  0.00  0.00    +0.000 OA
ATOM      2  C   UNL     1       1.369   7.791  20.313  0.00  0.00    +0.000 C 
ENDROOT
BRANCH   2   3
ATOM      3  C   UNL     1       2.365   6.960  19.406  0.00  0.00    +0.000 C 
ATOM      4  C   UNL     1       3.331   7.205  18.207  0.00  0.00    +0.000 C 
ATOM      5  C   UNL     1       4.004   5.786  17.984  0.00  0.00    +0.000 C 
ATOM      6  C   UNL     1       3.888   5.258  19.506  0.00  0.00    +0.000 C 
ATOM      7  N   UNL     1       3.332   6.317  20.333  0.00  0.00    +0.000 NA
ATOM      8  C   UNL     1       3.336   4.479  17.539  0.00  0.00    +0.000 C 
ATOM      9  O   UNL     1       2.179   4.323  17.235  0.00  0.00    +0.000 OA
ATOM     10  N   UNL     1       4.386   3.496  17.541  0.00  0.00    +0.000 N 
ATOM     11  C   UNL     1       5.418   4.163  16.853  0.00  0.00    +0.000 A 
ATOM     12  C   UNL     1       5.916   3.418  15.772  0.00  0.00    +0.000 A 
ATOM     13  C   UNL     1       5.907   4.031  14.538  0.00  0.00    +0.000 A 
ATOM     14  C   UNL     1       5.593   5.402  14.460  0.00  0.00    +0.000 A 
ATOM     15  C   UNL     1       5.247   6.174  15.624  0.00  0.00    +0.000 A 
ATOM     16  C   UNL     1       5.129   5.552  16.885  0.00  0.00    +0.000 A 
ATOM     17  H   UNL     1       4.060   6.978  20.605  0.00  0.00    +0.000 HD
ATOM     18  H   UNL     1       4.775   3.329  18.473  0.00  0.00    +0.000 HD
ENDBRANCH   2   3
BRANCH   2  19
ATOM     19  O   UNL     1       0.636   8.604  19.435  0.00  0.00    +0.000 OA
BRANCH  19  20
ATOM     20  C   UNL     1       0.645  10.064  19.459  0.00  0.00    +0.000 C 
ATOM     21  C   UNL     1       1.050  10.602  20.845  0.00  0.00    +0.000 C 
ATOM     22  C   UNL     1      -0.103  10.852  21.809  0.00  0.00    +0.000 C 
ATOM     23  S   UNL     1      -1.152  12.126  21.181  0.00  0.00    +0.000 S 
ATOM     24  O   UNL     1      -2.396  12.107  21.978  0.00  0.00    +0.000 OA
ATOM     25  O   UNL     1      -0.393  13.338  21.005  0.00  0.00    +0.000 OA
ATOM     26  C   UNL     1      -1.545  11.519  19.573  0.00  0.00    +0.000 A 
ATOM     27  C   UNL     1      -2.749  11.987  19.005  0.00  0.00    +0.000 A 
ATOM     28  C   UNL     1      -3.166  11.509  17.768  0.00  0.00    +0.000 A 
ATOM     29  C   UNL     1      -2.376  10.560  17.120  0.00  0.00    +0.000 A 
ATOM     30 BR   UNL     1      -2.948   9.880  15.450  0.00  0.00    +0.000 Br
ATOM     31  C   UNL     1      -1.173  10.103  17.684  0.00  0.00    +0.000 A 
ATOM     32  C   UNL     1      -0.715  10.573  18.933  0.00  0.00    +0.000 A 
ENDBRANCH  19  20
ENDBRANCH   2  19
TORSDOF 3
ENDMDL
MODEL 3
REMARK VINA RESULT:      -8.5      3.817      9.114
REMARK  Name = 
REMARK  3 active torsions:
REMARK  status: ('A' for Active; 'I' for Inactive)
REMARK    1  A    between atoms: C_2  and  O_3
REMARK    2  A    between atoms: C_2  and  C_17
REMARK    3  A    between atoms: O_3  and  C_4
REMARK                            x       y       z     vdW  Elec       q    Type
REMARK                         _______ _______ _______ _____ _____    ______ ____
ROOT
ATOM      1  O   UNL     1       1.857   9.418  22.410  0.00  0.00    +0.000 OA
ATOM      2  C   UNL     1       1.293   8.969  21.426  0.00  0.00    +0.000 C 
ENDROOT
BRANCH   2   3
ATOM      3  C   UNL     1       1.701   7.732  20.527  0.00  0.00    +0.000 C 
ATOM      4  C   UNL     1       1.275   6.246  20.325  0.00  0.00    +0.000 C 
ATOM      5  C   UNL     1       2.193   5.762  19.125  0.00  0.00    +0.000 C 
ATOM      6  C   UNL     1       2.374   7.198  18.408  0.00  0.00    +0.000 C 
ATOM      7  N   UNL     1       1.575   8.185  19.117  0.00  0.00    +0.000 NA
ATOM      8  C   UNL     1       3.720   5.619  19.098  0.00  0.00    +0.000 C 
ATOM      9  O   UNL     1       4.483   5.809  20.014  0.00  0.00    +0.000 OA
ATOM     10  N   UNL     1       4.038   5.190  17.763  0.00  0.00    +0.000 N 
ATOM     11  C   UNL     1       3.115   4.147  17.558  0.00  0.00    +0.000 A 
ATOM     12  C   UNL     1       3.730   2.953  17.150  0.00  0.00    +0.000 A 
ATOM     13  C   UNL     1       3.478   1.832  17.909  0.00  0.00    +0.000 A 
ATOM     14  C   UNL     1       2.488   1.894  18.909  0.00  0.00    +0.000 A 
ATOM     15  C   UNL     1       1.757   3.103  19.186  0.00  0.00    +0.000 A 
ATOM     16  C   UNL     1       2.074   4.300  18.511  0.00  0.00    +0.000 A 
ATOM     17  H   UNL     1       0.603   8.142  18.812  0.00  0.00    +0.000 HD
ATOM     18  H   UNL     1       3.792   5.884  17.051  0.00  0.00    +0.000 HD
ENDBRANCH   2   3
BRANCH   2  19
ATOM     19  O   UNL     1       0.169   9.539  20.808  0.00  0.00    +0.000 OA
BRANCH  19  20
ATOM     20  C   UNL     1      -0.107  10.972  20.756  0.00  0.00    +0.000 C 
ATOM     21  C   UNL     1      -0.157  11.587  22.169  0.00  0.00    +0.000 C 
ATOM     22  C   UNL     1      -1.533  11.610  22.821  0.00  0.00    +0.000 C 
ATOM     23  S   UNL     1      -2.624  12.647  21.900  0.00  0.00    +0.000 S 
ATOM     24  O   UNL     1      -3.996  12.386  22.383  0.00  0.00    +0.000 OA
ATOM     25  O   UNL     1      -2.091  13.984  21.842  0.00  0.00    +0.000 OA
ATOM     26  C   UNL     1      -2.498  11.964  20.278  0.00  0.00    +0.000 A 
ATOM     27  C   UNL     1      -3.597  12.182  19.421  0.00  0.00    +0.000 A 
ATOM     28  C   UNL     1      -3.606  11.623  18.147  0.00  0.00    +0.000 A 
ATOM     29  C   UNL     1      -2.518  10.846  17.754  0.00  0.00    +0.000 A 
ATOM     30 BR   UNL     1      -2.532  10.056  16.035  0.00  0.00    +0.000 Br
ATOM     31  C   UNL     1      -1.420  10.640  18.607  0.00  0.00    +0.000 A 
ATOM     32  C   UNL     1      -1.373  11.198  19.902  0.00  0.00    +0.000 A 
ENDBRANCH  19  20
ENDBRANCH   2  19
TORSDOF 3
ENDMDL
MODEL 4
REMARK VINA RESULT:      -8.4      1.509      1.583
REMARK  Name = 
REMARK  3 active torsions:
REMARK  status: ('A' for Active; 'I' for Inactive)
REMARK    1  A    between atoms: C_2  and  O_3
REMARK    2  A    between atoms: C_2  and  C_17
REMARK    3  A    between atoms: O_3  and  C_4
REMARK                            x       y       z     vdW  Elec       q    Type
REMARK                         _______ _______ _______ _____ _____    ______ ____
ROOT
ATOM      1  O   UNL     1       2.982   8.281  17.025  0.00  0.00    +0.000 OA
ATOM      2  C   UNL     1       2.433   8.202  18.112  0.00  0.00    +0.000 C 
ENDROOT
BRANCH   2   3
ATOM      3  C   UNL     1       1.494   9.258  18.826  0.00  0.00    +0.000 C 
ATOM      4  C   UNL     1       1.090   9.667  20.276  0.00  0.00    +0.000 C 
ATOM      5  C   UNL     1       0.131  10.910  20.051  0.00  0.00    +0.000 C 
ATOM      6  C   UNL     1       0.773  11.421  18.660  0.00  0.00    +0.000 C 
ATOM      7  N   UNL     1       1.925  10.594  18.339  0.00  0.00    +0.000 NA
ATOM      8  C   UNL     1      -1.239  10.938  19.363  0.00  0.00    +0.000 C 
ATOM      9  O   UNL     1      -1.845   9.995  18.914  0.00  0.00    +0.000 OA
ATOM     10  N   UNL     1      -1.652  12.315  19.392  0.00  0.00    +0.000 N 
ATOM     11  C   UNL     1      -1.401  12.672  20.731  0.00  0.00    +0.000 A 
ATOM     12  C   UNL     1      -2.524  13.232  21.361  0.00  0.00    +0.000 A 
ATOM     13  C   UNL     1      -2.943  12.637  22.529  0.00  0.00    +0.000 A 
ATOM     14  C   UNL     1      -2.132  11.650  23.122  0.00  0.00    +0.000 A 
ATOM     15  C   UNL     1      -0.895  11.219  22.525  0.00  0.00    +0.000 A 
ATOM     16  C   UNL     1      -0.495  11.720  21.268  0.00  0.00    +0.000 A 
ATOM     17  H   UNL     1       2.748  10.913  18.850  0.00  0.00    +0.000 HD
ATOM     18  H   UNL     1      -1.035  12.928  18.851  0.00  0.00    +0.000 HD
ENDBRANCH   2   3
BRANCH   2  19
ATOM     19  O   UNL     1       2.603   7.155  19.030  0.00  0.00    +0.000 OA
BRANCH  19  20
ATOM     20  C   UNL     1       1.926   5.864  18.944  0.00  0.00    +0.000 C 
ATOM     21  C   UNL     1       1.225   5.506  20.269  0.00  0.00    +0.000 C 
ATOM     22  C   UNL     1       2.066   4.706  21.256  0.00  0.00    +0.000 C 
ATOM     23  S   UNL     1       2.458   3.125  20.576  0.00  0.00    +0.000 S 
ATOM     24  O   UNL     1       3.515   2.530  21.420  0.00  0.00    +0.000 OA
ATOM     25  O   UNL     1       1.244   2.409  20.280  0.00  0.00    +0.000 OA
ATOM     26  C   UNL     1       3.196   3.560  19.034  0.00  0.00    +0.000 A 
ATOM     27  C   UNL     1       4.088   2.619  18.481  0.00  0.00    +0.000 A 
ATOM     28  C   UNL     1       4.763   2.911  17.300  0.00  0.00    +0.000 A 
ATOM     29  C   UNL     1       4.541   4.147  16.695  0.00  0.00    +0.000 A 
ATOM     30 BR   UNL     1       5.474   4.569  15.104  0.00  0.00    +0.000 Br
ATOM     31  C   UNL     1       3.643   5.079  17.244  0.00  0.00    +0.000 A 
ATOM     32  C   UNL     1       2.936   4.812  18.436  0.00  0.00    +0.000 A 
ENDBRANCH  19  20
ENDBRANCH   2  19
TORSDOF 3
ENDMDL
MODEL 5
REMARK VINA RESULT:      -8.3      3.810      9.149
REMARK  Name = 
REMARK  3 active torsions:
REMARK  status: ('A' for Active; 'I' for Inactive)
REMARK    1  A    between atoms: C_2  and  O_3
REMARK    2  A    between atoms: C_2  and  C_17
REMARK    3  A    between atoms: O_3  and  C_4
REMARK                            x       y       z     vdW  Elec       q    Type
REMARK                         _______ _______ _______ _____ _____    ______ ____
ROOT
ATOM      1  O   UNL     1      -0.407   9.388  20.508  0.00  0.00    +0.000 OA
ATOM      2  C   UNL     1       0.533   9.497  19.738  0.00  0.00    +0.000 C 
ENDROOT
BRANCH   2   3
ATOM      3  C   UNL     1       1.517   8.374  19.210  0.00  0.00    +0.000 C 
ATOM      4  C   UNL     1       2.729   8.249  18.237  0.00  0.00    +0.000 C 
ATOM      5  C   UNL     1       3.158   6.729  18.381  0.00  0.00    +0.000 C 
ATOM      6  C   UNL     1       2.648   6.510  19.898  0.00  0.00    +0.000 C 
ATOM      7  N   UNL     1       2.146   7.774  20.415  0.00  0.00    +0.000 NA
ATOM      8  C   UNL     1       2.360   5.478  17.993  0.00  0.00    +0.000 C 
ATOM      9  O   UNL     1       1.277   5.445  17.461  0.00  0.00    +0.000 OA
ATOM     10  N   UNL     1       3.188   4.366  18.374  0.00  0.00    +0.000 N 
ATOM     11  C   UNL     1       4.441   4.734  17.847  0.00  0.00    +0.000 A 
ATOM     12  C   UNL     1       4.996   3.739  17.026  0.00  0.00    +0.000 A 
ATOM     13  C   UNL     1       5.343   4.111  15.746  0.00  0.00    +0.000 A 
ATOM     14  C   UNL     1       5.311   5.475  15.400  0.00  0.00    +0.000 A 
ATOM     15  C   UNL     1       4.892   6.490  16.331  0.00  0.00    +0.000 A 
ATOM     16  C   UNL     1       4.414   6.133  17.610  0.00  0.00    +0.000 A 
ATOM     17  H   UNL     1       2.915   8.356  20.745  0.00  0.00    +0.000 HD
ATOM     18  H   UNL     1       3.348   4.314  19.384  0.00  0.00    +0.000 HD
ENDBRANCH   2   3
BRANCH   2  19
ATOM     19  O   UNL     1       1.012  10.706  19.213  0.00  0.00    +0.000 OA
BRANCH  19  20
ATOM     20  C   UNL     1       0.338  11.994  19.356  0.00  0.00    +0.000 C 
ATOM     21  C   UNL     1       0.572  12.600  20.754  0.00  0.00    +0.000 C 
ATOM     22  C   UNL     1      -0.467  12.232  21.805  0.00  0.00    +0.000 C 
ATOM     23  S   UNL     1      -2.045  12.882  21.352  0.00  0.00    +0.000 S 
ATOM     24  O   UNL     1      -3.053  12.241  22.221  0.00  0.00    +0.000 OA
ATOM     25  O   UNL     1      -1.963  14.315  21.229  0.00  0.00    +0.000 OA
ATOM     26  C   UNL     1      -2.257  12.230  19.727  0.00  0.00    +0.000 A 
ATOM     27  C   UNL     1      -3.587  12.095  19.277  0.00  0.00    +0.000 A 
ATOM     28  C   UNL     1      -3.846  11.529  18.033  0.00  0.00    +0.000 A 
ATOM     29  C   UNL     1      -2.769  11.097  17.261  0.00  0.00    +0.000 A 
ATOM     30 BR   UNL     1      -3.109  10.299  15.580  0.00  0.00    +0.000 Br
ATOM     31  C   UNL     1      -1.444  11.242  17.709  0.00  0.00    +0.000 A 
ATOM     32  C   UNL     1      -1.145  11.818  18.961  0.00  0.00    +0.000 A 
ENDBRANCH  19  20
ENDBRANCH   2  19
TORSDOF 3
ENDMDL
MODEL 6
REMARK VINA RESULT:      -8.2      1.415      1.820
REMARK  Name = 
REMARK  3 active torsions:
REMARK  status: ('A' for Active; 'I' for Inactive)
REMARK    1  A    between atoms: C_2  and  O_3
REMARK    2  A    between atoms: C_2  and  C_17
REMARK    3  A    between atoms: O_3  and  C_4
REMARK                            x       y       z     vdW  Elec       q    Type
REMARK                         _______ _______ _______ _____ _____    ______ ____
ROOT
ATOM      1  O   UNL     1       2.880   8.955  17.075  0.00  0.00    +0.000 OA
ATOM      2  C   UNL     1       2.319   8.540  18.076  0.00  0.00    +0.000 C 
ENDROOT
BRANCH   2   3
ATOM      3  C   UNL     1       1.324   9.304  19.043  0.00  0.00    +0.000 C 
ATOM      4  C   UNL     1      -0.000  10.121  18.946  0.00  0.00    +0.000 C 
ATOM      5  C   UNL     1      -0.337  10.451  20.460  0.00  0.00    +0.000 C 
ATOM      6  C   UNL     1       0.381   9.165  21.121  0.00  0.00    +0.000 C 
ATOM      7  N   UNL     1       0.891   8.311  20.060  0.00  0.00    +0.000 NA
ATOM      8  C   UNL     1       0.457  11.326  21.438  0.00  0.00    +0.000 C 
ATOM      9  O   UNL     1       1.459  11.955  21.200  0.00  0.00    +0.000 OA
ATOM     10  N   UNL     1      -0.261  11.254  22.682  0.00  0.00    +0.000 N 
ATOM     11  C   UNL     1      -1.589  11.482  22.272  0.00  0.00    +0.000 A 
ATOM     12  C   UNL     1      -2.204  12.524  22.986  0.00  0.00    +0.000 A 
ATOM     13  C   UNL     1      -2.736  13.555  22.245  0.00  0.00    +0.000 A 
ATOM     14  C   UNL     1      -2.813  13.421  20.845  0.00  0.00    +0.000 A 
ATOM     15  C   UNL     1      -2.318  12.255  20.162  0.00  0.00    +0.000 A 
ATOM     16  C   UNL     1      -1.657  11.234  20.877  0.00  0.00    +0.000 A 
ATOM     17  H   UNL     1       0.147   7.720  19.689  0.00  0.00    +0.000 HD
ATOM     18  H   UNL     1      -0.282  10.309  23.077  0.00  0.00    +0.000 HD
ENDBRANCH   2   3
BRANCH   2  19
ATOM     19  O   UNL     1       2.520   7.277  18.652  0.00  0.00    +0.000 OA
BRANCH  19  20
ATOM     20  C   UNL     1       2.862   6.072  17.901  0.00  0.00    +0.000 C 
ATOM     21  C   UNL     1       1.945   4.892  18.282  0.00  0.00    +0.000 C 
ATOM     22  C   UNL     1       2.452   4.014  19.418  0.00  0.00    +0.000 C 
ATOM     23  S   UNL     1       3.952   3.212  18.942  0.00  0.00    +0.000 S 
ATOM     24  O   UNL     1       4.554   2.639  20.163  0.00  0.00    +0.000 OA
ATOM     25  O   UNL     1       3.722   2.407  17.770  0.00  0.00    +0.000 OA
ATOM     26  C   UNL     1       4.956   4.576  18.449  0.00  0.00    +0.000 A 
ATOM     27  C   UNL     1       6.352   4.381  18.518  0.00  0.00    +0.000 A 
ATOM     28  C   UNL     1       7.216   5.426  18.209  0.00  0.00    +0.000 A 
ATOM     29  C   UNL     1       6.669   6.655  17.844  0.00  0.00    +0.000 A 
ATOM     30 BR   UNL     1       7.833   8.094  17.450  0.00  0.00    +0.000 Br
ATOM     31  C   UNL     1       5.278   6.843  17.766  0.00  0.00    +0.000 A 
ATOM     32  C   UNL     1       4.373   5.803  18.065  0.00  0.00    +0.000 A 
ENDBRANCH  19  20
ENDBRANCH   2  19
TORSDOF 3
ENDMDL
MODEL 7
REMARK VINA RESULT:      -8.2      3.836      8.873
REMARK  Name = 
REMARK  3 active torsions:
REMARK  status: ('A' for Active; 'I' for Inactive)
REMARK    1  A    between atoms: C_2  and  O_3
REMARK    2  A    between atoms: C_2  and  C_17
REMARK    3  A    between atoms: O_3  and  C_4
REMARK                            x       y       z     vdW  Elec       q    Type
REMARK                         _______ _______ _______ _____ _____    ______ ____
ROOT
ATOM      1  O   UNL     1       2.657  10.766  17.435  0.00  0.00    +0.000 OA
ATOM      2  C   UNL     1       2.037   9.944  18.089  0.00  0.00    +0.000 C 
ENDROOT
BRANCH   2   3
ATOM      3  C   UNL     1       2.270   8.382  18.197  0.00  0.00    +0.000 C 
ATOM      4  C   UNL     1       1.531   7.063  17.817  0.00  0.00    +0.000 C 
ATOM      5  C   UNL     1       2.562   5.932  18.234  0.00  0.00    +0.000 C 
ATOM      6  C   UNL     1       3.912   6.798  18.041  0.00  0.00    +0.000 C 
ATOM      7  N   UNL     1       3.563   8.108  17.515  0.00  0.00    +0.000 NA
ATOM      8  C   UNL     1       3.060   5.576  19.640  0.00  0.00    +0.000 C 
ATOM      9  O   UNL     1       2.707   6.073  20.682  0.00  0.00    +0.000 OA
ATOM     10  N   UNL     1       4.010   4.513  19.450  0.00  0.00    +0.000 N 
ATOM     11  C   UNL     1       3.316   3.647  18.583  0.00  0.00    +0.000 A 
ATOM     12  C   UNL     1       3.259   2.330  19.066  0.00  0.00    +0.000 A 
ATOM     13  C   UNL     1       2.009   1.767  19.191  0.00  0.00    +0.000 A 
ATOM     14  C   UNL     1       0.898   2.447  18.656  0.00  0.00    +0.000 A 
ATOM     15  C   UNL     1       1.024   3.730  18.016  0.00  0.00    +0.000 A 
ATOM     16  C   UNL     1       2.270   4.391  17.978  0.00  0.00    +0.000 A 
ATOM     17  H   UNL     1       3.432   8.064  16.505  0.00  0.00    +0.000 HD
ATOM     18  H   UNL     1       4.830   4.803  18.909  0.00  0.00    +0.000 HD
ENDBRANCH   2   3
BRANCH   2  19
ATOM     19  O   UNL     1       0.883  10.212  18.841  0.00  0.00    +0.000 OA
BRANCH  19  20
ATOM     20  C   UNL     1       0.376  11.552  19.126  0.00  0.00    +0.000 C 
ATOM     21  C   UNL     1       0.780  12.019  20.538  0.00  0.00    +0.000 C 
ATOM     22  C   UNL     1      -0.215  11.690  21.643  0.00  0.00    +0.000 C 
ATOM     23  S   UNL     1      -1.735  12.545  21.364  0.00  0.00    +0.000 S 
ATOM     24  O   UNL     1      -2.746  11.955  22.266  0.00  0.00    +0.000 OA
ATOM     25  O   UNL     1      -1.495  13.965  21.332  0.00  0.00    +0.000 OA
ATOM     26  C   UNL     1      -2.140  12.047  19.721  0.00  0.00    +0.000 A 
ATOM     27  C   UNL     1      -3.505  12.097  19.371  0.00  0.00    +0.000 A 
ATOM     28  C   UNL     1      -3.918  11.661  18.117  0.00  0.00    +0.000 A 
ATOM     29  C   UNL     1      -2.958  11.172  17.233  0.00  0.00    +0.000 A 
ATOM     30 BR   UNL     1      -3.510  10.549  15.534  0.00  0.00    +0.000 Br
ATOM     31  C   UNL     1      -1.596  11.134  17.581  0.00  0.00    +0.000 A 
ATOM     32  C   UNL     1      -1.141  11.575  18.841  0.00  0.00    +0.000 A 
ENDBRANCH  19  20
ENDBRANCH   2  19
TORSDOF 3
ENDMDL
MODEL 8
REMARK VINA RESULT:      -8.2      4.031      9.348
REMARK  Name = 
REMARK  3 active torsions:
REMARK  status: ('A' for Active; 'I' for Inactive)
REMARK    1  A    between atoms: C_2  and  O_3
REMARK    2  A    between atoms: C_2  and  C_17
REMARK    3  A    between atoms: O_3  and  C_4
REMARK                            x       y       z     vdW  Elec       q    Type
REMARK                         _______ _______ _______ _____ _____    ______ ____
ROOT
ATOM      1  O   UNL     1      -0.210   9.422  20.677  0.00  0.00    +0.000 OA
ATOM      2  C   UNL     1       0.317   9.323  19.581  0.00  0.00    +0.000 C 
ENDROOT
BRANCH   2   3
ATOM      3  C   UNL     1       1.399   8.275  19.092  0.00  0.00    +0.000 C 
ATOM      4  C   UNL     1       2.607   8.218  18.108  0.00  0.00    +0.000 C 
ATOM      5  C   UNL     1       3.183   6.756  18.320  0.00  0.00    +0.000 C 
ATOM      6  C   UNL     1       2.714   6.566  19.853  0.00  0.00    +0.000 C 
ATOM      7  N   UNL     1       2.097   7.800  20.316  0.00  0.00    +0.000 NA
ATOM      8  C   UNL     1       2.506   5.416  18.006  0.00  0.00    +0.000 C 
ATOM      9  O   UNL     1       1.425   5.251  17.495  0.00  0.00    +0.000 OA
ATOM     10  N   UNL     1       3.441   4.409  18.428  0.00  0.00    +0.000 N 
ATOM     11  C   UNL     1       4.647   4.869  17.864  0.00  0.00    +0.000 A 
ATOM     12  C   UNL     1       5.286   3.891  17.084  0.00  0.00    +0.000 A 
ATOM     13  C   UNL     1       5.582   4.229  15.782  0.00  0.00    +0.000 A 
ATOM     14  C   UNL     1       5.414   5.566  15.370  0.00  0.00    +0.000 A 
ATOM     15  C   UNL     1       4.908   6.581  16.256  0.00  0.00    +0.000 A 
ATOM     16  C   UNL     1       4.482   6.245  17.558  0.00  0.00    +0.000 A 
ATOM     17  H   UNL     1       2.810   8.469  20.604  0.00  0.00    +0.000 HD
ATOM     18  H   UNL     1       3.617   4.424  19.437  0.00  0.00    +0.000 HD
ENDBRANCH   2   3
BRANCH   2  19
ATOM     19  O   UNL     1       0.134  10.213  18.511  0.00  0.00    +0.000 OA
BRANCH  19  20
ATOM     20  C   UNL     1       0.054  11.664  18.649  0.00  0.00    +0.000 C 
ATOM     21  C   UNL     1       1.242  12.219  19.460  0.00  0.00    +0.000 C 
ATOM     22  C   UNL     1       1.012  12.325  20.961  0.00  0.00    +0.000 C 
ATOM     23  S   UNL     1      -0.274  13.487  21.299  0.00  0.00    +0.000 S 
ATOM     24  O   UNL     1      -0.664  13.316  22.714  0.00  0.00    +0.000 OA
ATOM     25  O   UNL     1       0.086  14.777  20.770  0.00  0.00    +0.000 OA
ATOM     26  C   UNL     1      -1.596  12.867  20.309  0.00  0.00    +0.000 A 
ATOM     27  C   UNL     1      -2.900  13.211  20.723  0.00  0.00    +0.000 A 
ATOM     28  C   UNL     1      -4.002  12.711  20.037  0.00  0.00    +0.000 A 
ATOM     29  C   UNL     1      -3.781  11.866  18.950  0.00  0.00    +0.000 A 
ATOM     30 BR   UNL     1      -5.272  11.156  18.026  0.00  0.00    +0.000 Br
ATOM     31  C   UNL     1      -2.480  11.535  18.534  0.00  0.00    +0.000 A 
ATOM     32  C   UNL     1      -1.341  12.029  19.202  0.00  0.00    +0.000 A 
ENDBRANCH  19  20
ENDBRANCH   2  19
TORSDOF 3
ENDMDL
MODEL 9
REMARK VINA RESULT:      -8.0      4.171      9.269
REMARK  Name = 
REMARK  3 active torsions:
REMARK  status: ('A' for Active; 'I' for Inactive)
REMARK    1  A    between atoms: C_2  and  O_3
REMARK    2  A    between atoms: C_2  and  C_17
REMARK    3  A    between atoms: O_3  and  C_4
REMARK                            x       y       z     vdW  Elec       q    Type
REMARK                         _______ _______ _______ _____ _____    ______ ____
ROOT
ATOM      1  O   UNL     1      -1.080   9.994  17.763  0.00  0.00    +0.000 OA
ATOM      2  C   UNL     1      -0.009   9.968  18.348  0.00  0.00    +0.000 C 
ENDROOT
BRANCH   2   3
ATOM      3  C   UNL     1       1.119   8.859  18.300  0.00  0.00    +0.000 C 
ATOM      4  C   UNL     1       2.446   8.577  17.532  0.00  0.00    +0.000 C 
ATOM      5  C   UNL     1       2.978   7.239  18.198  0.00  0.00    +0.000 C 
ATOM      6  C   UNL     1       2.308   7.448  19.652  0.00  0.00    +0.000 C 
ATOM      7  N   UNL     1       1.645   8.743  19.686  0.00  0.00    +0.000 NA
ATOM      8  C   UNL     1       2.338   5.846  18.166  0.00  0.00    +0.000 C 
ATOM      9  O   UNL     1       1.333   5.522  17.580  0.00  0.00    +0.000 OA
ATOM     10  N   UNL     1       3.201   5.012  18.958  0.00  0.00    +0.000 N 
ATOM     11  C   UNL     1       4.475   5.340  18.453  0.00  0.00    +0.000 A 
ATOM     12  C   UNL     1       5.204   4.209  18.051  0.00  0.00    +0.000 A 
ATOM     13  C   UNL     1       5.672   4.200  16.756  0.00  0.00    +0.000 A 
ATOM     14  C   UNL     1       5.571   5.374  15.985  0.00  0.00    +0.000 A 
ATOM     15  C   UNL     1       4.960   6.573  16.497  0.00  0.00    +0.000 A 
ATOM     16  C   UNL     1       4.362   6.581  17.774  0.00  0.00    +0.000 A 
ATOM     17  H   UNL     1       2.319   9.484  19.876  0.00  0.00    +0.000 HD
ATOM     18  H   UNL     1       3.242   5.299  19.940  0.00  0.00    +0.000 HD
ENDBRANCH   2   3
BRANCH   2  19
ATOM     19  O   UNL     1       0.419  10.911  19.295  0.00  0.00    +0.000 OA
BRANCH  19  20
ATOM     20  C   UNL     1       0.303  12.357  19.130  0.00  0.00    +0.000 C 
ATOM     21  C   UNL     1       1.551  12.949  18.446  0.00  0.00    +0.000 C 
ATOM     22  C   UNL     1       2.655  13.406  19.389  0.00  0.00    +0.000 C 
ATOM     23  S   UNL     1       2.083  14.744  20.389  0.00  0.00    +0.000 S 
ATOM     24  O   UNL     1       3.063  14.932  21.479  0.00  0.00    +0.000 OA
ATOM     25  O   UNL     1       1.675  15.840  19.549  0.00  0.00    +0.000 OA
ATOM     26  C   UNL     1       0.621  14.065  21.107  0.00  0.00    +0.000 A 
ATOM     27  C   UNL     1       0.208  14.628  22.333  0.00  0.00    +0.000 A 
ATOM     28  C   UNL     1      -0.897  14.109  22.999  0.00  0.00    +0.000 A 
ATOM     29  C   UNL     1      -1.568  13.026  22.431  0.00  0.00    +0.000 A 
ATOM     30 BR   UNL     1      -3.056  12.292  23.341  0.00  0.00    +0.000 Br
ATOM     31  C   UNL     1      -1.160  12.475  21.204  0.00  0.00    +0.000 A 
ATOM     32  C   UNL     1      -0.048  12.981  20.498  0.00  0.00    +0.000 A 
ENDBRANCH  19  20
ENDBRANCH   2  19
TORSDOF 3
ENDMDL
