MODEL 1
REMARK VINA RESULT:      -8.6      0.000      0.000
REMARK  Name = 
REMARK  4 active torsions:
REMARK  status: ('A' for Active; 'I' for Inactive)
REMARK    1  A    between atoms: S_2  and  N_4
REMARK    2  A    between atoms: S_2  and  C_22
REMARK    3  A    between atoms: C_10  and  S_11
REMARK    4  A    between atoms: S_11  and  N_14
REMARK                            x       y       z     vdW  Elec       q    Type
REMARK                         _______ _______ _______ _____ _____    ______ ____
ROOT
ATOM      1  N   UNL     1       3.340   4.401  18.737  0.00  0.00    +0.000 N 
ATOM      2  C   UNL     1       2.850   5.709  18.970  0.00  0.00    +0.000 A 
ATOM      3  N   UNL     1       2.889   6.611  18.026  0.00  0.00    +0.000 NA
ATOM      4  C   UNL     1       2.306   7.778  18.488  0.00  0.00    +0.000 A 
ATOM      5  C   UNL     1       2.196   8.983  17.764  0.00  0.00    +0.000 A 
ATOM      6  C   UNL     1       1.572  10.090  18.345  0.00  0.00    +0.000 A 
ATOM      7  C   UNL     1       1.052  10.001  19.637  0.00  0.00    +0.000 A 
ATOM      8  C   UNL     1       1.158   8.827  20.391  0.00  0.00    +0.000 A 
ATOM      9  C   UNL     1       1.786   7.721  19.786  0.00  0.00    +0.000 A 
ATOM     10  S   UNL     1       2.047   6.136  20.412  0.00  0.00    +0.000 S 
ATOM     11  H   UNL     1       2.929   3.760  19.416  0.00  0.00    +0.000 HD
ENDROOT
BRANCH   1  13
ATOM     12  O   UNL     1       5.503   5.493  19.719  0.00  0.00    +0.000 OA
ATOM     13  S   UNL     1       5.012   4.327  19.019  0.00  0.00    +0.000 S 
ATOM     14  O   UNL     1       5.238   2.989  19.523  0.00  0.00    +0.000 OA
BRANCH  13  15
ATOM     15  C   UNL     1       5.644   4.396  17.361  0.00  0.00    +0.000 A 
ATOM     16  C   UNL     1       6.982   4.760  17.158  0.00  0.00    +0.000 A 
ATOM     17  C   UNL     1       7.472   4.859  15.856  0.00  0.00    +0.000 A 
ATOM     18  C   UNL     1       6.630   4.588  14.780  0.00  0.00    +0.000 A 
ATOM     19  F   UNL     1       7.099   4.705  13.531  0.00  0.00    +0.000 F 
ATOM     20  C   UNL     1       5.307   4.203  14.980  0.00  0.00    +0.000 A 
ATOM     21  C   UNL     1       4.806   4.101  16.278  0.00  0.00    +0.000 A 
ENDBRANCH  13  15
ENDBRANCH   1  13
BRANCH   7  22
ATOM     22  S   UNL     1       0.244  11.420  20.348  0.00  0.00    +0.000 S 
ATOM     23  O   UNL     1      -1.166  11.299  20.056  0.00  0.00    +0.000 OA
ATOM     24  O   UNL     1       0.718  11.571  21.709  0.00  0.00    +0.000 OA
BRANCH  22  25
ATOM     25  N   UNL     1       0.856  12.744  19.455  0.00  0.00    +0.000 NA
ATOM     26  C   UNL     1       1.524  13.829  20.214  0.00  0.00    +0.000 C 
ATOM     27  C   UNL     1       0.481  14.918  20.356  0.00  0.00    +0.000 C 
ATOM     28  C   UNL     1      -0.291  14.846  19.056  0.00  0.00    +0.000 C 
ATOM     29  C   UNL     1      -0.182  13.396  18.594  0.00  0.00    +0.000 C 
ENDBRANCH  22  25
ENDBRANCH   7  22
TORSDOF 4
ENDMDL
MODEL 2
REMARK VINA RESULT:      -8.5      1.154      1.368
REMARK  Name = 
REMARK  4 active torsions:
REMARK  status: ('A' for Active; 'I' for Inactive)
REMARK    1  A    between atoms: S_2  and  N_4
REMARK    2  A    between atoms: S_2  and  C_22
REMARK    3  A    between atoms: C_10  and  S_11
REMARK    4  A    between atoms: S_11  and  N_14
REMARK                            x       y       z     vdW  Elec       q    Type
REMARK                         _______ _______ _______ _____ _____    ______ ____
ROOT
ATOM      1  N   UNL     1       3.364   4.390  18.686  0.00  0.00    +0.000 N 
ATOM      2  C   UNL     1       2.861   5.673  19.011  0.00  0.00    +0.000 A 
ATOM      3  N   UNL     1       2.885   6.638  18.131  0.00  0.00    +0.000 NA
ATOM      4  C   UNL     1       2.292   7.764  18.675  0.00  0.00    +0.000 A 
ATOM      5  C   UNL     1       2.165   9.015  18.036  0.00  0.00    +0.000 A 
ATOM      6  C   UNL     1       1.531  10.072  18.695  0.00  0.00    +0.000 A 
ATOM      7  C   UNL     1       1.019   9.888  19.980  0.00  0.00    +0.000 A 
ATOM      8  C   UNL     1       1.142   8.666  20.651  0.00  0.00    +0.000 A 
ATOM      9  C   UNL     1       1.779   7.612  19.968  0.00  0.00    +0.000 A 
ATOM     10  S   UNL     1       2.061   5.990  20.482  0.00  0.00    +0.000 S 
ATOM     11  H   UNL     1       2.963   3.698  19.320  0.00  0.00    +0.000 HD
ENDROOT
BRANCH   1  13
ATOM     12  O   UNL     1       5.532   5.474  19.666  0.00  0.00    +0.000 OA
ATOM     13  S   UNL     1       5.039   4.315  18.955  0.00  0.00    +0.000 S 
ATOM     14  O   UNL     1       5.270   2.972  19.441  0.00  0.00    +0.000 OA
BRANCH  13  15
ATOM     15  C   UNL     1       5.659   4.406  17.294  0.00  0.00    +0.000 A 
ATOM     16  C   UNL     1       7.004   4.735  17.088  0.00  0.00    +0.000 A 
ATOM     17  C   UNL     1       7.486   4.852  15.784  0.00  0.00    +0.000 A 
ATOM     18  C   UNL     1       6.629   4.631  14.710  0.00  0.00    +0.000 A 
ATOM     19  F   UNL     1       7.090   4.765  13.459  0.00  0.00    +0.000 F 
ATOM     20  C   UNL     1       5.296   4.280  14.912  0.00  0.00    +0.000 A 
ATOM     21  C   UNL     1       4.803   4.162  16.212  0.00  0.00    +0.000 A 
ENDBRANCH  13  15
ENDBRANCH   1  13
BRANCH   7  22
ATOM     22  S   UNL     1       0.199  11.245  20.791  0.00  0.00    +0.000 S 
ATOM     23  O   UNL     1      -0.759  10.676  21.711  0.00  0.00    +0.000 OA
ATOM     24  O   UNL     1       1.213  12.177  21.243  0.00  0.00    +0.000 OA
BRANCH  22  25
ATOM     25  N   UNL     1      -0.671  12.020  19.539  0.00  0.00    +0.000 NA
ATOM     26  C   UNL     1      -1.214  13.372  19.820  0.00  0.00    +0.000 C 
ATOM     27  C   UNL     1      -2.674  13.153  20.158  0.00  0.00    +0.000 C 
ATOM     28  C   UNL     1      -3.082  12.006  19.257  0.00  0.00    +0.000 C 
ATOM     29  C   UNL     1      -1.811  11.196  19.023  0.00  0.00    +0.000 C 
ENDBRANCH  22  25
ENDBRANCH   7  22
TORSDOF 4
ENDMDL
MODEL 3
REMARK VINA RESULT:      -8.4      1.321      1.823
REMARK  Name = 
REMARK  4 active torsions:
REMARK  status: ('A' for Active; 'I' for Inactive)
REMARK    1  A    between atoms: S_2  and  N_4
REMARK    2  A    between atoms: S_2  and  C_22
REMARK    3  A    between atoms: C_10  and  S_11
REMARK    4  A    between atoms: S_11  and  N_14
REMARK                            x       y       z     vdW  Elec       q    Type
REMARK                         _______ _______ _______ _____ _____    ______ ____
ROOT
ATOM      1  N   UNL     1       3.316   4.399  18.723  0.00  0.00    +0.000 N 
ATOM      2  C   UNL     1       2.854   5.717  18.958  0.00  0.00    +0.000 A 
ATOM      3  N   UNL     1       2.921   6.621  18.018  0.00  0.00    +0.000 NA
ATOM      4  C   UNL     1       2.362   7.800  18.481  0.00  0.00    +0.000 A 
ATOM      5  C   UNL     1       2.284   9.010  17.760  0.00  0.00    +0.000 A 
ATOM      6  C   UNL     1       1.681  10.129  18.341  0.00  0.00    +0.000 A 
ATOM      7  C   UNL     1       1.150  10.047  19.629  0.00  0.00    +0.000 A 
ATOM      8  C   UNL     1       1.224   8.867  20.379  0.00  0.00    +0.000 A 
ATOM      9  C   UNL     1       1.831   7.750  19.774  0.00  0.00    +0.000 A 
ATOM     10  S   UNL     1       2.051   6.157  20.396  0.00  0.00    +0.000 S 
ATOM     11  H   UNL     1       2.885   3.765  19.397  0.00  0.00    +0.000 HD
ENDROOT
BRANCH   1  13
ATOM     12  O   UNL     1       5.493   5.431  19.738  0.00  0.00    +0.000 OA
ATOM     13  S   UNL     1       4.984   4.285  19.017  0.00  0.00    +0.000 S 
ATOM     14  O   UNL     1       5.177   2.936  19.505  0.00  0.00    +0.000 OA
BRANCH  13  15
ATOM     15  C   UNL     1       5.631   4.364  17.366  0.00  0.00    +0.000 A 
ATOM     16  C   UNL     1       6.972   4.721  17.178  0.00  0.00    +0.000 A 
ATOM     17  C   UNL     1       7.474   4.828  15.881  0.00  0.00    +0.000 A 
ATOM     18  C   UNL     1       6.641   4.571  14.795  0.00  0.00    +0.000 A 
ATOM     19  F   UNL     1       7.120   4.695  13.551  0.00  0.00    +0.000 F 
ATOM     20  C   UNL     1       5.313   4.192  14.980  0.00  0.00    +0.000 A 
ATOM     21  C   UNL     1       4.800   4.083  16.273  0.00  0.00    +0.000 A 
ENDBRANCH  13  15
ENDBRANCH   1  13
BRANCH   7  22
ATOM     22  S   UNL     1       0.370  11.481  20.340  0.00  0.00    +0.000 S 
ATOM     23  O   UNL     1       0.375  11.302  21.774  0.00  0.00    +0.000 OA
ATOM     24  O   UNL     1       0.951  12.659  19.728  0.00  0.00    +0.000 OA
BRANCH  22  25
ATOM     25  N   UNL     1      -1.252  11.387  19.803  0.00  0.00    +0.000 NA
ATOM     26  C   UNL     1      -1.705  10.100  19.221  0.00  0.00    +0.000 C 
ATOM     27  C   UNL     1      -1.638  10.294  17.721  0.00  0.00    +0.000 C 
ATOM     28  C   UNL     1      -2.026  11.746  17.530  0.00  0.00    +0.000 C 
ATOM     29  C   UNL     1      -1.602  12.455  18.813  0.00  0.00    +0.000 C 
ENDBRANCH  22  25
ENDBRANCH   7  22
TORSDOF 4
ENDMDL
MODEL 4
REMARK VINA RESULT:      -8.4      1.628      1.951
REMARK  Name = 
REMARK  4 active torsions:
REMARK  status: ('A' for Active; 'I' for Inactive)
REMARK    1  A    between atoms: S_2  and  N_4
REMARK    2  A    between atoms: S_2  and  C_22
REMARK    3  A    between atoms: C_10  and  S_11
REMARK    4  A    between atoms: S_11  and  N_14
REMARK                            x       y       z     vdW  Elec       q    Type
REMARK                         _______ _______ _______ _____ _____    ______ ____
ROOT
ATOM      1  N   UNL     1       3.230   4.479  18.791  0.00  0.00    +0.000 N 
ATOM      2  C   UNL     1       2.803   5.814  18.993  0.00  0.00    +0.000 A 
ATOM      3  N   UNL     1       2.880   6.690  18.027  0.00  0.00    +0.000 NA
ATOM      4  C   UNL     1       2.356   7.895  18.461  0.00  0.00    +0.000 A 
ATOM      5  C   UNL     1       2.299   9.085  17.707  0.00  0.00    +0.000 A 
ATOM      6  C   UNL     1       1.731  10.235  18.262  0.00  0.00    +0.000 A 
ATOM      7  C   UNL     1       1.213  10.203  19.558  0.00  0.00    +0.000 A 
ATOM      8  C   UNL     1       1.268   9.043  20.341  0.00  0.00    +0.000 A 
ATOM      9  C   UNL     1       1.840   7.895  19.762  0.00  0.00    +0.000 A 
ATOM     10  S   UNL     1       2.028   6.315  20.427  0.00  0.00    +0.000 S 
ATOM     11  H   UNL     1       2.792   3.875  19.487  0.00  0.00    +0.000 HD
ENDROOT
BRANCH   1  13
ATOM     12  O   UNL     1       5.441   5.479  19.764  0.00  0.00    +0.000 OA
ATOM     13  S   UNL     1       4.898   4.333  19.068  0.00  0.00    +0.000 S 
ATOM     14  O   UNL     1       5.066   2.988  19.576  0.00  0.00    +0.000 OA
BRANCH  13  15
ATOM     15  C   UNL     1       5.528   4.370  17.409  0.00  0.00    +0.000 A 
ATOM     16  C   UNL     1       6.868   4.716  17.199  0.00  0.00    +0.000 A 
ATOM     17  C   UNL     1       7.357   4.790  15.894  0.00  0.00    +0.000 A 
ATOM     18  C   UNL     1       6.511   4.511  14.824  0.00  0.00    +0.000 A 
ATOM     19  F   UNL     1       6.979   4.604  13.572  0.00  0.00    +0.000 F 
ATOM     20  C   UNL     1       5.184   4.143  15.032  0.00  0.00    +0.000 A 
ATOM     21  C   UNL     1       4.684   4.067  16.332  0.00  0.00    +0.000 A 
ENDBRANCH  13  15
ENDBRANCH   1  13
BRANCH   7  22
ATOM     22  S   UNL     1       0.477  11.675  20.236  0.00  0.00    +0.000 S 
ATOM     23  O   UNL     1       1.342  12.133  21.300  0.00  0.00    +0.000 OA
ATOM     24  O   UNL     1       0.116  12.545  19.135  0.00  0.00    +0.000 OA
BRANCH  22  25
ATOM     25  N   UNL     1      -0.982  11.129  20.942  0.00  0.00    +0.000 NA
ATOM     26  C   UNL     1      -2.210  11.914  20.666  0.00  0.00    +0.000 C 
ATOM     27  C   UNL     1      -2.409  12.787  21.887  0.00  0.00    +0.000 C 
ATOM     28  C   UNL     1      -1.937  11.915  23.032  0.00  0.00    +0.000 C 
ATOM     29  C   UNL     1      -0.891  10.981  22.431  0.00  0.00    +0.000 C 
ENDBRANCH  22  25
ENDBRANCH   7  22
TORSDOF 4
ENDMDL
MODEL 5
REMARK VINA RESULT:      -7.7      4.132      9.901
REMARK  Name = 
REMARK  4 active torsions:
REMARK  status: ('A' for Active; 'I' for Inactive)
REMARK    1  A    between atoms: S_2  and  N_4
REMARK    2  A    between atoms: S_2  and  C_22
REMARK    3  A    between atoms: C_10  and  S_11
REMARK    4  A    between atoms: S_11  and  N_14
REMARK                            x       y       z     vdW  Elec       q    Type
REMARK                         _______ _______ _______ _____ _____    ______ ____
ROOT
ATOM      1  N   UNL     1      -0.152  11.522  19.625  0.00  0.00    +0.000 N 
ATOM      2  C   UNL     1       0.605  10.331  19.506  0.00  0.00    +0.000 A 
ATOM      3  N   UNL     1       0.498   9.384  20.399  0.00  0.00    +0.000 NA
ATOM      4  C   UNL     1       1.295   8.315  20.027  0.00  0.00    +0.000 A 
ATOM      5  C   UNL     1       1.465   7.123  20.761  0.00  0.00    +0.000 A 
ATOM      6  C   UNL     1       2.294   6.113  20.267  0.00  0.00    +0.000 A 
ATOM      7  C   UNL     1       2.946   6.280  19.044  0.00  0.00    +0.000 A 
ATOM      8  C   UNL     1       2.814   7.457  18.297  0.00  0.00    +0.000 A 
ATOM      9  C   UNL     1       1.971   8.460  18.811  0.00  0.00    +0.000 A 
ATOM     10  S   UNL     1       1.562   9.994  18.136  0.00  0.00    +0.000 S 
ATOM     11  H   UNL     1      -0.218  11.973  18.712  0.00  0.00    +0.000 HD
ENDROOT
BRANCH   1  13
ATOM     12  O   UNL     1       1.829  12.088  21.235  0.00  0.00    +0.000 OA
ATOM     13  S   UNL     1       0.648  12.646  20.614  0.00  0.00    +0.000 S 
ATOM     14  O   UNL     1       0.709  13.853  19.818  0.00  0.00    +0.000 OA
BRANCH  13  15
ATOM     15  C   UNL     1      -0.557  12.899  21.893  0.00  0.00    +0.000 A 
ATOM     16  C   UNL     1      -1.539  11.922  22.104  0.00  0.00    +0.000 A 
ATOM     17  C   UNL     1      -2.514  12.135  23.078  0.00  0.00    +0.000 A 
ATOM     18  C   UNL     1      -2.494  13.307  23.830  0.00  0.00    +0.000 A 
ATOM     19  F   UNL     1      -3.445  13.518  24.749  0.00  0.00    +0.000 F 
ATOM     20  C   UNL     1      -1.505  14.269  23.638  0.00  0.00    +0.000 A 
ATOM     21  C   UNL     1      -0.524  14.066  22.666  0.00  0.00    +0.000 A 
ENDBRANCH  13  15
ENDBRANCH   1  13
BRANCH   7  22
ATOM     22  S   UNL     1       3.982   4.971  18.426  0.00  0.00    +0.000 S 
ATOM     23  O   UNL     1       4.299   4.112  19.545  0.00  0.00    +0.000 OA
ATOM     24  O   UNL     1       3.369   4.442  17.224  0.00  0.00    +0.000 OA
BRANCH  22  25
ATOM     25  N   UNL     1       5.420   5.763  17.947  0.00  0.00    +0.000 NA
ATOM     26  C   UNL     1       5.832   5.630  16.528  0.00  0.00    +0.000 C 
ATOM     27  C   UNL     1       6.895   4.551  16.519  0.00  0.00    +0.000 C 
ATOM     28  C   UNL     1       7.629   4.760  17.827  0.00  0.00    +0.000 C 
ATOM     29  C   UNL     1       6.605   5.374  18.777  0.00  0.00    +0.000 C 
ENDBRANCH  22  25
ENDBRANCH   7  22
TORSDOF 4
ENDMDL
MODEL 6
REMARK VINA RESULT:      -7.7      4.264      9.958
REMARK  Name = 
REMARK  4 active torsions:
REMARK  status: ('A' for Active; 'I' for Inactive)
REMARK    1  A    between atoms: S_2  and  N_4
REMARK    2  A    between atoms: S_2  and  C_22
REMARK    3  A    between atoms: C_10  and  S_11
REMARK    4  A    between atoms: S_11  and  N_14
REMARK                            x       y       z     vdW  Elec       q    Type
REMARK                         _______ _______ _______ _____ _____    ______ ____
ROOT
ATOM      1  N   UNL     1      -0.362  11.413  19.762  0.00  0.00    +0.000 N 
ATOM      2  C   UNL     1       0.464  10.276  19.585  0.00  0.00    +0.000 A 
ATOM      3  N   UNL     1       0.507   9.339  20.494  0.00  0.00    +0.000 NA
ATOM      4  C   UNL     1       1.340   8.322  20.060  0.00  0.00    +0.000 A 
ATOM      5  C   UNL     1       1.662   7.158  20.788  0.00  0.00    +0.000 A 
ATOM      6  C   UNL     1       2.511   6.199  20.228  0.00  0.00    +0.000 A 
ATOM      7  C   UNL     1       3.033   6.390  18.948  0.00  0.00    +0.000 A 
ATOM      8  C   UNL     1       2.749   7.542  18.204  0.00  0.00    +0.000 A 
ATOM      9  C   UNL     1       1.888   8.493  18.784  0.00  0.00    +0.000 A 
ATOM     10  S   UNL     1       1.311   9.983  18.135  0.00  0.00    +0.000 S 
ATOM     11  H   UNL     1      -0.544  11.843  18.854  0.00  0.00    +0.000 HD
ENDROOT
BRANCH   1  13
ATOM     12  O   UNL     1       1.659  12.109  21.268  0.00  0.00    +0.000 OA
ATOM     13  S   UNL     1       0.445  12.607  20.660  0.00  0.00    +0.000 S 
ATOM     14  O   UNL     1       0.450  13.769  19.798  0.00  0.00    +0.000 OA
BRANCH  13  15
ATOM     15  C   UNL     1      -0.721  12.903  21.965  0.00  0.00    +0.000 A 
ATOM     16  C   UNL     1      -1.728  11.959  22.203  0.00  0.00    +0.000 A 
ATOM     17  C   UNL     1      -2.674  12.207  23.198  0.00  0.00    +0.000 A 
ATOM     18  C   UNL     1      -2.599  13.381  23.944  0.00  0.00    +0.000 A 
ATOM     19  F   UNL     1      -3.521  13.626  24.884  0.00  0.00    +0.000 F 
ATOM     20  C   UNL     1      -1.584  14.310  23.725  0.00  0.00    +0.000 A 
ATOM     21  C   UNL     1      -0.634  14.072  22.732  0.00  0.00    +0.000 A 
ENDBRANCH  13  15
ENDBRANCH   1  13
BRANCH   7  22
ATOM     22  S   UNL     1       4.097   5.146  18.249  0.00  0.00    +0.000 S 
ATOM     23  O   UNL     1       4.903   5.792  17.237  0.00  0.00    +0.000 OA
ATOM     24  O   UNL     1       4.708   4.413  19.339  0.00  0.00    +0.000 OA
BRANCH  22  25
ATOM     25  N   UNL     1       3.026   4.071  17.461  0.00  0.00    +0.000 NA
ATOM     26  C   UNL     1       1.574   4.255  17.702  0.00  0.00    +0.000 C 
ATOM     27  C   UNL     1       1.209   3.222  18.748  0.00  0.00    +0.000 C 
ATOM     28  C   UNL     1       2.091   2.040  18.407  0.00  0.00    +0.000 C 
ATOM     29  C   UNL     1       3.331   2.631  17.743  0.00  0.00    +0.000 C 
ENDBRANCH  22  25
ENDBRANCH   7  22
TORSDOF 4
ENDMDL
MODEL 7
REMARK VINA RESULT:      -7.6      4.165      9.900
REMARK  Name = 
REMARK  4 active torsions:
REMARK  status: ('A' for Active; 'I' for Inactive)
REMARK    1  A    between atoms: S_2  and  N_4
REMARK    2  A    between atoms: S_2  and  C_22
REMARK    3  A    between atoms: C_10  and  S_11
REMARK    4  A    between atoms: S_11  and  N_14
REMARK                            x       y       z     vdW  Elec       q    Type
REMARK                         _______ _______ _______ _____ _____    ______ ____
ROOT
ATOM      1  N   UNL     1      -0.264   9.844  20.522  0.00  0.00    +0.000 N 
ATOM      2  C   UNL     1       0.671   8.819  20.236  0.00  0.00    +0.000 A 
ATOM      3  N   UNL     1       0.654   7.698  20.906  0.00  0.00    +0.000 NA
ATOM      4  C   UNL     1       1.626   6.851  20.401  0.00  0.00    +0.000 A 
ATOM      5  C   UNL     1       1.929   5.565  20.892  0.00  0.00    +0.000 A 
ATOM      6  C   UNL     1       2.930   4.805  20.282  0.00  0.00    +0.000 A 
ATOM      7  C   UNL     1       3.624   5.315  19.184  0.00  0.00    +0.000 A 
ATOM      8  C   UNL     1       3.361   6.595  18.681  0.00  0.00    +0.000 A 
ATOM      9  C   UNL     1       2.345   7.342  19.306  0.00  0.00    +0.000 A 
ATOM     10  S   UNL     1       1.751   8.915  18.920  0.00  0.00    +0.000 S 
ATOM     11  H   UNL     1      -0.341  10.466  19.717  0.00  0.00    +0.000 HD
ENDROOT
BRANCH   1  13
ATOM     12  O   UNL     1       0.555  10.077  22.994  0.00  0.00    +0.000 OA
ATOM     13  S   UNL     1       0.294  10.829  21.787  0.00  0.00    +0.000 S 
ATOM     14  O   UNL     1       1.308  11.663  21.179  0.00  0.00    +0.000 OA
BRANCH  13  15
ATOM     15  C   UNL     1      -1.133  11.842  22.089  0.00  0.00    +0.000 A 
ATOM     16  C   UNL     1      -1.423  12.889  21.206  0.00  0.00    +0.000 A 
ATOM     17  C   UNL     1      -2.517  13.715  21.462  0.00  0.00    +0.000 A 
ATOM     18  C   UNL     1      -3.309  13.482  22.584  0.00  0.00    +0.000 A 
ATOM     19  F   UNL     1      -4.346  14.291  22.838  0.00  0.00    +0.000 F 
ATOM     20  C   UNL     1      -3.037  12.427  23.451  0.00  0.00    +0.000 A 
ATOM     21  C   UNL     1      -1.945  11.595  23.204  0.00  0.00    +0.000 A 
ENDBRANCH  13  15
ENDBRANCH   1  13
BRANCH   7  22
ATOM     22  S   UNL     1       4.883   4.320  18.413  0.00  0.00    +0.000 S 
ATOM     23  O   UNL     1       6.058   4.393  19.251  0.00  0.00    +0.000 OA
ATOM     24  O   UNL     1       4.293   3.045  18.057  0.00  0.00    +0.000 OA
BRANCH  22  25
ATOM     25  N   UNL     1       5.227   5.138  16.950  0.00  0.00    +0.000 NA
ATOM     26  C   UNL     1       4.838   4.467  15.685  0.00  0.00    +0.000 C 
ATOM     27  C   UNL     1       6.109   3.829  15.165  0.00  0.00    +0.000 C 
ATOM     28  C   UNL     1       7.192   4.810  15.562  0.00  0.00    +0.000 C 
ATOM     29  C   UNL     1       6.673   5.508  16.815  0.00  0.00    +0.000 C 
ENDBRANCH  22  25
ENDBRANCH   7  22
TORSDOF 4
ENDMDL
MODEL 8
REMARK VINA RESULT:      -7.5      4.361     10.143
REMARK  Name = 
REMARK  4 active torsions:
REMARK  status: ('A' for Active; 'I' for Inactive)
REMARK    1  A    between atoms: S_2  and  N_4
REMARK    2  A    between atoms: S_2  and  C_22
REMARK    3  A    between atoms: C_10  and  S_11
REMARK    4  A    between atoms: S_11  and  N_14
REMARK                            x       y       z     vdW  Elec       q    Type
REMARK                         _______ _______ _______ _____ _____    ______ ____
ROOT
ATOM      1  N   UNL     1      -0.394  11.807  19.768  0.00  0.00    +0.000 N 
ATOM      2  C   UNL     1       0.370  10.618  19.683  0.00  0.00    +0.000 A 
ATOM      3  N   UNL     1       0.262   9.692  20.597  0.00  0.00    +0.000 NA
ATOM      4  C   UNL     1       1.068   8.619  20.256  0.00  0.00    +0.000 A 
ATOM      5  C   UNL     1       1.240   7.446  21.020  0.00  0.00    +0.000 A 
ATOM      6  C   UNL     1       2.077   6.428  20.554  0.00  0.00    +0.000 A 
ATOM      7  C   UNL     1       2.736   6.570  19.332  0.00  0.00    +0.000 A 
ATOM      8  C   UNL     1       2.601   7.727  18.556  0.00  0.00    +0.000 A 
ATOM      9  C   UNL     1       1.750   8.738  19.040  0.00  0.00    +0.000 A 
ATOM     10  S   UNL     1       1.337  10.253  18.327  0.00  0.00    +0.000 S 
ATOM     11  H   UNL     1      -0.457  12.235  18.844  0.00  0.00    +0.000 HD
ENDROOT
BRANCH   1  13
ATOM     12  O   UNL     1       1.615  12.445  21.316  0.00  0.00    +0.000 OA
ATOM     13  S   UNL     1       0.394  12.959  20.734  0.00  0.00    +0.000 S 
ATOM     14  O   UNL     1       0.384  14.169  19.940  0.00  0.00    +0.000 OA
BRANCH  13  15
ATOM     15  C   UNL     1      -0.778  13.163  22.052  0.00  0.00    +0.000 A 
ATOM     16  C   UNL     1      -1.739  12.167  22.268  0.00  0.00    +0.000 A 
ATOM     17  C   UNL     1      -2.690  12.343  23.273  0.00  0.00    +0.000 A 
ATOM     18  C   UNL     1      -2.666  13.497  24.051  0.00  0.00    +0.000 A 
ATOM     19  F   UNL     1      -3.594  13.672  25.000  0.00  0.00    +0.000 F 
ATOM     20  C   UNL     1      -1.697  14.479  23.854  0.00  0.00    +0.000 A 
ATOM     21  C   UNL     1      -0.741  14.314  22.851  0.00  0.00    +0.000 A 
ENDBRANCH  13  15
ENDBRANCH   1  13
BRANCH   7  22
ATOM     22  S   UNL     1       3.782   5.251  18.751  0.00  0.00    +0.000 S 
ATOM     23  O   UNL     1       3.739   5.278  17.307  0.00  0.00    +0.000 OA
ATOM     24  O   UNL     1       5.040   5.327  19.467  0.00  0.00    +0.000 OA
BRANCH  22  25
ATOM     25  N   UNL     1       2.993   3.827  19.275  0.00  0.00    +0.000 NA
ATOM     26  C   UNL     1       3.822   2.606  19.431  0.00  0.00    +0.000 C 
ATOM     27  C   UNL     1       3.585   1.799  18.172  0.00  0.00    +0.000 C 
ATOM     28  C   UNL     1       2.131   2.065  17.843  0.00  0.00    +0.000 C 
ATOM     29  C   UNL     1       1.831   3.450  18.408  0.00  0.00    +0.000 C 
ENDBRANCH  22  25
ENDBRANCH   7  22
TORSDOF 4
ENDMDL
MODEL 9
REMARK VINA RESULT:      -7.5      4.093      9.834
REMARK  Name = 
REMARK  4 active torsions:
REMARK  status: ('A' for Active; 'I' for Inactive)
REMARK    1  A    between atoms: S_2  and  N_4
REMARK    2  A    between atoms: S_2  and  C_22
REMARK    3  A    between atoms: C_10  and  S_11
REMARK    4  A    between atoms: S_11  and  N_14
REMARK                            x       y       z     vdW  Elec       q    Type
REMARK                         _______ _______ _______ _____ _____    ______ ____
ROOT
ATOM      1  N   UNL     1      -0.086  10.237  19.713  0.00  0.00    +0.000 N 
ATOM      2  C   UNL     1       0.846   9.193  19.498  0.00  0.00    +0.000 A 
ATOM      3  N   UNL     1       0.891   8.167  20.305  0.00  0.00    +0.000 NA
ATOM      4  C   UNL     1       1.843   7.270  19.849  0.00  0.00    +0.000 A 
ATOM      5  C   UNL     1       2.199   6.060  20.479  0.00  0.00    +0.000 A 
ATOM      6  C   UNL     1       3.172   5.237  19.905  0.00  0.00    +0.000 A 
ATOM      7  C   UNL     1       3.784   5.608  18.707  0.00  0.00    +0.000 A 
ATOM      8  C   UNL     1       3.466   6.810  18.063  0.00  0.00    +0.000 A 
ATOM      9  C   UNL     1       2.481   7.623  18.654  0.00  0.00    +0.000 A 
ATOM     10  S   UNL     1       1.836   9.127  18.112  0.00  0.00    +0.000 S 
ATOM     11  H   UNL     1      -0.227  10.749  18.842  0.00  0.00    +0.000 HD
ENDROOT
BRANCH   1  13
ATOM     12  O   UNL     1       1.314  10.770  21.856  0.00  0.00    +0.000 OA
ATOM     13  S   UNL     1       0.535  11.382  20.801  0.00  0.00    +0.000 S 
ATOM     14  O   UNL     1       1.085  12.423  19.960  0.00  0.00    +0.000 OA
BRANCH  13  15
ATOM     15  C   UNL     1      -0.956  12.005  21.534  0.00  0.00    +0.000 A 
ATOM     16  C   UNL     1      -1.338  11.541  22.799  0.00  0.00    +0.000 A 
ATOM     17  C   UNL     1      -2.531  11.993  23.361  0.00  0.00    +0.000 A 
ATOM     18  C   UNL     1      -3.320  12.904  22.664  0.00  0.00    +0.000 A 
ATOM     19  F   UNL     1      -4.476  13.320  23.197  0.00  0.00    +0.000 F 
ATOM     20  C   UNL     1      -2.931  13.386  21.416  0.00  0.00    +0.000 A 
ATOM     21  C   UNL     1      -1.739  12.940  20.844  0.00  0.00    +0.000 A 
ENDBRANCH  13  15
ENDBRANCH   1  13
BRANCH   7  22
ATOM     22  S   UNL     1       5.006   4.533  17.986  0.00  0.00    +0.000 S 
ATOM     23  O   UNL     1       6.174   4.584  18.837  0.00  0.00    +0.000 OA
ATOM     24  O   UNL     1       4.365   3.274  17.665  0.00  0.00    +0.000 OA
BRANCH  22  25
ATOM     25  N   UNL     1       5.404   5.285  16.502  0.00  0.00    +0.000 NA
ATOM     26  C   UNL     1       5.003   4.588  15.255  0.00  0.00    +0.000 C 
ATOM     27  C   UNL     1       6.252   3.879  14.774  0.00  0.00    +0.000 C 
ATOM     28  C   UNL     1       7.371   4.826  15.153  0.00  0.00    +0.000 C 
ATOM     29  C   UNL     1       6.866   5.588  16.375  0.00  0.00    +0.000 C 
ENDBRANCH  22  25
ENDBRANCH   7  22
TORSDOF 4
ENDMDL
