MODEL 1
REMARK VINA RESULT:      -7.8      0.000      0.000
REMARK  Name = 
REMARK  8 active torsions:
REMARK  status: ('A' for Active; 'I' for Inactive)
REMARK    1  A    between atoms: C_1  and  O_2
REMARK    2  A    between atoms: O_2  and  C_3
REMARK    3  A    between atoms: N_19  and  C_20
REMARK    4  A    between atoms: C_20  and  C_21
REMARK    5  A    between atoms: C_21  and  O_23
REMARK    6  A    between atoms: O_23  and  C_24
REMARK    7  A    between atoms: C_24  and  C_25
REMARK    8  A    between atoms: C_24  and  C_26
REMARK                            x       y       z     vdW  Elec       q    Type
REMARK                         _______ _______ _______ _____ _____    ______ ____
ROOT
ATOM      1  C   UNL     1       5.407   5.762  16.125  0.00  0.00    +0.000 A 
ATOM      2  C   UNL     1       5.554   4.679  16.988  0.00  0.00    +0.000 A 
ATOM      3  C   UNL     1       4.848   4.612  18.194  0.00  0.00    +0.000 A 
ATOM      4  C   UNL     1       3.981   5.665  18.514  0.00  0.00    +0.000 A 
ATOM      5  C   UNL     1       3.832   6.783  17.679  0.00  0.00    +0.000 A 
ATOM      6  C   UNL     1       4.570   6.830  16.476  0.00  0.00    +0.000 A 
ATOM      7  C   UNL     1       2.895   7.654  18.307  0.00  0.00    +0.000 A 
ATOM      8  N   UNL     1       2.407   8.868  17.933  0.00  0.00    +0.000 NA
ATOM      9  C   UNL     1       1.519   9.396  18.792  0.00  0.00    +0.000 A 
ATOM     10  C   UNL     1       0.992  10.655  18.516  0.00  0.00    +0.000 A 
ATOM     11  C   UNL     1       0.070  11.268  19.369  0.00  0.00    +0.000 A 
ATOM     12  C   UNL     1      -0.350  10.607  20.514  0.00  0.00    +0.000 A 
ATOM     13  C   UNL     1       0.166   9.344  20.803  0.00  0.00    +0.000 A 
ATOM     14  C   UNL     1       1.097   8.731  19.976  0.00  0.00    +0.000 A 
ATOM     15  N   UNL     1       1.565   7.526  20.345  0.00  0.00    +0.000 NA
ATOM     16  C   UNL     1       2.477   7.041  19.480  0.00  0.00    +0.000 A 
ATOM     17  N   UNL     1       3.158   5.861  19.607  0.00  0.00    +0.000 N 
ENDROOT
BRANCH   1  19
ATOM     18  C   UNL     1       6.870   4.788  14.542  0.00  0.00    +0.000 C 
ATOM     19  O   UNL     1       6.065   5.898  14.930  0.00  0.00    +0.000 OA
ENDBRANCH   1  19
BRANCH  17  20
ATOM     20  C   UNL     1       2.993   4.945  20.725  0.00  0.00    +0.000 C 
BRANCH  20  21
ATOM     21  C   UNL     1       1.941   3.895  20.465  0.00  0.00    +0.000 C 
ATOM     22  O   UNL     1       0.730   4.065  20.484  0.00  0.00    +0.000 OA
BRANCH  21  23
ATOM     23  O   UNL     1       2.551   2.694  20.215  0.00  0.00    +0.000 OA
BRANCH  23  24
ATOM     24  C   UNL     1       2.175   2.041  18.985  0.00  0.00    +0.000 C 
ATOM     25  C   UNL     1       1.613   3.067  18.007  0.00  0.00    +0.000 C 
ATOM     26  C   UNL     1       3.424   1.385  18.404  0.00  0.00    +0.000 C 
ENDBRANCH  23  24
ENDBRANCH  21  23
ENDBRANCH  20  21
ENDBRANCH  17  20
TORSDOF 5
ENDMDL
MODEL 2
REMARK VINA RESULT:      -7.7      1.350      2.228
REMARK  Name = 
REMARK  8 active torsions:
REMARK  status: ('A' for Active; 'I' for Inactive)
REMARK    1  A    between atoms: C_1  and  O_2
REMARK    2  A    between atoms: O_2  and  C_3
REMARK    3  A    between atoms: N_19  and  C_20
REMARK    4  A    between atoms: C_20  and  C_21
REMARK    5  A    between atoms: C_21  and  O_23
REMARK    6  A    between atoms: O_23  and  C_24
REMARK    7  A    between atoms: C_24  and  C_25
REMARK    8  A    between atoms: C_24  and  C_26
REMARK                            x       y       z     vdW  Elec       q    Type
REMARK                         _______ _______ _______ _____ _____    ______ ____
ROOT
ATOM      1  C   UNL     1       6.197   5.246  14.690  0.00  0.00    +0.000 A 
ATOM      2  C   UNL     1       6.563   4.065  15.331  0.00  0.00    +0.000 A 
ATOM      3  C   UNL     1       6.065   3.743  16.598  0.00  0.00    +0.000 A 
ATOM      4  C   UNL     1       5.179   4.640  17.209  0.00  0.00    +0.000 A 
ATOM      5  C   UNL     1       4.812   5.850  16.602  0.00  0.00    +0.000 A 
ATOM      6  C   UNL     1       5.344   6.156  15.330  0.00  0.00    +0.000 A 
ATOM      7  C   UNL     1       3.920   6.514  17.494  0.00  0.00    +0.000 A 
ATOM      8  N   UNL     1       3.285   7.713  17.399  0.00  0.00    +0.000 NA
ATOM      9  C   UNL     1       2.505   8.011  18.453  0.00  0.00    +0.000 A 
ATOM     10  C   UNL     1       1.844   9.235  18.469  0.00  0.00    +0.000 A 
ATOM     11  C   UNL     1       1.022   9.613  19.535  0.00  0.00    +0.000 A 
ATOM     12  C   UNL     1       0.842   8.745  20.602  0.00  0.00    +0.000 A 
ATOM     13  C   UNL     1       1.495   7.514  20.600  0.00  0.00    +0.000 A 
ATOM     14  C   UNL     1       2.329   7.133  19.558  0.00  0.00    +0.000 A 
ATOM     15  N   UNL     1       2.943   5.941  19.651  0.00  0.00    +0.000 NA
ATOM     16  C   UNL     1       3.743   5.690  18.596  0.00  0.00    +0.000 A 
ATOM     17  N   UNL     1       4.526   4.581  18.427  0.00  0.00    +0.000 N 
ENDROOT
BRANCH   1  19
ATOM     18  C   UNL     1       7.991   5.273  13.149  0.00  0.00    +0.000 C 
ATOM     19  O   UNL     1       6.645   5.629  13.452  0.00  0.00    +0.000 OA
ENDBRANCH   1  19
BRANCH  17  20
ATOM     20  C   UNL     1       4.612   3.493  19.389  0.00  0.00    +0.000 C 
BRANCH  20  21
ATOM     21  C   UNL     1       3.704   2.339  19.044  0.00  0.00    +0.000 C 
ATOM     22  O   UNL     1       3.657   1.751  17.973  0.00  0.00    +0.000 OA
BRANCH  21  23
ATOM     23  O   UNL     1       2.911   2.049  20.123  0.00  0.00    +0.000 OA
BRANCH  23  24
ATOM     24  C   UNL     1       1.859   2.994  20.403  0.00  0.00    +0.000 C 
ATOM     25  C   UNL     1       0.716   2.805  19.412  0.00  0.00    +0.000 C 
ATOM     26  C   UNL     1       1.371   2.742  21.827  0.00  0.00    +0.000 C 
ENDBRANCH  23  24
ENDBRANCH  21  23
ENDBRANCH  20  21
ENDBRANCH  17  20
TORSDOF 5
ENDMDL
MODEL 3
REMARK VINA RESULT:      -7.7      1.713      4.862
REMARK  Name = 
REMARK  8 active torsions:
REMARK  status: ('A' for Active; 'I' for Inactive)
REMARK    1  A    between atoms: C_1  and  O_2
REMARK    2  A    between atoms: O_2  and  C_3
REMARK    3  A    between atoms: N_19  and  C_20
REMARK    4  A    between atoms: C_20  and  C_21
REMARK    5  A    between atoms: C_21  and  O_23
REMARK    6  A    between atoms: O_23  and  C_24
REMARK    7  A    between atoms: C_24  and  C_25
REMARK    8  A    between atoms: C_24  and  C_26
REMARK                            x       y       z     vdW  Elec       q    Type
REMARK                         _______ _______ _______ _____ _____    ______ ____
ROOT
ATOM      1  C   UNL     1       3.348   3.307  20.164  0.00  0.00    +0.000 A 
ATOM      2  C   UNL     1       4.107   3.047  19.025  0.00  0.00    +0.000 A 
ATOM      3  C   UNL     1       4.300   4.024  18.043  0.00  0.00    +0.000 A 
ATOM      4  C   UNL     1       3.711   5.281  18.235  0.00  0.00    +0.000 A 
ATOM      5  C   UNL     1       2.919   5.566  19.357  0.00  0.00    +0.000 A 
ATOM      6  C   UNL     1       2.729   4.554  20.323  0.00  0.00    +0.000 A 
ATOM      7  C   UNL     1       2.475   6.914  19.227  0.00  0.00    +0.000 A 
ATOM      8  N   UNL     1       1.681   7.679  20.024  0.00  0.00    +0.000 NA
ATOM      9  C   UNL     1       1.483   8.929  19.572  0.00  0.00    +0.000 A 
ATOM     10  C   UNL     1       0.651   9.776  20.299  0.00  0.00    +0.000 A 
ATOM     11  C   UNL     1       0.394  11.086  19.884  0.00  0.00    +0.000 A 
ATOM     12  C   UNL     1       0.992  11.569  18.729  0.00  0.00    +0.000 A 
ATOM     13  C   UNL     1       1.831  10.734  17.992  0.00  0.00    +0.000 A 
ATOM     14  C   UNL     1       2.079   9.425  18.380  0.00  0.00    +0.000 A 
ATOM     15  N   UNL     1       2.876   8.679  17.595  0.00  0.00    +0.000 NA
ATOM     16  C   UNL     1       3.026   7.423  18.059  0.00  0.00    +0.000 A 
ATOM     17  N   UNL     1       3.742   6.424  17.457  0.00  0.00    +0.000 N 
ENDROOT
BRANCH   1  19
ATOM     18  C   UNL     1       1.828   2.475  21.772  0.00  0.00    +0.000 C 
ATOM     19  O   UNL     1       3.115   2.401  21.165  0.00  0.00    +0.000 OA
ENDBRANCH   1  19
BRANCH  17  20
ATOM     20  C   UNL     1       4.454   6.581  16.199  0.00  0.00    +0.000 C 
BRANCH  20  21
ATOM     21  C   UNL     1       5.952   6.500  16.365  0.00  0.00    +0.000 C 
ATOM     22  O   UNL     1       6.711   5.778  15.734  0.00  0.00    +0.000 OA
BRANCH  21  23
ATOM     23  O   UNL     1       6.345   7.359  17.359  0.00  0.00    +0.000 OA
BRANCH  23  24
ATOM     24  C   UNL     1       7.748   7.335  17.692  0.00  0.00    +0.000 C 
ATOM     25  C   UNL     1       8.217   8.741  18.049  0.00  0.00    +0.000 C 
ATOM     26  C   UNL     1       7.930   6.398  18.881  0.00  0.00    +0.000 C 
ENDBRANCH  23  24
ENDBRANCH  21  23
ENDBRANCH  20  21
ENDBRANCH  17  20
TORSDOF 5
ENDMDL
MODEL 4
REMARK VINA RESULT:      -7.7      1.323      2.069
REMARK  Name = 
REMARK  8 active torsions:
REMARK  status: ('A' for Active; 'I' for Inactive)
REMARK    1  A    between atoms: C_1  and  O_2
REMARK    2  A    between atoms: O_2  and  C_3
REMARK    3  A    between atoms: N_19  and  C_20
REMARK    4  A    between atoms: C_20  and  C_21
REMARK    5  A    between atoms: C_21  and  O_23
REMARK    6  A    between atoms: O_23  and  C_24
REMARK    7  A    between atoms: C_24  and  C_25
REMARK    8  A    between atoms: C_24  and  C_26
REMARK                            x       y       z     vdW  Elec       q    Type
REMARK                         _______ _______ _______ _____ _____    ______ ____
ROOT
ATOM      1  C   UNL     1       6.307   5.152  15.074  0.00  0.00    +0.000 A 
ATOM      2  C   UNL     1       6.727   4.150  15.946  0.00  0.00    +0.000 A 
ATOM      3  C   UNL     1       6.211   4.054  17.242  0.00  0.00    +0.000 A 
ATOM      4  C   UNL     1       5.250   4.992  17.645  0.00  0.00    +0.000 A 
ATOM      5  C   UNL     1       4.826   6.029  16.800  0.00  0.00    +0.000 A 
ATOM      6  C   UNL     1       5.378   6.110  15.502  0.00  0.00    +0.000 A 
ATOM      7  C   UNL     1       3.867   6.795  17.524  0.00  0.00    +0.000 A 
ATOM      8  N   UNL     1       3.160   7.905  17.179  0.00  0.00    +0.000 NA
ATOM      9  C   UNL     1       2.330   8.352  18.137  0.00  0.00    +0.000 A 
ATOM     10  C   UNL     1       1.592   9.507  17.894  0.00  0.00    +0.000 A 
ATOM     11  C   UNL     1       0.715  10.033  18.847  0.00  0.00    +0.000 A 
ATOM     12  C   UNL     1       0.557   9.385  20.064  0.00  0.00    +0.000 A 
ATOM     13  C   UNL     1       1.287   8.226  20.322  0.00  0.00    +0.000 A 
ATOM     14  C   UNL     1       2.176   7.702  19.393  0.00  0.00    +0.000 A 
ATOM     15  N   UNL     1       2.861   6.598  19.734  0.00  0.00    +0.000 NA
ATOM     16  C   UNL     1       3.708   6.197  18.766  0.00  0.00    +0.000 A 
ATOM     17  N   UNL     1       4.565   5.133  18.837  0.00  0.00    +0.000 N 
ENDROOT
BRANCH   1  19
ATOM     18  C   UNL     1       6.615   4.177  12.941  0.00  0.00    +0.000 C 
ATOM     19  O   UNL     1       6.767   5.310  13.793  0.00  0.00    +0.000 OA
ENDBRANCH   1  19
BRANCH  17  20
ATOM     20  C   UNL     1       4.690   4.268  20.000  0.00  0.00    +0.000 C 
BRANCH  20  21
ATOM     21  C   UNL     1       4.152   2.881  19.752  0.00  0.00    +0.000 C 
ATOM     22  O   UNL     1       4.759   1.831  19.909  0.00  0.00    +0.000 OA
BRANCH  21  23
ATOM     23  O   UNL     1       2.860   2.969  19.301  0.00  0.00    +0.000 OA
BRANCH  23  24
ATOM     24  C   UNL     1       1.838   2.578  20.240  0.00  0.00    +0.000 C 
ATOM     25  C   UNL     1       2.335   2.792  21.665  0.00  0.00    +0.000 C 
ATOM     26  C   UNL     1       0.605   3.437  19.974  0.00  0.00    +0.000 C 
ENDBRANCH  23  24
ENDBRANCH  21  23
ENDBRANCH  20  21
ENDBRANCH  17  20
TORSDOF 5
ENDMDL
MODEL 5
REMARK VINA RESULT:      -7.5      1.726      5.437
REMARK  Name = 
REMARK  8 active torsions:
REMARK  status: ('A' for Active; 'I' for Inactive)
REMARK    1  A    between atoms: C_1  and  O_2
REMARK    2  A    between atoms: O_2  and  C_3
REMARK    3  A    between atoms: N_19  and  C_20
REMARK    4  A    between atoms: C_20  and  C_21
REMARK    5  A    between atoms: C_21  and  O_23
REMARK    6  A    between atoms: O_23  and  C_24
REMARK    7  A    between atoms: C_24  and  C_25
REMARK    8  A    between atoms: C_24  and  C_26
REMARK                            x       y       z     vdW  Elec       q    Type
REMARK                         _______ _______ _______ _____ _____    ______ ____
ROOT
ATOM      1  C   UNL     1       1.089   9.593  19.200  0.00  0.00    +0.000 A 
ATOM      2  C   UNL     1       0.760   8.915  20.371  0.00  0.00    +0.000 A 
ATOM      3  C   UNL     1       1.310   7.663  20.664  0.00  0.00    +0.000 A 
ATOM      4  C   UNL     1       2.210   7.104  19.747  0.00  0.00    +0.000 A 
ATOM      5  C   UNL     1       2.542   7.748  18.546  0.00  0.00    +0.000 A 
ATOM      6  C   UNL     1       1.957   9.004  18.270  0.00  0.00    +0.000 A 
ATOM      7  C   UNL     1       3.460   6.904  17.856  0.00  0.00    +0.000 A 
ATOM      8  N   UNL     1       4.080   7.046  16.653  0.00  0.00    +0.000 NA
ATOM      9  C   UNL     1       4.897   6.030  16.328  0.00  0.00    +0.000 A 
ATOM     10  C   UNL     1       5.546   6.064  15.097  0.00  0.00    +0.000 A 
ATOM     11  C   UNL     1       6.404   5.038  14.691  0.00  0.00    +0.000 A 
ATOM     12  C   UNL     1       6.634   3.961  15.536  0.00  0.00    +0.000 A 
ATOM     13  C   UNL     1       5.994   3.914  16.773  0.00  0.00    +0.000 A 
ATOM     14  C   UNL     1       5.123   4.916  17.182  0.00  0.00    +0.000 A 
ATOM     15  N   UNL     1       4.525   4.776  18.378  0.00  0.00    +0.000 NA
ATOM     16  C   UNL     1       3.688   5.795  18.657  0.00  0.00    +0.000 A 
ATOM     17  N   UNL     1       2.910   5.912  19.776  0.00  0.00    +0.000 N 
ENDROOT
BRANCH   1  19
ATOM     18  C   UNL     1       1.501  11.909  18.962  0.00  0.00    +0.000 C 
ATOM     19  O   UNL     1       0.591  10.819  18.845  0.00  0.00    +0.000 OA
ENDBRANCH   1  19
BRANCH  17  20
ATOM     20  C   UNL     1       2.872   4.926  20.845  0.00  0.00    +0.000 C 
BRANCH  20  21
ATOM     21  C   UNL     1       1.882   3.819  20.580  0.00  0.00    +0.000 C 
ATOM     22  O   UNL     1       0.664   3.911  20.625  0.00  0.00    +0.000 OA
BRANCH  21  23
ATOM     23  O   UNL     1       2.562   2.664  20.289  0.00  0.00    +0.000 OA
BRANCH  23  24
ATOM     24  C   UNL     1       2.201   2.016  19.052  0.00  0.00    +0.000 C 
ATOM     25  C   UNL     1       1.537   3.022  18.117  0.00  0.00    +0.000 C 
ATOM     26  C   UNL     1       3.478   1.470  18.421  0.00  0.00    +0.000 C 
ENDBRANCH  23  24
ENDBRANCH  21  23
ENDBRANCH  20  21
ENDBRANCH  17  20
TORSDOF 5
ENDMDL
MODEL 6
REMARK VINA RESULT:      -7.3      1.341      4.612
REMARK  Name = 
REMARK  8 active torsions:
REMARK  status: ('A' for Active; 'I' for Inactive)
REMARK    1  A    between atoms: C_1  and  O_2
REMARK    2  A    between atoms: O_2  and  C_3
REMARK    3  A    between atoms: N_19  and  C_20
REMARK    4  A    between atoms: C_20  and  C_21
REMARK    5  A    between atoms: C_21  and  O_23
REMARK    6  A    between atoms: O_23  and  C_24
REMARK    7  A    between atoms: C_24  and  C_25
REMARK    8  A    between atoms: C_24  and  C_26
REMARK                            x       y       z     vdW  Elec       q    Type
REMARK                         _______ _______ _______ _____ _____    ______ ____
ROOT
ATOM      1  C   UNL     1       3.273   3.338  20.294  0.00  0.00    +0.000 A 
ATOM      2  C   UNL     1       4.105   3.062  19.211  0.00  0.00    +0.000 A 
ATOM      3  C   UNL     1       4.366   4.026  18.233  0.00  0.00    +0.000 A 
ATOM      4  C   UNL     1       3.771   5.288  18.370  0.00  0.00    +0.000 A 
ATOM      5  C   UNL     1       2.908   5.589  19.434  0.00  0.00    +0.000 A 
ATOM      6  C   UNL     1       2.650   4.590  20.397  0.00  0.00    +0.000 A 
ATOM      7  C   UNL     1       2.480   6.937  19.258  0.00  0.00    +0.000 A 
ATOM      8  N   UNL     1       1.637   7.714  19.992  0.00  0.00    +0.000 NA
ATOM      9  C   UNL     1       1.475   8.959  19.513  0.00  0.00    +0.000 A 
ATOM     10  C   UNL     1       0.600   9.818  20.173  0.00  0.00    +0.000 A 
ATOM     11  C   UNL     1       0.378  11.124  19.726  0.00  0.00    +0.000 A 
ATOM     12  C   UNL     1       1.052  11.591  18.607  0.00  0.00    +0.000 A 
ATOM     13  C   UNL     1       1.934  10.744  17.938  0.00  0.00    +0.000 A 
ATOM     14  C   UNL     1       2.151   9.438  18.357  0.00  0.00    +0.000 A 
ATOM     15  N   UNL     1       2.995   8.681  17.636  0.00  0.00    +0.000 NA
ATOM     16  C   UNL     1       3.108   7.430  18.124  0.00  0.00    +0.000 A 
ATOM     17  N   UNL     1       3.858   6.421  17.583  0.00  0.00    +0.000 N 
ENDROOT
BRANCH   1  19
ATOM     18  C   UNL     1       1.660   2.560  21.838  0.00  0.00    +0.000 C 
ATOM     19  O   UNL     1       2.970   2.446  21.289  0.00  0.00    +0.000 OA
ENDBRANCH   1  19
BRANCH  17  20
ATOM     20  C   UNL     1       4.653   6.560  16.373  0.00  0.00    +0.000 C 
BRANCH  20  21
ATOM     21  C   UNL     1       6.130   6.675  16.658  0.00  0.00    +0.000 C 
ATOM     22  O   UNL     1       6.694   7.627  17.178  0.00  0.00    +0.000 OA
BRANCH  21  23
ATOM     23  O   UNL     1       6.765   5.540  16.226  0.00  0.00    +0.000 OA
BRANCH  23  24
ATOM     24  C   UNL     1       6.315   5.009  14.962  0.00  0.00    +0.000 C 
ATOM     25  C   UNL     1       7.409   5.175  13.914  0.00  0.00    +0.000 C 
ATOM     26  C   UNL     1       5.995   3.531  15.164  0.00  0.00    +0.000 C 
ENDBRANCH  23  24
ENDBRANCH  21  23
ENDBRANCH  20  21
ENDBRANCH  17  20
TORSDOF 5
ENDMDL
MODEL 7
REMARK VINA RESULT:      -7.3      1.803      5.561
REMARK  Name = 
REMARK  8 active torsions:
REMARK  status: ('A' for Active; 'I' for Inactive)
REMARK    1  A    between atoms: C_1  and  O_2
REMARK    2  A    between atoms: O_2  and  C_3
REMARK    3  A    between atoms: N_19  and  C_20
REMARK    4  A    between atoms: C_20  and  C_21
REMARK    5  A    between atoms: C_21  and  O_23
REMARK    6  A    between atoms: O_23  and  C_24
REMARK    7  A    between atoms: C_24  and  C_25
REMARK    8  A    between atoms: C_24  and  C_26
REMARK                            x       y       z     vdW  Elec       q    Type
REMARK                         _______ _______ _______ _____ _____    ______ ____
ROOT
ATOM      1  C   UNL     1       1.103   9.835  19.123  0.00  0.00    +0.000 A 
ATOM      2  C   UNL     1       0.741   9.183  20.300  0.00  0.00    +0.000 A 
ATOM      3  C   UNL     1       1.252   7.920  20.616  0.00  0.00    +0.000 A 
ATOM      4  C   UNL     1       2.147   7.323  19.717  0.00  0.00    +0.000 A 
ATOM      5  C   UNL     1       2.510   7.941  18.512  0.00  0.00    +0.000 A 
ATOM      6  C   UNL     1       1.965   9.209  18.212  0.00  0.00    +0.000 A 
ATOM      7  C   UNL     1       3.413   7.062  17.844  0.00  0.00    +0.000 A 
ATOM      8  N   UNL     1       4.050   7.170  16.647  0.00  0.00    +0.000 NA
ATOM      9  C   UNL     1       4.842   6.127  16.346  0.00  0.00    +0.000 A 
ATOM     10  C   UNL     1       5.506   6.125  15.123  0.00  0.00    +0.000 A 
ATOM     11  C   UNL     1       6.339   5.070  14.741  0.00  0.00    +0.000 A 
ATOM     12  C   UNL     1       6.528   3.999  15.602  0.00  0.00    +0.000 A 
ATOM     13  C   UNL     1       5.873   3.987  16.832  0.00  0.00    +0.000 A 
ATOM     14  C   UNL     1       5.026   5.018  17.217  0.00  0.00    +0.000 A 
ATOM     15  N   UNL     1       4.411   4.912  18.407  0.00  0.00    +0.000 NA
ATOM     16  C   UNL     1       3.600   5.958  18.662  0.00  0.00    +0.000 A 
ATOM     17  N   UNL     1       2.812   6.112  19.770  0.00  0.00    +0.000 N 
ENDROOT
BRANCH   1  19
ATOM     18  C   UNL     1      -0.760  11.272  18.886  0.00  0.00    +0.000 C 
ATOM     19  O   UNL     1       0.644  11.070  18.746  0.00  0.00    +0.000 OA
ENDBRANCH   1  19
BRANCH  17  20
ATOM     20  C   UNL     1       2.733   5.143  20.852  0.00  0.00    +0.000 C 
BRANCH  20  21
ATOM     21  C   UNL     1       1.791   4.005  20.546  0.00  0.00    +0.000 C 
ATOM     22  O   UNL     1       0.626   4.107  20.191  0.00  0.00    +0.000 OA
BRANCH  21  23
ATOM     23  O   UNL     1       2.440   2.814  20.742  0.00  0.00    +0.000 OA
BRANCH  23  24
ATOM     24  C   UNL     1       3.508   2.519  19.819  0.00  0.00    +0.000 C 
ATOM     25  C   UNL     1       4.612   1.748  20.535  0.00  0.00    +0.000 C 
ATOM     26  C   UNL     1       2.927   1.681  18.684  0.00  0.00    +0.000 C 
ENDBRANCH  23  24
ENDBRANCH  21  23
ENDBRANCH  20  21
ENDBRANCH  17  20
TORSDOF 5
ENDMDL
MODEL 8
REMARK VINA RESULT:      -7.3      4.067      6.084
REMARK  Name = 
REMARK  8 active torsions:
REMARK  status: ('A' for Active; 'I' for Inactive)
REMARK    1  A    between atoms: C_1  and  O_2
REMARK    2  A    between atoms: O_2  and  C_3
REMARK    3  A    between atoms: N_19  and  C_20
REMARK    4  A    between atoms: C_20  and  C_21
REMARK    5  A    between atoms: C_21  and  O_23
REMARK    6  A    between atoms: O_23  and  C_24
REMARK    7  A    between atoms: C_24  and  C_25
REMARK    8  A    between atoms: C_24  and  C_26
REMARK                            x       y       z     vdW  Elec       q    Type
REMARK                         _______ _______ _______ _____ _____    ______ ____
ROOT
ATOM      1  C   UNL     1       6.330   4.020  13.530  0.00  0.00    +0.000 A 
ATOM      2  C   UNL     1       7.459   4.741  13.913  0.00  0.00    +0.000 A 
ATOM      3  C   UNL     1       7.575   5.276  15.200  0.00  0.00    +0.000 A 
ATOM      4  C   UNL     1       6.524   5.066  16.102  0.00  0.00    +0.000 A 
ATOM      5  C   UNL     1       5.363   4.368  15.739  0.00  0.00    +0.000 A 
ATOM      6  C   UNL     1       5.267   3.853  14.428  0.00  0.00    +0.000 A 
ATOM      7  C   UNL     1       4.508   4.353  16.880  0.00  0.00    +0.000 A 
ATOM      8  N   UNL     1       3.268   3.824  17.065  0.00  0.00    +0.000 NA
ATOM      9  C   UNL     1       2.768   4.005  18.300  0.00  0.00    +0.000 A 
ATOM     10  C   UNL     1       1.488   3.534  18.576  0.00  0.00    +0.000 A 
ATOM     11  C   UNL     1       0.903   3.693  19.836  0.00  0.00    +0.000 A 
ATOM     12  C   UNL     1       1.614   4.321  20.848  0.00  0.00    +0.000 A 
ATOM     13  C   UNL     1       2.899   4.795  20.588  0.00  0.00    +0.000 A 
ATOM     14  C   UNL     1       3.486   4.662  19.336  0.00  0.00    +0.000 A 
ATOM     15  N   UNL     1       4.716   5.175  19.164  0.00  0.00    +0.000 NA
ATOM     16  C   UNL     1       5.173   5.006  17.907  0.00  0.00    +0.000 A 
ATOM     17  N   UNL     1       6.370   5.455  17.420  0.00  0.00    +0.000 N 
ENDROOT
BRANCH   1  19
ATOM     18  C   UNL     1       4.788   3.274  11.899  0.00  0.00    +0.000 C 
ATOM     19  O   UNL     1       6.145   3.468  12.289  0.00  0.00    +0.000 OA
ENDBRANCH   1  19
BRANCH  17  20
ATOM     20  C   UNL     1       7.339   6.201  18.208  0.00  0.00    +0.000 C 
BRANCH  20  21
ATOM     21  C   UNL     1       7.480   7.632  17.754  0.00  0.00    +0.000 C 
ATOM     22  O   UNL     1       6.773   8.205  16.937  0.00  0.00    +0.000 OA
BRANCH  21  23
ATOM     23  O   UNL     1       8.549   8.207  18.391  0.00  0.00    +0.000 OA
BRANCH  23  24
ATOM     24  C   UNL     1       8.466   9.632  18.598  0.00  0.00    +0.000 C 
ATOM     25  C   UNL     1       9.160  10.004  19.904  0.00  0.00    +0.000 C 
ATOM     26  C   UNL     1       9.152  10.316  17.420  0.00  0.00    +0.000 C 
ENDBRANCH  23  24
ENDBRANCH  21  23
ENDBRANCH  20  21
ENDBRANCH  17  20
TORSDOF 5
ENDMDL
MODEL 9
REMARK VINA RESULT:      -7.2      0.715      1.067
REMARK  Name = 
REMARK  8 active torsions:
REMARK  status: ('A' for Active; 'I' for Inactive)
REMARK    1  A    between atoms: C_1  and  O_2
REMARK    2  A    between atoms: O_2  and  C_3
REMARK    3  A    between atoms: N_19  and  C_20
REMARK    4  A    between atoms: C_20  and  C_21
REMARK    5  A    between atoms: C_21  and  O_23
REMARK    6  A    between atoms: O_23  and  C_24
REMARK    7  A    between atoms: C_24  and  C_25
REMARK    8  A    between atoms: C_24  and  C_26
REMARK                            x       y       z     vdW  Elec       q    Type
REMARK                         _______ _______ _______ _____ _____    ______ ____
ROOT
ATOM      1  C   UNL     1       5.389   5.739  16.478  0.00  0.00    +0.000 A 
ATOM      2  C   UNL     1       5.551   4.728  17.423  0.00  0.00    +0.000 A 
ATOM      3  C   UNL     1       4.824   4.728  18.617  0.00  0.00    +0.000 A 
ATOM      4  C   UNL     1       3.918   5.774  18.841  0.00  0.00    +0.000 A 
ATOM      5  C   UNL     1       3.752   6.821  17.922  0.00  0.00    +0.000 A 
ATOM      6  C   UNL     1       4.512   6.802  16.733  0.00  0.00    +0.000 A 
ATOM      7  C   UNL     1       2.776   7.706  18.467  0.00  0.00    +0.000 A 
ATOM      8  N   UNL     1       2.258   8.871  17.993  0.00  0.00    +0.000 NA
ATOM      9  C   UNL     1       1.337   9.434  18.795  0.00  0.00    +0.000 A 
ATOM     10  C   UNL     1       0.777  10.650  18.416  0.00  0.00    +0.000 A 
ATOM     11  C   UNL     1      -0.181  11.295  19.203  0.00  0.00    +0.000 A 
ATOM     12  C   UNL     1      -0.603  10.708  20.387  0.00  0.00    +0.000 A 
ATOM     13  C   UNL     1      -0.055   9.488  20.779  0.00  0.00    +0.000 A 
ATOM     14  C   UNL     1       0.912   8.845  20.017  0.00  0.00    +0.000 A 
ATOM     15  N   UNL     1       1.409   7.687  20.484  0.00  0.00    +0.000 NA
ATOM     16  C   UNL     1       2.353   7.168  19.674  0.00  0.00    +0.000 A 
ATOM     17  N   UNL     1       3.068   6.024  19.902  0.00  0.00    +0.000 N 
ENDROOT
BRANCH   1  19
ATOM     18  C   UNL     1       6.866   4.670  14.971  0.00  0.00    +0.000 C 
ATOM     19  O   UNL     1       6.066   5.806  15.288  0.00  0.00    +0.000 OA
ENDBRANCH   1  19
BRANCH  17  20
ATOM     20  C   UNL     1       2.908   5.189  21.082  0.00  0.00    +0.000 C 
BRANCH  20  21
ATOM     21  C   UNL     1       2.404   3.806  20.752  0.00  0.00    +0.000 C 
ATOM     22  O   UNL     1       2.855   2.751  21.176  0.00  0.00    +0.000 OA
BRANCH  21  23
ATOM     23  O   UNL     1       1.355   3.903  19.875  0.00  0.00    +0.000 OA
BRANCH  23  24
ATOM     24  C   UNL     1       1.470   3.124  18.667  0.00  0.00    +0.000 C 
ATOM     25  C   UNL     1       0.436   2.004  18.673  0.00  0.00    +0.000 C 
ATOM     26  C   UNL     1       1.232   4.059  17.484  0.00  0.00    +0.000 C 
ENDBRANCH  23  24
ENDBRANCH  21  23
ENDBRANCH  20  21
ENDBRANCH  17  20
TORSDOF 5
ENDMDL
