MODEL 1
REMARK VINA RESULT:      -8.0      0.000      0.000
REMARK  Name = 
REMARK  7 active torsions:
REMARK  status: ('A' for Active; 'I' for Inactive)
REMARK    1  A    between atoms: C_2  and  C_3
REMARK    2  A    between atoms: C_7  and  C_8
REMARK    3  A    between atoms: C_10  and  C_11
REMARK    4  A    between atoms: C_17  and  O_18
REMARK    5  A    between atoms: O_18  and  C_19
REMARK    6  A    between atoms: C_19  and  C_20
REMARK    7  A    between atoms: C_20  and  O_22
REMARK                            x       y       z     vdW  Elec       q    Type
REMARK                         _______ _______ _______ _____ _____    ______ ____
ROOT
ATOM      1  C   UNL     1       2.680   5.917  18.373  0.00  0.00    +0.000 A 
ATOM      2  C   UNL     1       1.828   4.872  18.826  0.00  0.00    +0.000 A 
ATOM      3  C   UNL     1       2.102   3.508  18.656  0.00  0.00    +0.000 A 
ATOM      4  C   UNL     1       3.247   3.151  17.958  0.00  0.00    +0.000 A 
ATOM      5  C   UNL     1       4.100   4.139  17.466  0.00  0.00    +0.000 A 
ATOM      6  C   UNL     1       3.832   5.515  17.644  0.00  0.00    +0.000 A 
ENDROOT
BRANCH   1  11
ATOM      7  C   UNL     1       1.404   8.962  20.331  0.00  0.00    +0.000 A 
ATOM      8  C   UNL     1       1.175   9.888  19.319  0.00  0.00    +0.000 A 
ATOM      9  C   UNL     1       1.504   9.562  18.005  0.00  0.00    +0.000 A 
ATOM     10  C   UNL     1       2.013   8.291  17.690  0.00  0.00    +0.000 A 
ATOM     11  C   UNL     1       2.259   7.327  18.678  0.00  0.00    +0.000 A 
ATOM     12  C   UNL     1       1.987   7.725  20.012  0.00  0.00    +0.000 A 
BRANCH   7  14
ATOM     13  N   UNL     1       0.699   9.534  22.764  0.00  0.00    +0.000 NA
ATOM     14  C   UNL     1       0.995   9.245  21.679  0.00  0.00    +0.000 C 
ENDBRANCH   7  14
ENDBRANCH   1  11
BRANCH   3  15
ATOM     15  C   UNL     1       1.192   2.453  19.235  0.00  0.00    +0.000 C 
ATOM     16  F   UNL     1       0.112   2.178  18.452  0.00  0.00    +0.000 F 
ATOM     17  F   UNL     1       1.825   1.265  19.433  0.00  0.00    +0.000 F 
ATOM     18  F   UNL     1       0.688   2.819  20.445  0.00  0.00    +0.000 F 
ENDBRANCH   3  15
BRANCH   6  19
ATOM     19  O   UNL     1       4.682   6.478  17.131  0.00  0.00    +0.000 OA
BRANCH  19  20
ATOM     20  C   UNL     1       5.603   6.012  16.130  0.00  0.00    +0.000 C 
BRANCH  20  21
ATOM     21  C   UNL     1       7.048   6.045  16.597  0.00  0.00    +0.000 C 
ATOM     22  O   UNL     1       7.702   7.075  16.695  0.00  0.00    +0.000 OA
BRANCH  21  23
ATOM     23  O   UNL     1       7.555   4.825  16.880  0.00  0.00    +0.000 OA
ATOM     24  H   UNL     1       8.524   4.819  16.729  0.00  0.00    +0.000 HD
ENDBRANCH  21  23
ENDBRANCH  20  21
ENDBRANCH  19  20
ENDBRANCH   6  19
TORSDOF 7
ENDMDL
MODEL 2
REMARK VINA RESULT:      -7.8      0.660      1.035
REMARK  Name = 
REMARK  7 active torsions:
REMARK  status: ('A' for Active; 'I' for Inactive)
REMARK    1  A    between atoms: C_2  and  C_3
REMARK    2  A    between atoms: C_7  and  C_8
REMARK    3  A    between atoms: C_10  and  C_11
REMARK    4  A    between atoms: C_17  and  O_18
REMARK    5  A    between atoms: O_18  and  C_19
REMARK    6  A    between atoms: C_19  and  C_20
REMARK    7  A    between atoms: C_20  and  O_22
REMARK                            x       y       z     vdW  Elec       q    Type
REMARK                         _______ _______ _______ _____ _____    ______ ____
ROOT
ATOM      1  C   UNL     1       2.651   6.189  18.584  0.00  0.00    +0.000 A 
ATOM      2  C   UNL     1       1.831   5.089  18.958  0.00  0.00    +0.000 A 
ATOM      3  C   UNL     1       2.189   3.746  18.771  0.00  0.00    +0.000 A 
ATOM      4  C   UNL     1       3.392   3.469  18.137  0.00  0.00    +0.000 A 
ATOM      5  C   UNL     1       4.217   4.514  17.723  0.00  0.00    +0.000 A 
ATOM      6  C   UNL     1       3.865   5.869  17.918  0.00  0.00    +0.000 A 
ENDROOT
BRANCH   1  11
ATOM      7  C   UNL     1       1.234   9.150  20.574  0.00  0.00    +0.000 A 
ATOM      8  C   UNL     1       0.888  10.043  19.567  0.00  0.00    +0.000 A 
ATOM      9  C   UNL     1       1.180   9.728  18.242  0.00  0.00    +0.000 A 
ATOM     10  C   UNL     1       1.772   8.497  17.914  0.00  0.00    +0.000 A 
ATOM     11  C   UNL     1       2.136   7.566  18.897  0.00  0.00    +0.000 A 
ATOM     12  C   UNL     1       1.896   7.957  20.239  0.00  0.00    +0.000 A 
BRANCH   7  14
ATOM     13  N   UNL     1       0.625   9.593  23.059  0.00  0.00    +0.000 NA
ATOM     14  C   UNL     1       0.867   9.416  21.937  0.00  0.00    +0.000 C 
ENDBRANCH   7  14
ENDBRANCH   1  11
BRANCH   3  15
ATOM     15  C   UNL     1       1.304   2.629  19.267  0.00  0.00    +0.000 C 
ATOM     16  F   UNL     1       0.802   2.847  20.515  0.00  0.00    +0.000 F 
ATOM     17  F   UNL     1       0.228   2.415  18.462  0.00  0.00    +0.000 F 
ATOM     18  F   UNL     1       1.966   1.442  19.337  0.00  0.00    +0.000 F 
ENDBRANCH   3  15
BRANCH   6  19
ATOM     19  O   UNL     1       4.691   6.889  17.482  0.00  0.00    +0.000 OA
BRANCH  19  20
ATOM     20  C   UNL     1       5.880   6.464  16.794  0.00  0.00    +0.000 C 
BRANCH  20  21
ATOM     21  C   UNL     1       7.154   6.971  17.449  0.00  0.00    +0.000 C 
ATOM     22  O   UNL     1       7.734   7.989  17.096  0.00  0.00    +0.000 OA
BRANCH  21  23
ATOM     23  O   UNL     1       7.599   6.183  18.452  0.00  0.00    +0.000 OA
ATOM     24  H   UNL     1       8.558   6.008  18.342  0.00  0.00    +0.000 HD
ENDBRANCH  21  23
ENDBRANCH  20  21
ENDBRANCH  19  20
ENDBRANCH   6  19
TORSDOF 7
ENDMDL
MODEL 3
REMARK VINA RESULT:      -7.8      4.071      5.660
REMARK  Name = 
REMARK  7 active torsions:
REMARK  status: ('A' for Active; 'I' for Inactive)
REMARK    1  A    between atoms: C_2  and  C_3
REMARK    2  A    between atoms: C_7  and  C_8
REMARK    3  A    between atoms: C_10  and  C_11
REMARK    4  A    between atoms: C_17  and  O_18
REMARK    5  A    between atoms: O_18  and  C_19
REMARK    6  A    between atoms: C_19  and  C_20
REMARK    7  A    between atoms: C_20  and  O_22
REMARK                            x       y       z     vdW  Elec       q    Type
REMARK                         _______ _______ _______ _____ _____    ______ ____
ROOT
ATOM      1  C   UNL     1       5.432   4.887  15.569  0.00  0.00    +0.000 A 
ATOM      2  C   UNL     1       4.930   4.303  14.372  0.00  0.00    +0.000 A 
ATOM      3  C   UNL     1       5.728   3.972  13.268  0.00  0.00    +0.000 A 
ATOM      4  C   UNL     1       7.081   4.278  13.320  0.00  0.00    +0.000 A 
ATOM      5  C   UNL     1       7.616   4.879  14.459  0.00  0.00    +0.000 A 
ATOM      6  C   UNL     1       6.816   5.206  15.578  0.00  0.00    +0.000 A 
ENDROOT
BRANCH   1  11
ATOM      7  C   UNL     1       2.522   4.329  18.009  0.00  0.00    +0.000 A 
ATOM      8  C   UNL     1       2.351   5.595  18.558  0.00  0.00    +0.000 A 
ATOM      9  C   UNL     1       3.224   6.620  18.201  0.00  0.00    +0.000 A 
ATOM     10  C   UNL     1       4.238   6.398  17.254  0.00  0.00    +0.000 A 
ATOM     11  C   UNL     1       4.446   5.138  16.675  0.00  0.00    +0.000 A 
ATOM     12  C   UNL     1       3.588   4.101  17.124  0.00  0.00    +0.000 A 
BRANCH   7  14
ATOM     13  N   UNL     1       0.775   2.475  18.511  0.00  0.00    +0.000 NA
ATOM     14  C   UNL     1       1.584   3.280  18.298  0.00  0.00    +0.000 C 
ENDBRANCH   7  14
ENDBRANCH   1  11
BRANCH   3  15
ATOM     15  C   UNL     1       5.140   3.279  12.063  0.00  0.00    +0.000 C 
ATOM     16  F   UNL     1       5.318   3.967  10.901  0.00  0.00    +0.000 F 
ATOM     17  F   UNL     1       5.675   2.045  11.855  0.00  0.00    +0.000 F 
ATOM     18  F   UNL     1       3.798   3.094  12.183  0.00  0.00    +0.000 F 
ENDBRANCH   3  15
BRANCH   6  19
ATOM     19  O   UNL     1       7.365   5.820  16.690  0.00  0.00    +0.000 OA
BRANCH  19  20
ATOM     20  C   UNL     1       7.621   4.953  17.806  0.00  0.00    +0.000 C 
BRANCH  20  21
ATOM     21  C   UNL     1       7.787   5.708  19.115  0.00  0.00    +0.000 C 
ATOM     22  O   UNL     1       7.401   5.281  20.194  0.00  0.00    +0.000 OA
BRANCH  21  23
ATOM     23  O   UNL     1       8.389   6.910  18.974  0.00  0.00    +0.000 OA
ATOM     24  H   UNL     1       8.358   7.403  19.821  0.00  0.00    +0.000 HD
ENDBRANCH  21  23
ENDBRANCH  20  21
ENDBRANCH  19  20
ENDBRANCH   6  19
TORSDOF 7
ENDMDL
MODEL 4
REMARK VINA RESULT:      -7.7      1.075      1.195
REMARK  Name = 
REMARK  7 active torsions:
REMARK  status: ('A' for Active; 'I' for Inactive)
REMARK    1  A    between atoms: C_2  and  C_3
REMARK    2  A    between atoms: C_7  and  C_8
REMARK    3  A    between atoms: C_10  and  C_11
REMARK    4  A    between atoms: C_17  and  O_18
REMARK    5  A    between atoms: O_18  and  C_19
REMARK    6  A    between atoms: C_19  and  C_20
REMARK    7  A    between atoms: C_20  and  O_22
REMARK                            x       y       z     vdW  Elec       q    Type
REMARK                         _______ _______ _______ _____ _____    ______ ____
ROOT
ATOM      1  C   UNL     1       3.027   6.078  19.142  0.00  0.00    +0.000 A 
ATOM      2  C   UNL     1       2.315   5.074  19.856  0.00  0.00    +0.000 A 
ATOM      3  C   UNL     1       2.780   3.764  20.039  0.00  0.00    +0.000 A 
ATOM      4  C   UNL     1       3.982   3.405  19.445  0.00  0.00    +0.000 A 
ATOM      5  C   UNL     1       4.703   4.344  18.709  0.00  0.00    +0.000 A 
ATOM      6  C   UNL     1       4.242   5.669  18.530  0.00  0.00    +0.000 A 
ENDROOT
BRANCH   1  11
ATOM      7  C   UNL     1       1.013   9.181  20.166  0.00  0.00    +0.000 A 
ATOM      8  C   UNL     1       0.951   9.897  18.976  0.00  0.00    +0.000 A 
ATOM      9  C   UNL     1       1.624   9.420  17.853  0.00  0.00    +0.000 A 
ATOM     10  C   UNL     1       2.318   8.200  17.901  0.00  0.00    +0.000 A 
ATOM     11  C   UNL     1       2.406   7.445  19.079  0.00  0.00    +0.000 A 
ATOM     12  C   UNL     1       1.776   8.003  20.221  0.00  0.00    +0.000 A 
BRANCH   7  14
ATOM     13  N   UNL     1      -0.406   9.921  22.211  0.00  0.00    +0.000 NA
ATOM     14  C   UNL     1       0.259   9.609  21.311  0.00  0.00    +0.000 C 
ENDBRANCH   7  14
ENDBRANCH   1  11
BRANCH   3  15
ATOM     15  C   UNL     1       2.009   2.774  20.878  0.00  0.00    +0.000 C 
ATOM     16  F   UNL     1       1.607   1.673  20.186  0.00  0.00    +0.000 F 
ATOM     17  F   UNL     1       2.729   2.311  21.936  0.00  0.00    +0.000 F 
ATOM     18  F   UNL     1       0.876   3.318  21.400  0.00  0.00    +0.000 F 
ENDBRANCH   3  15
BRANCH   6  19
ATOM     19  O   UNL     1       4.965   6.578  17.779  0.00  0.00    +0.000 OA
BRANCH  19  20
ATOM     20  C   UNL     1       5.574   6.046  16.591  0.00  0.00    +0.000 C 
BRANCH  20  21
ATOM     21  C   UNL     1       7.092   6.045  16.655  0.00  0.00    +0.000 C 
ATOM     22  O   UNL     1       7.767   7.065  16.682  0.00  0.00    +0.000 OA
BRANCH  21  23
ATOM     23  O   UNL     1       7.634   4.807  16.664  0.00  0.00    +0.000 OA
ATOM     24  H   UNL     1       8.169   4.668  15.854  0.00  0.00    +0.000 HD
ENDBRANCH  21  23
ENDBRANCH  20  21
ENDBRANCH  19  20
ENDBRANCH   6  19
TORSDOF 7
ENDMDL
MODEL 5
REMARK VINA RESULT:      -7.7      3.610      4.819
REMARK  Name = 
REMARK  7 active torsions:
REMARK  status: ('A' for Active; 'I' for Inactive)
REMARK    1  A    between atoms: C_2  and  C_3
REMARK    2  A    between atoms: C_7  and  C_8
REMARK    3  A    between atoms: C_10  and  C_11
REMARK    4  A    between atoms: C_17  and  O_18
REMARK    5  A    between atoms: O_18  and  C_19
REMARK    6  A    between atoms: C_19  and  C_20
REMARK    7  A    between atoms: C_20  and  O_22
REMARK                            x       y       z     vdW  Elec       q    Type
REMARK                         _______ _______ _______ _____ _____    ______ ____
ROOT
ATOM      1  C   UNL     1       2.788   6.699  18.479  0.00  0.00    +0.000 A 
ATOM      2  C   UNL     1       3.744   6.827  17.434  0.00  0.00    +0.000 A 
ATOM      3  C   UNL     1       4.457   5.750  16.888  0.00  0.00    +0.000 A 
ATOM      4  C   UNL     1       4.260   4.488  17.432  0.00  0.00    +0.000 A 
ATOM      5  C   UNL     1       3.356   4.316  18.479  0.00  0.00    +0.000 A 
ATOM      6  C   UNL     1       2.628   5.397  19.026  0.00  0.00    +0.000 A 
ENDROOT
BRANCH   1  11
ATOM      7  C   UNL     1       0.892   9.183  20.707  0.00  0.00    +0.000 A 
ATOM      8  C   UNL     1       0.481  10.145  19.792  0.00  0.00    +0.000 A 
ATOM      9  C   UNL     1       0.878  10.039  18.461  0.00  0.00    +0.000 A 
ATOM     10  C   UNL     1       1.644   8.942  18.029  0.00  0.00    +0.000 A 
ATOM     11  C   UNL     1       2.079   7.949  18.918  0.00  0.00    +0.000 A 
ATOM     12  C   UNL     1       1.722   8.135  20.278  0.00  0.00    +0.000 A 
BRANCH   7  14
ATOM     13  N   UNL     1      -0.010   9.294  23.140  0.00  0.00    +0.000 NA
ATOM     14  C   UNL     1       0.425   9.228  22.065  0.00  0.00    +0.000 C 
ENDBRANCH   7  14
ENDBRANCH   1  11
BRANCH   3  15
ATOM     15  C   UNL     1       5.397   5.949  15.723  0.00  0.00    +0.000 C 
ATOM     16  F   UNL     1       5.078   7.022  14.947  0.00  0.00    +0.000 F 
ATOM     17  F   UNL     1       6.685   6.140  16.116  0.00  0.00    +0.000 F 
ATOM     18  F   UNL     1       5.411   4.876  14.887  0.00  0.00    +0.000 F 
ENDBRANCH   3  15
BRANCH   6  19
ATOM     19  O   UNL     1       1.751   5.204  20.078  0.00  0.00    +0.000 OA
BRANCH  19  20
ATOM     20  C   UNL     1       2.231   4.349  21.129  0.00  0.00    +0.000 C 
BRANCH  20  21
ATOM     21  C   UNL     1       1.370   3.112  21.323  0.00  0.00    +0.000 C 
ATOM     22  O   UNL     1       1.500   2.340  22.263  0.00  0.00    +0.000 OA
BRANCH  21  23
ATOM     23  O   UNL     1       0.452   2.932  20.348  0.00  0.00    +0.000 OA
ATOM     24  H   UNL     1       0.347   3.756  19.828  0.00  0.00    +0.000 HD
ENDBRANCH  21  23
ENDBRANCH  20  21
ENDBRANCH  19  20
ENDBRANCH   6  19
TORSDOF 7
ENDMDL
MODEL 6
REMARK VINA RESULT:      -7.6      0.817      1.370
REMARK  Name = 
REMARK  7 active torsions:
REMARK  status: ('A' for Active; 'I' for Inactive)
REMARK    1  A    between atoms: C_2  and  C_3
REMARK    2  A    between atoms: C_7  and  C_8
REMARK    3  A    between atoms: C_10  and  C_11
REMARK    4  A    between atoms: C_17  and  O_18
REMARK    5  A    between atoms: O_18  and  C_19
REMARK    6  A    between atoms: C_19  and  C_20
REMARK    7  A    between atoms: C_20  and  O_22
REMARK                            x       y       z     vdW  Elec       q    Type
REMARK                         _______ _______ _______ _____ _____    ______ ____
ROOT
ATOM      1  C   UNL     1       2.958   5.953  19.015  0.00  0.00    +0.000 A 
ATOM      2  C   UNL     1       2.090   4.920  19.467  0.00  0.00    +0.000 A 
ATOM      3  C   UNL     1       2.464   3.572  19.569  0.00  0.00    +0.000 A 
ATOM      4  C   UNL     1       3.740   3.212  19.156  0.00  0.00    +0.000 A 
ATOM      5  C   UNL     1       4.617   4.183  18.677  0.00  0.00    +0.000 A 
ATOM      6  C   UNL     1       4.247   5.544  18.581  0.00  0.00    +0.000 A 
ENDROOT
BRANCH   1  11
ATOM      7  C   UNL     1       1.103   9.111  20.163  0.00  0.00    +0.000 A 
ATOM      8  C   UNL     1       1.090   9.882  19.006  0.00  0.00    +0.000 A 
ATOM      9  C   UNL     1       1.748   9.421  17.868  0.00  0.00    +0.000 A 
ATOM     10  C   UNL     1       2.375   8.164  17.866  0.00  0.00    +0.000 A 
ATOM     11  C   UNL     1       2.411   7.353  19.009  0.00  0.00    +0.000 A 
ATOM     12  C   UNL     1       1.801   7.893  20.170  0.00  0.00    +0.000 A 
BRANCH   7  14
ATOM     13  N   UNL     1      -0.238   9.930  22.231  0.00  0.00    +0.000 NA
ATOM     14  C   UNL     1       0.361   9.528  21.321  0.00  0.00    +0.000 C 
ENDBRANCH   7  14
ENDBRANCH   1  11
BRANCH   3  15
ATOM     15  C   UNL     1       1.516   2.543  20.134  0.00  0.00    +0.000 C 
ATOM     16  F   UNL     1       1.769   2.229  21.435  0.00  0.00    +0.000 F 
ATOM     17  F   UNL     1       0.218   2.946  20.090  0.00  0.00    +0.000 F 
ATOM     18  F   UNL     1       1.571   1.366  19.452  0.00  0.00    +0.000 F 
ENDBRANCH   3  15
BRANCH   6  19
ATOM     19  O   UNL     1       5.129   6.488  18.084  0.00  0.00    +0.000 OA
BRANCH  19  20
ATOM     20  C   UNL     1       5.591   6.248  16.744  0.00  0.00    +0.000 C 
BRANCH  20  21
ATOM     21  C   UNL     1       7.090   6.009  16.672  0.00  0.00    +0.000 C 
ATOM     22  O   UNL     1       7.594   4.895  16.618  0.00  0.00    +0.000 OA
BRANCH  21  23
ATOM     23  O   UNL     1       7.822   7.144  16.688  0.00  0.00    +0.000 OA
ATOM     24  H   UNL     1       8.214   7.305  15.804  0.00  0.00    +0.000 HD
ENDBRANCH  21  23
ENDBRANCH  20  21
ENDBRANCH  19  20
ENDBRANCH   6  19
TORSDOF 7
ENDMDL
MODEL 7
REMARK VINA RESULT:      -7.6      3.357      5.752
REMARK  Name = 
REMARK  7 active torsions:
REMARK  status: ('A' for Active; 'I' for Inactive)
REMARK    1  A    between atoms: C_2  and  C_3
REMARK    2  A    between atoms: C_7  and  C_8
REMARK    3  A    between atoms: C_10  and  C_11
REMARK    4  A    between atoms: C_17  and  O_18
REMARK    5  A    between atoms: O_18  and  C_19
REMARK    6  A    between atoms: C_19  and  C_20
REMARK    7  A    between atoms: C_20  and  O_22
REMARK                            x       y       z     vdW  Elec       q    Type
REMARK                         _______ _______ _______ _____ _____    ______ ____
ROOT
ATOM      1  C   UNL     1       3.746   5.446  18.882  0.00  0.00    +0.000 A 
ATOM      2  C   UNL     1       3.465   4.246  19.592  0.00  0.00    +0.000 A 
ATOM      3  C   UNL     1       2.375   4.085  20.459  0.00  0.00    +0.000 A 
ATOM      4  C   UNL     1       1.547   5.177  20.683  0.00  0.00    +0.000 A 
ATOM      5  C   UNL     1       1.799   6.386  20.035  0.00  0.00    +0.000 A 
ATOM      6  C   UNL     1       2.891   6.549  19.152  0.00  0.00    +0.000 A 
ENDROOT
BRANCH   1  11
ATOM      7  C   UNL     1       5.878   4.820  15.753  0.00  0.00    +0.000 A 
ATOM      8  C   UNL     1       7.161   5.102  16.209  0.00  0.00    +0.000 A 
ATOM      9  C   UNL     1       7.338   5.569  17.509  0.00  0.00    +0.000 A 
ATOM     10  C   UNL     1       6.240   5.708  18.375  0.00  0.00    +0.000 A 
ATOM     11  C   UNL     1       4.930   5.435  17.957  0.00  0.00    +0.000 A 
ATOM     12  C   UNL     1       4.782   5.038  16.603  0.00  0.00    +0.000 A 
BRANCH   7  14
ATOM     13  N   UNL     1       5.572   3.845  13.366  0.00  0.00    +0.000 NA
ATOM     14  C   UNL     1       5.680   4.258  14.445  0.00  0.00    +0.000 C 
ENDBRANCH   7  14
ENDBRANCH   1  11
BRANCH   3  15
ATOM     15  C   UNL     1       2.092   2.756  21.115  0.00  0.00    +0.000 C 
ATOM     16  F   UNL     1       3.154   2.254  21.804  0.00  0.00    +0.000 F 
ATOM     17  F   UNL     1       1.063   2.818  22.003  0.00  0.00    +0.000 F 
ATOM     18  F   UNL     1       1.752   1.799  20.209  0.00  0.00    +0.000 F 
ENDBRANCH   3  15
BRANCH   6  19
ATOM     19  O   UNL     1       3.132   7.764  18.536  0.00  0.00    +0.000 OA
BRANCH  19  20
ATOM     20  C   UNL     1       2.087   8.229  17.667  0.00  0.00    +0.000 C 
BRANCH  20  21
ATOM     21  C   UNL     1       1.527   9.578  18.086  0.00  0.00    +0.000 C 
ATOM     22  O   UNL     1       0.637   9.711  18.915  0.00  0.00    +0.000 OA
BRANCH  21  23
ATOM     23  O   UNL     1       2.093  10.623  17.443  0.00  0.00    +0.000 OA
ATOM     24  H   UNL     1       2.933  10.873  17.882  0.00  0.00    +0.000 HD
ENDBRANCH  21  23
ENDBRANCH  20  21
ENDBRANCH  19  20
ENDBRANCH   6  19
TORSDOF 7
ENDMDL
MODEL 8
REMARK VINA RESULT:      -7.6      3.546      4.704
REMARK  Name = 
REMARK  7 active torsions:
REMARK  status: ('A' for Active; 'I' for Inactive)
REMARK    1  A    between atoms: C_2  and  C_3
REMARK    2  A    between atoms: C_7  and  C_8
REMARK    3  A    between atoms: C_10  and  C_11
REMARK    4  A    between atoms: C_17  and  O_18
REMARK    5  A    between atoms: O_18  and  C_19
REMARK    6  A    between atoms: C_19  and  C_20
REMARK    7  A    between atoms: C_20  and  O_22
REMARK                            x       y       z     vdW  Elec       q    Type
REMARK                         _______ _______ _______ _____ _____    ______ ____
ROOT
ATOM      1  C   UNL     1       3.151   6.151  18.109  0.00  0.00    +0.000 A 
ATOM      2  C   UNL     1       4.399   6.251  17.432  0.00  0.00    +0.000 A 
ATOM      3  C   UNL     1       5.125   5.148  16.962  0.00  0.00    +0.000 A 
ATOM      4  C   UNL     1       4.627   3.877  17.214  0.00  0.00    +0.000 A 
ATOM      5  C   UNL     1       3.424   3.725  17.902  0.00  0.00    +0.000 A 
ATOM      6  C   UNL     1       2.683   4.834  18.369  0.00  0.00    +0.000 A 
ENDROOT
BRANCH   1  11
ATOM      7  C   UNL     1       1.312   8.752  20.250  0.00  0.00    +0.000 A 
ATOM      8  C   UNL     1       0.952   9.708  19.306  0.00  0.00    +0.000 A 
ATOM      9  C   UNL     1       1.367   9.557  17.985  0.00  0.00    +0.000 A 
ATOM     10  C   UNL     1       2.099   8.424  17.591  0.00  0.00    +0.000 A 
ATOM     11  C   UNL     1       2.482   7.436  18.508  0.00  0.00    +0.000 A 
ATOM     12  C   UNL     1       2.110   7.665  19.858  0.00  0.00    +0.000 A 
BRANCH   7  14
ATOM     13  N   UNL     1       0.394   8.975  22.669  0.00  0.00    +0.000 NA
ATOM     14  C   UNL     1       0.824   8.844  21.598  0.00  0.00    +0.000 C 
ENDBRANCH   7  14
ENDBRANCH   1  11
BRANCH   3  15
ATOM     15  C   UNL     1       6.402   5.334  16.179  0.00  0.00    +0.000 C 
ATOM     16  F   UNL     1       7.266   4.287  16.293  0.00  0.00    +0.000 F 
ATOM     17  F   UNL     1       6.182   5.496  14.847  0.00  0.00    +0.000 F 
ATOM     18  F   UNL     1       7.096   6.433  16.584  0.00  0.00    +0.000 F 
ENDBRANCH   3  15
BRANCH   6  19
ATOM     19  O   UNL     1       1.501   4.658  19.066  0.00  0.00    +0.000 OA
BRANCH  19  20
ATOM     20  C   UNL     1       1.391   3.417  19.783  0.00  0.00    +0.000 C 
BRANCH  20  21
ATOM     21  C   UNL     1       1.801   3.539  21.241  0.00  0.00    +0.000 C 
ATOM     22  O   UNL     1       1.610   2.661  22.071  0.00  0.00    +0.000 OA
BRANCH  21  23
ATOM     23  O   UNL     1       2.386   4.719  21.543  0.00  0.00    +0.000 OA
ATOM     24  H   UNL     1       1.974   5.442  21.024  0.00  0.00    +0.000 HD
ENDBRANCH  21  23
ENDBRANCH  20  21
ENDBRANCH  19  20
ENDBRANCH   6  19
TORSDOF 7
ENDMDL
MODEL 9
REMARK VINA RESULT:      -7.6      4.254      6.121
REMARK  Name = 
REMARK  7 active torsions:
REMARK  status: ('A' for Active; 'I' for Inactive)
REMARK    1  A    between atoms: C_2  and  C_3
REMARK    2  A    between atoms: C_7  and  C_8
REMARK    3  A    between atoms: C_10  and  C_11
REMARK    4  A    between atoms: C_17  and  O_18
REMARK    5  A    between atoms: O_18  and  C_19
REMARK    6  A    between atoms: C_19  and  C_20
REMARK    7  A    between atoms: C_20  and  O_22
REMARK                            x       y       z     vdW  Elec       q    Type
REMARK                         _______ _______ _______ _____ _____    ______ ____
ROOT
ATOM      1  C   UNL     1       5.220   4.453  16.728  0.00  0.00    +0.000 A 
ATOM      2  C   UNL     1       3.837   4.154  16.874  0.00  0.00    +0.000 A 
ATOM      3  C   UNL     1       3.172   4.108  18.107  0.00  0.00    +0.000 A 
ATOM      4  C   UNL     1       3.913   4.315  19.262  0.00  0.00    +0.000 A 
ATOM      5  C   UNL     1       5.279   4.581  19.173  0.00  0.00    +0.000 A 
ATOM      6  C   UNL     1       5.952   4.638  17.931  0.00  0.00    +0.000 A 
ENDROOT
BRANCH   1  11
ATOM      7  C   UNL     1       5.511   3.900  12.940  0.00  0.00    +0.000 A 
ATOM      8  C   UNL     1       6.820   4.294  12.685  0.00  0.00    +0.000 A 
ATOM      9  C   UNL     1       7.594   4.813  13.721  0.00  0.00    +0.000 A 
ATOM     10  C   UNL     1       7.080   4.892  15.026  0.00  0.00    +0.000 A 
ATOM     11  C   UNL     1       5.767   4.506  15.329  0.00  0.00    +0.000 A 
ATOM     12  C   UNL     1       4.985   4.058  14.233  0.00  0.00    +0.000 A 
BRANCH   7  14
ATOM     13  N   UNL     1       4.049   2.845  11.072  0.00  0.00    +0.000 NA
ATOM     14  C   UNL     1       4.724   3.284  11.908  0.00  0.00    +0.000 C 
ENDBRANCH   7  14
ENDBRANCH   1  11
BRANCH   3  15
ATOM     15  C   UNL     1       1.684   3.864  18.179  0.00  0.00    +0.000 C 
ATOM     16  F   UNL     1       1.132   4.228  19.370  0.00  0.00    +0.000 F 
ATOM     17  F   UNL     1       0.995   4.543  17.223  0.00  0.00    +0.000 F 
ATOM     18  F   UNL     1       1.371   2.551  18.010  0.00  0.00    +0.000 F 
ENDBRANCH   3  15
BRANCH   6  19
ATOM     19  O   UNL     1       7.312   4.884  17.870  0.00  0.00    +0.000 OA
BRANCH  19  20
ATOM     20  C   UNL     1       7.799   5.869  18.796  0.00  0.00    +0.000 C 
BRANCH  20  21
ATOM     21  C   UNL     1       7.952   7.245  18.169  0.00  0.00    +0.000 C 
ATOM     22  O   UNL     1       7.466   7.552  17.088  0.00  0.00    +0.000 OA
BRANCH  21  23
ATOM     23  O   UNL     1       8.691   8.100  18.909  0.00  0.00    +0.000 OA
ATOM     24  H   UNL     1       8.986   7.662  19.735  0.00  0.00    +0.000 HD
ENDBRANCH  21  23
ENDBRANCH  20  21
ENDBRANCH  19  20
ENDBRANCH   6  19
TORSDOF 7
ENDMDL
