MODEL 1
REMARK VINA RESULT:      -7.7      0.000      0.000
REMARK  Name = 
REMARK  7 active torsions:
REMARK  status: ('A' for Active; 'I' for Inactive)
REMARK    1  A    between atoms: C_1  and  C_2
REMARK    2  A    between atoms: C_2  and  C_3
REMARK    3  A    between atoms: C_2  and  C_4
REMARK    4  A    between atoms: C_9  and  O_10
REMARK    5  A    between atoms: C_11  and  C_12
REMARK    6  A    between atoms: C_12  and  C_13
REMARK    7  A    between atoms: N_20  and  C_21
REMARK                            x       y       z     vdW  Elec       q    Type
REMARK                         _______ _______ _______ _____ _____    ______ ____
ROOT
ATOM      1  C   UNL     1       5.190   5.397  17.411  0.00  0.00    +0.000 A 
ATOM      2  C   UNL     1       4.374   6.508  17.137  0.00  0.00    +0.000 A 
ATOM      3  C   UNL     1       3.428   6.964  18.062  0.00  0.00    +0.000 A 
ATOM      4  C   UNL     1       3.281   6.312  19.300  0.00  0.00    +0.000 A 
ATOM      5  C   UNL     1       4.095   5.205  19.585  0.00  0.00    +0.000 A 
ATOM      6  C   UNL     1       5.039   4.760  18.650  0.00  0.00    +0.000 A 
ATOM      7  C   UNL     1       2.203   6.763  20.280  0.00  0.00    +0.000 C 
ATOM      8  N   UNL     1       1.947   8.205  20.102  0.00  0.00    +0.000 NA
ATOM      9  C   UNL     1       1.137   8.830  21.128  0.00  0.00    +0.000 C 
ATOM     10  C   UNL     1       1.517   8.538  18.749  0.00  0.00    +0.000 C 
ATOM     11  C   UNL     1       2.602   8.185  17.723  0.00  0.00    +0.000 C 
ENDROOT
BRANCH   1  13
ATOM     12  C   UNL     1       5.634   4.815  14.994  0.00  0.00    +0.000 C 
ATOM     13  C   UNL     1       6.230   4.950  16.401  0.00  0.00    +0.000 C 
ATOM     14  C   UNL     1       7.423   5.912  16.394  0.00  0.00    +0.000 C 
ENDBRANCH   1  13
BRANCH   6  15
ATOM     15  O   UNL     1       5.816   3.674  18.937  0.00  0.00    +0.000 OA
ATOM     16  H   UNL     1       6.665   3.981  19.294  0.00  0.00    +0.000 HD
ENDBRANCH   6  15
BRANCH   7  17
ATOM     17  C   UNL     1       0.974   5.763  20.323  0.00  0.00    +0.000 C 
BRANCH  17  18
ATOM     18  C   UNL     1       1.249   4.277  20.136  0.00  0.00    +0.000 A 
ATOM     19  C   UNL     1       1.450   3.466  21.269  0.00  0.00    +0.000 A 
ATOM     20  C   UNL     1       1.951   2.170  21.161  0.00  0.00    +0.000 A 
ATOM     21  C   UNL     1       2.173   1.617  19.909  0.00  0.00    +0.000 A 
ATOM     22  C   UNL     1       1.842   2.350  18.769  0.00  0.00    +0.000 A 
ATOM     23  C   UNL     1       1.375   3.667  18.878  0.00  0.00    +0.000 A 
ATOM     24 CL   UNL     1       0.984   4.482  17.405  0.00  0.00    +0.000 Cl
ENDBRANCH  17  18
ENDBRANCH   7  17
TORSDOF 4
ENDMDL
MODEL 2
REMARK VINA RESULT:      -7.1      3.256      6.599
REMARK  Name = 
REMARK  7 active torsions:
REMARK  status: ('A' for Active; 'I' for Inactive)
REMARK    1  A    between atoms: C_1  and  C_2
REMARK    2  A    between atoms: C_2  and  C_3
REMARK    3  A    between atoms: C_2  and  C_4
REMARK    4  A    between atoms: C_9  and  O_10
REMARK    5  A    between atoms: C_11  and  C_12
REMARK    6  A    between atoms: C_12  and  C_13
REMARK    7  A    between atoms: N_20  and  C_21
REMARK                            x       y       z     vdW  Elec       q    Type
REMARK                         _______ _______ _______ _____ _____    ______ ____
ROOT
ATOM      1  C   UNL     1       3.185   3.604  19.065  0.00  0.00    +0.000 A 
ATOM      2  C   UNL     1       4.332   4.155  19.663  0.00  0.00    +0.000 A 
ATOM      3  C   UNL     1       5.292   4.839  18.908  0.00  0.00    +0.000 A 
ATOM      4  C   UNL     1       5.118   4.993  17.521  0.00  0.00    +0.000 A 
ATOM      5  C   UNL     1       3.974   4.452  16.916  0.00  0.00    +0.000 A 
ATOM      6  C   UNL     1       3.021   3.770  17.684  0.00  0.00    +0.000 A 
ATOM      7  C   UNL     1       6.196   5.675  16.685  0.00  0.00    +0.000 C 
ATOM      8  N   UNL     1       6.910   6.664  17.515  0.00  0.00    +0.000 NA
ATOM      9  C   UNL     1       7.786   7.569  16.799  0.00  0.00    +0.000 C 
ATOM     10  C   UNL     1       7.538   6.067  18.688  0.00  0.00    +0.000 C 
ATOM     11  C   UNL     1       6.488   5.437  19.614  0.00  0.00    +0.000 C 
ENDROOT
BRANCH   1  13
ATOM     12  C   UNL     1       2.709   2.512  21.292  0.00  0.00    +0.000 C 
ATOM     13  C   UNL     1       2.148   2.899  19.919  0.00  0.00    +0.000 C 
ATOM     14  C   UNL     1       0.894   3.768  20.071  0.00  0.00    +0.000 C 
ENDBRANCH   1  13
BRANCH   6  15
ATOM     15  O   UNL     1       1.918   3.238  17.079  0.00  0.00    +0.000 OA
ATOM     16  H   UNL     1       1.260   3.942  16.950  0.00  0.00    +0.000 HD
ENDBRANCH   6  15
BRANCH   7  17
ATOM     17  C   UNL     1       7.035   4.642  15.827  0.00  0.00    +0.000 C 
BRANCH  17  18
ATOM     18  C   UNL     1       6.657   4.447  14.364  0.00  0.00    +0.000 A 
ATOM     19  C   UNL     1       5.465   3.769  14.046  0.00  0.00    +0.000 A 
ATOM     20  C   UNL     1       5.192   3.338  12.750  0.00  0.00    +0.000 A 
ATOM     21  C   UNL     1       6.061   3.659  11.718  0.00  0.00    +0.000 A 
ATOM     22  C   UNL     1       7.173   4.457  11.984  0.00  0.00    +0.000 A 
ATOM     23  C   UNL     1       7.469   4.856  13.295  0.00  0.00    +0.000 A 
ATOM     24 CL   UNL     1       8.865   5.851  13.514  0.00  0.00    +0.000 Cl
ENDBRANCH  17  18
ENDBRANCH   7  17
TORSDOF 4
ENDMDL
MODEL 3
REMARK VINA RESULT:      -7.0      1.172      1.569
REMARK  Name = 
REMARK  7 active torsions:
REMARK  status: ('A' for Active; 'I' for Inactive)
REMARK    1  A    between atoms: C_1  and  C_2
REMARK    2  A    between atoms: C_2  and  C_3
REMARK    3  A    between atoms: C_2  and  C_4
REMARK    4  A    between atoms: C_9  and  O_10
REMARK    5  A    between atoms: C_11  and  C_12
REMARK    6  A    between atoms: C_12  and  C_13
REMARK    7  A    between atoms: N_20  and  C_21
REMARK                            x       y       z     vdW  Elec       q    Type
REMARK                         _______ _______ _______ _____ _____    ______ ____
ROOT
ATOM      1  C   UNL     1       5.376   5.765  17.386  0.00  0.00    +0.000 A 
ATOM      2  C   UNL     1       4.445   6.792  17.151  0.00  0.00    +0.000 A 
ATOM      3  C   UNL     1       3.469   7.123  18.098  0.00  0.00    +0.000 A 
ATOM      4  C   UNL     1       3.407   6.426  19.318  0.00  0.00    +0.000 A 
ATOM      5  C   UNL     1       4.335   5.404  19.565  0.00  0.00    +0.000 A 
ATOM      6  C   UNL     1       5.307   5.084  18.608  0.00  0.00    +0.000 A 
ATOM      7  C   UNL     1       2.300   6.737  20.322  0.00  0.00    +0.000 C 
ATOM      8  N   UNL     1       1.894   8.148  20.186  0.00  0.00    +0.000 NA
ATOM      9  C   UNL     1       1.037   8.658  21.237  0.00  0.00    +0.000 C 
ATOM     10  C   UNL     1       1.413   8.470  18.847  0.00  0.00    +0.000 C 
ATOM     11  C   UNL     1       2.516   8.258  17.800  0.00  0.00    +0.000 C 
ENDROOT
BRANCH   1  13
ATOM     12  C   UNL     1       5.844   5.278  14.952  0.00  0.00    +0.000 C 
ATOM     13  C   UNL     1       6.443   5.456  16.352  0.00  0.00    +0.000 C 
ATOM     14  C   UNL     1       7.519   6.547  16.346  0.00  0.00    +0.000 C 
ENDBRANCH   1  13
BRANCH   6  15
ATOM     15  O   UNL     1       6.197   4.078  18.857  0.00  0.00    +0.000 OA
ATOM     16  H   UNL     1       5.806   3.465  19.502  0.00  0.00    +0.000 HD
ENDBRANCH   6  15
BRANCH   7  17
ATOM     17  C   UNL     1       1.183   5.613  20.351  0.00  0.00    +0.000 C 
BRANCH  17  18
ATOM     18  C   UNL     1       1.498   4.269  19.708  0.00  0.00    +0.000 A 
ATOM     19  C   UNL     1       1.428   4.142  18.308  0.00  0.00    +0.000 A 
ATOM     20  C   UNL     1       1.453   2.896  17.684  0.00  0.00    +0.000 A 
ATOM     21  C   UNL     1       1.645   1.750  18.439  0.00  0.00    +0.000 A 
ATOM     22  C   UNL     1       1.865   1.863  19.811  0.00  0.00    +0.000 A 
ATOM     23  C   UNL     1       1.800   3.112  20.444  0.00  0.00    +0.000 A 
ATOM     24 CL   UNL     1       2.097   3.144  22.146  0.00  0.00    +0.000 Cl
ENDBRANCH  17  18
ENDBRANCH   7  17
TORSDOF 4
ENDMDL
MODEL 4
REMARK VINA RESULT:      -6.6      1.794      5.058
REMARK  Name = 
REMARK  7 active torsions:
REMARK  status: ('A' for Active; 'I' for Inactive)
REMARK    1  A    between atoms: C_1  and  C_2
REMARK    2  A    between atoms: C_2  and  C_3
REMARK    3  A    between atoms: C_2  and  C_4
REMARK    4  A    between atoms: C_9  and  O_10
REMARK    5  A    between atoms: C_11  and  C_12
REMARK    6  A    between atoms: C_12  and  C_13
REMARK    7  A    between atoms: N_20  and  C_21
REMARK                            x       y       z     vdW  Elec       q    Type
REMARK                         _______ _______ _______ _____ _____    ______ ____
ROOT
ATOM      1  C   UNL     1       2.293   3.518  20.131  0.00  0.00    +0.000 A 
ATOM      2  C   UNL     1       2.021   4.769  20.712  0.00  0.00    +0.000 A 
ATOM      3  C   UNL     1       2.126   5.954  19.975  0.00  0.00    +0.000 A 
ATOM      4  C   UNL     1       2.506   5.911  18.621  0.00  0.00    +0.000 A 
ATOM      5  C   UNL     1       2.774   4.666  18.031  0.00  0.00    +0.000 A 
ATOM      6  C   UNL     1       2.664   3.488  18.780  0.00  0.00    +0.000 A 
ATOM      7  C   UNL     1       2.690   7.205  17.836  0.00  0.00    +0.000 C 
ATOM      8  N   UNL     1       1.796   8.244  18.381  0.00  0.00    +0.000 NA
ATOM      9  C   UNL     1       1.671   9.446  17.584  0.00  0.00    +0.000 C 
ATOM     10  C   UNL     1       2.043   8.515  19.793  0.00  0.00    +0.000 C 
ATOM     11  C   UNL     1       1.788   7.266  20.647  0.00  0.00    +0.000 C 
ENDROOT
BRANCH   1  13
ATOM     12  C   UNL     1       3.483   1.738  21.469  0.00  0.00    +0.000 C 
ATOM     13  C   UNL     1       2.135   2.250  20.948  0.00  0.00    +0.000 C 
ATOM     14  C   UNL     1       1.157   2.473  22.107  0.00  0.00    +0.000 C 
ENDBRANCH   1  13
BRANCH   6  15
ATOM     15  O   UNL     1       2.940   2.285  18.194  0.00  0.00    +0.000 OA
ATOM     16  H   UNL     1       3.474   1.752  18.807  0.00  0.00    +0.000 HD
ENDBRANCH   6  15
BRANCH   7  17
ATOM     17  C   UNL     1       4.218   7.552  17.599  0.00  0.00    +0.000 C 
BRANCH  17  18
ATOM     18  C   UNL     1       5.098   6.504  16.932  0.00  0.00    +0.000 A 
ATOM     19  C   UNL     1       5.101   6.400  15.527  0.00  0.00    +0.000 A 
ATOM     20  C   UNL     1       5.678   5.312  14.875  0.00  0.00    +0.000 A 
ATOM     21  C   UNL     1       6.352   4.347  15.607  0.00  0.00    +0.000 A 
ATOM     22  C   UNL     1       6.489   4.505  16.986  0.00  0.00    +0.000 A 
ATOM     23  C   UNL     1       5.875   5.578  17.646  0.00  0.00    +0.000 A 
ATOM     24 CL   UNL     1       6.115   5.688  19.353  0.00  0.00    +0.000 Cl
ENDBRANCH  17  18
ENDBRANCH   7  17
TORSDOF 4
ENDMDL
MODEL 5
REMARK VINA RESULT:      -6.5      3.552      5.921
REMARK  Name = 
REMARK  7 active torsions:
REMARK  status: ('A' for Active; 'I' for Inactive)
REMARK    1  A    between atoms: C_1  and  C_2
REMARK    2  A    between atoms: C_2  and  C_3
REMARK    3  A    between atoms: C_2  and  C_4
REMARK    4  A    between atoms: C_9  and  O_10
REMARK    5  A    between atoms: C_11  and  C_12
REMARK    6  A    between atoms: C_12  and  C_13
REMARK    7  A    between atoms: N_20  and  C_21
REMARK                            x       y       z     vdW  Elec       q    Type
REMARK                         _______ _______ _______ _____ _____    ______ ____
ROOT
ATOM      1  C   UNL     1       2.488   6.555  18.938  0.00  0.00    +0.000 A 
ATOM      2  C   UNL     1       2.483   7.740  18.182  0.00  0.00    +0.000 A 
ATOM      3  C   UNL     1       1.980   8.937  18.705  0.00  0.00    +0.000 A 
ATOM      4  C   UNL     1       1.468   8.973  20.015  0.00  0.00    +0.000 A 
ATOM      5  C   UNL     1       1.474   7.797  20.779  0.00  0.00    +0.000 A 
ATOM      6  C   UNL     1       1.982   6.606  20.243  0.00  0.00    +0.000 A 
ATOM      7  C   UNL     1       0.854  10.258  20.562  0.00  0.00    +0.000 C 
ATOM      8  N   UNL     1       1.497  11.422  19.923  0.00  0.00    +0.000 NA
ATOM      9  C   UNL     1       1.202  12.708  20.521  0.00  0.00    +0.000 C 
ATOM     10  C   UNL     1       1.354  11.418  18.472  0.00  0.00    +0.000 C 
ATOM     11  C   UNL     1       2.031  10.186  17.855  0.00  0.00    +0.000 C 
ENDROOT
BRANCH   1  13
ATOM     12  C   UNL     1       1.997   4.411  17.697  0.00  0.00    +0.000 C 
ATOM     13  C   UNL     1       3.074   5.284  18.353  0.00  0.00    +0.000 C 
ATOM     14  C   UNL     1       4.187   5.613  17.352  0.00  0.00    +0.000 C 
ENDBRANCH   1  13
BRANCH   6  15
ATOM     15  O   UNL     1       1.970   5.466  20.995  0.00  0.00    +0.000 OA
ATOM     16  H   UNL     1       2.354   5.659  21.866  0.00  0.00    +0.000 HD
ENDBRANCH   6  15
BRANCH   7  17
ATOM     17  C   UNL     1      -0.727  10.190  20.624  0.00  0.00    +0.000 C 
BRANCH  17  18
ATOM     18  C   UNL     1      -1.511  10.490  19.353  0.00  0.00    +0.000 A 
ATOM     19  C   UNL     1      -1.521   9.543  18.311  0.00  0.00    +0.000 A 
ATOM     20  C   UNL     1      -1.998   9.858  17.040  0.00  0.00    +0.000 A 
ATOM     21  C   UNL     1      -2.567  11.101  16.805  0.00  0.00    +0.000 A 
ATOM     22  C   UNL     1      -2.702  12.002  17.861  0.00  0.00    +0.000 A 
ATOM     23  C   UNL     1      -2.186  11.700  19.128  0.00  0.00    +0.000 A 
ATOM     24 CL   UNL     1      -2.415  12.881  20.368  0.00  0.00    +0.000 Cl
ENDBRANCH  17  18
ENDBRANCH   7  17
TORSDOF 4
ENDMDL
MODEL 6
REMARK VINA RESULT:      -6.5      2.408      4.459
REMARK  Name = 
REMARK  7 active torsions:
REMARK  status: ('A' for Active; 'I' for Inactive)
REMARK    1  A    between atoms: C_1  and  C_2
REMARK    2  A    between atoms: C_2  and  C_3
REMARK    3  A    between atoms: C_2  and  C_4
REMARK    4  A    between atoms: C_9  and  O_10
REMARK    5  A    between atoms: C_11  and  C_12
REMARK    6  A    between atoms: C_12  and  C_13
REMARK    7  A    between atoms: N_20  and  C_21
REMARK                            x       y       z     vdW  Elec       q    Type
REMARK                         _______ _______ _______ _____ _____    ______ ____
ROOT
ATOM      1  C   UNL     1       6.571   6.325  17.581  0.00  0.00    +0.000 A 
ATOM      2  C   UNL     1       6.353   5.510  18.705  0.00  0.00    +0.000 A 
ATOM      3  C   UNL     1       5.366   4.518  18.706  0.00  0.00    +0.000 A 
ATOM      4  C   UNL     1       4.569   4.315  17.565  0.00  0.00    +0.000 A 
ATOM      5  C   UNL     1       4.783   5.120  16.436  0.00  0.00    +0.000 A 
ATOM      6  C   UNL     1       5.775   6.109  16.448  0.00  0.00    +0.000 A 
ATOM      7  C   UNL     1       3.445   3.284  17.589  0.00  0.00    +0.000 C 
ATOM      8  N   UNL     1       3.795   2.196  18.522  0.00  0.00    +0.000 NA
ATOM      9  C   UNL     1       2.949   1.022  18.462  0.00  0.00    +0.000 C 
ATOM     10  C   UNL     1       4.021   2.671  19.882  0.00  0.00    +0.000 C 
ATOM     11  C   UNL     1       5.201   3.651  19.935  0.00  0.00    +0.000 C 
ENDROOT
BRANCH   1  13
ATOM     12  C   UNL     1       7.115   8.788  17.459  0.00  0.00    +0.000 C 
ATOM     13  C   UNL     1       7.674   7.368  17.601  0.00  0.00    +0.000 C 
ATOM     14  C   UNL     1       8.513   7.240  18.877  0.00  0.00    +0.000 C 
ENDBRANCH   1  13
BRANCH   6  15
ATOM     15  O   UNL     1       5.964   6.893  15.346  0.00  0.00    +0.000 OA
ATOM     16  H   UNL     1       6.509   7.658  15.593  0.00  0.00    +0.000 HD
ENDBRANCH   6  15
BRANCH   7  17
ATOM     17  C   UNL     1       2.015   3.956  17.692  0.00  0.00    +0.000 C 
BRANCH  17  18
ATOM     18  C   UNL     1       1.855   5.174  18.592  0.00  0.00    +0.000 A 
ATOM     19  C   UNL     1       2.145   6.452  18.078  0.00  0.00    +0.000 A 
ATOM     20  C   UNL     1       2.264   7.565  18.908  0.00  0.00    +0.000 A 
ATOM     21  C   UNL     1       2.001   7.446  20.265  0.00  0.00    +0.000 A 
ATOM     22  C   UNL     1       1.568   6.221  20.772  0.00  0.00    +0.000 A 
ATOM     23  C   UNL     1       1.486   5.094  19.944  0.00  0.00    +0.000 A 
ATOM     24 CL   UNL     1       0.929   3.628  20.671  0.00  0.00    +0.000 Cl
ENDBRANCH  17  18
ENDBRANCH   7  17
TORSDOF 4
ENDMDL
MODEL 7
REMARK VINA RESULT:      -6.5      5.618      8.871
REMARK  Name = 
REMARK  7 active torsions:
REMARK  status: ('A' for Active; 'I' for Inactive)
REMARK    1  A    between atoms: C_1  and  C_2
REMARK    2  A    between atoms: C_2  and  C_3
REMARK    3  A    between atoms: C_2  and  C_4
REMARK    4  A    between atoms: C_9  and  O_10
REMARK    5  A    between atoms: C_11  and  C_12
REMARK    6  A    between atoms: C_12  and  C_13
REMARK    7  A    between atoms: N_20  and  C_21
REMARK                            x       y       z     vdW  Elec       q    Type
REMARK                         _______ _______ _______ _____ _____    ______ ____
ROOT
ATOM      1  C   UNL     1      -4.476  11.581  18.101  0.00  0.00    +0.000 A 
ATOM      2  C   UNL     1      -4.213  12.327  19.263  0.00  0.00    +0.000 A 
ATOM      3  C   UNL     1      -2.917  12.440  19.781  0.00  0.00    +0.000 A 
ATOM      4  C   UNL     1      -1.843  11.802  19.135  0.00  0.00    +0.000 A 
ATOM      5  C   UNL     1      -2.094  11.059  17.971  0.00  0.00    +0.000 A 
ATOM      6  C   UNL     1      -3.395  10.956  17.464  0.00  0.00    +0.000 A 
ATOM      7  C   UNL     1      -0.443  11.864  19.737  0.00  0.00    +0.000 C 
ATOM      8  N   UNL     1      -0.287  13.119  20.495  0.00  0.00    +0.000 NA
ATOM      9  C   UNL     1       1.064  13.439  20.909  0.00  0.00    +0.000 C 
ATOM     10  C   UNL     1      -1.263  13.252  21.570  0.00  0.00    +0.000 C 
ATOM     11  C   UNL     1      -2.694  13.283  21.015  0.00  0.00    +0.000 C 
ENDROOT
BRANCH   1  13
ATOM     12  C   UNL     1      -6.836  10.778  18.503  0.00  0.00    +0.000 C 
ATOM     13  C   UNL     1      -5.886  11.509  17.547  0.00  0.00    +0.000 C 
ATOM     14  C   UNL     1      -6.412  12.913  17.228  0.00  0.00    +0.000 C 
ENDBRANCH   1  13
BRANCH   6  15
ATOM     15  O   UNL     1      -3.626  10.219  16.337  0.00  0.00    +0.000 OA
ATOM     16  H   UNL     1      -4.579  10.221  16.150  0.00  0.00    +0.000 HD
ENDBRANCH   6  15
BRANCH   7  17
ATOM     17  C   UNL     1      -0.020  10.496  20.416  0.00  0.00    +0.000 C 
BRANCH  17  18
ATOM     18  C   UNL     1       0.978   9.608  19.686  0.00  0.00    +0.000 A 
ATOM     19  C   UNL     1       1.379   9.952  18.380  0.00  0.00    +0.000 A 
ATOM     20  C   UNL     1       2.080   9.060  17.571  0.00  0.00    +0.000 A 
ATOM     21  C   UNL     1       2.483   7.835  18.082  0.00  0.00    +0.000 A 
ATOM     22  C   UNL     1       2.226   7.533  19.419  0.00  0.00    +0.000 A 
ATOM     23  C   UNL     1       1.486   8.413  20.220  0.00  0.00    +0.000 A 
ATOM     24 CL   UNL     1       1.233   7.949  21.865  0.00  0.00    +0.000 Cl
ENDBRANCH  17  18
ENDBRANCH   7  17
TORSDOF 4
ENDMDL
MODEL 8
REMARK VINA RESULT:      -6.2      3.340      6.202
REMARK  Name = 
REMARK  7 active torsions:
REMARK  status: ('A' for Active; 'I' for Inactive)
REMARK    1  A    between atoms: C_1  and  C_2
REMARK    2  A    between atoms: C_2  and  C_3
REMARK    3  A    between atoms: C_2  and  C_4
REMARK    4  A    between atoms: C_9  and  O_10
REMARK    5  A    between atoms: C_11  and  C_12
REMARK    6  A    between atoms: C_12  and  C_13
REMARK    7  A    between atoms: N_20  and  C_21
REMARK                            x       y       z     vdW  Elec       q    Type
REMARK                         _______ _______ _______ _____ _____    ______ ____
ROOT
ATOM      1  C   UNL     1       2.501   5.893  19.055  0.00  0.00    +0.000 A 
ATOM      2  C   UNL     1       2.539   6.957  18.138  0.00  0.00    +0.000 A 
ATOM      3  C   UNL     1       2.109   8.241  18.492  0.00  0.00    +0.000 A 
ATOM      4  C   UNL     1       1.631   8.491  19.791  0.00  0.00    +0.000 A 
ATOM      5  C   UNL     1       1.594   7.436  20.715  0.00  0.00    +0.000 A 
ATOM      6  C   UNL     1       2.029   6.156  20.348  0.00  0.00    +0.000 A 
ATOM      7  C   UNL     1       1.096   9.871  20.157  0.00  0.00    +0.000 C 
ATOM      8  N   UNL     1       1.782  10.897  19.349  0.00  0.00    +0.000 NA
ATOM      9  C   UNL     1       1.566  12.268  19.761  0.00  0.00    +0.000 C 
ATOM     10  C   UNL     1       1.606  10.694  17.915  0.00  0.00    +0.000 C 
ATOM     11  C   UNL     1       2.205   9.352  17.471  0.00  0.00    +0.000 C 
ENDROOT
BRANCH   1  13
ATOM     12  C   UNL     1       1.903   3.676  18.004  0.00  0.00    +0.000 C 
ATOM     13  C   UNL     1       3.008   4.521  18.649  0.00  0.00    +0.000 C 
ATOM     14  C   UNL     1       4.212   4.648  17.709  0.00  0.00    +0.000 C 
ENDBRANCH   1  13
BRANCH   6  15
ATOM     15  O   UNL     1       1.976   5.136  21.255  0.00  0.00    +0.000 OA
ATOM     16  H   UNL     1       1.047   4.892  21.400  0.00  0.00    +0.000 HD
ENDBRANCH   6  15
BRANCH   7  17
ATOM     17  C   UNL     1      -0.486   9.897  20.253  0.00  0.00    +0.000 C 
BRANCH  17  18
ATOM     18  C   UNL     1      -1.137  10.963  21.124  0.00  0.00    +0.000 A 
ATOM     19  C   UNL     1      -1.870  11.998  20.512  0.00  0.00    +0.000 A 
ATOM     20  C   UNL     1      -2.269  13.129  21.221  0.00  0.00    +0.000 A 
ATOM     21  C   UNL     1      -2.029  13.211  22.584  0.00  0.00    +0.000 A 
ATOM     22  C   UNL     1      -1.435  12.133  23.239  0.00  0.00    +0.000 A 
ATOM     23  C   UNL     1      -0.998  11.012  22.520  0.00  0.00    +0.000 A 
ATOM     24 CL   UNL     1      -0.285   9.728  23.429  0.00  0.00    +0.000 Cl
ENDBRANCH  17  18
ENDBRANCH   7  17
TORSDOF 4
ENDMDL
MODEL 9
REMARK VINA RESULT:      -6.2      2.084      4.317
REMARK  Name = 
REMARK  7 active torsions:
REMARK  status: ('A' for Active; 'I' for Inactive)
REMARK    1  A    between atoms: C_1  and  C_2
REMARK    2  A    between atoms: C_2  and  C_3
REMARK    3  A    between atoms: C_2  and  C_4
REMARK    4  A    between atoms: C_9  and  O_10
REMARK    5  A    between atoms: C_11  and  C_12
REMARK    6  A    between atoms: C_12  and  C_13
REMARK    7  A    between atoms: N_20  and  C_21
REMARK                            x       y       z     vdW  Elec       q    Type
REMARK                         _______ _______ _______ _____ _____    ______ ____
ROOT
ATOM      1  C   UNL     1       5.654   4.659  16.298  0.00  0.00    +0.000 A 
ATOM      2  C   UNL     1       5.355   3.770  17.345  0.00  0.00    +0.000 A 
ATOM      3  C   UNL     1       4.302   4.015  18.234  0.00  0.00    +0.000 A 
ATOM      4  C   UNL     1       3.512   5.170  18.087  0.00  0.00    +0.000 A 
ATOM      5  C   UNL     1       3.799   6.061  17.042  0.00  0.00    +0.000 A 
ATOM      6  C   UNL     1       4.855   5.801  16.159  0.00  0.00    +0.000 A 
ATOM      7  C   UNL     1       2.410   5.476  19.096  0.00  0.00    +0.000 C 
ATOM      8  N   UNL     1       1.884   4.215  19.650  0.00  0.00    +0.000 NA
ATOM      9  C   UNL     1       0.667   4.329  20.427  0.00  0.00    +0.000 C 
ATOM     10  C   UNL     1       2.913   3.418  20.310  0.00  0.00    +0.000 C 
ATOM     11  C   UNL     1       4.010   3.005  19.320  0.00  0.00    +0.000 C 
ENDROOT
BRANCH   1  13
ATOM     12  C   UNL     1       6.248   3.931  13.954  0.00  0.00    +0.000 C 
ATOM     13  C   UNL     1       6.780   4.343  15.331  0.00  0.00    +0.000 C 
ATOM     14  C   UNL     1       7.735   5.536  15.209  0.00  0.00    +0.000 C 
ENDBRANCH   1  13
BRANCH   6  15
ATOM     15  O   UNL     1       5.129   6.684  15.153  0.00  0.00    +0.000 OA
ATOM     16  H   UNL     1       5.965   6.428  14.729  0.00  0.00    +0.000 HD
ENDBRANCH   6  15
BRANCH   7  17
ATOM     17  C   UNL     1       2.811   6.645  20.088  0.00  0.00    +0.000 C 
BRANCH  17  18
ATOM     18  C   UNL     1       1.842   7.807  20.260  0.00  0.00    +0.000 A 
ATOM     19  C   UNL     1       1.102   7.916  21.453  0.00  0.00    +0.000 A 
ATOM     20  C   UNL     1       0.028   8.796  21.569  0.00  0.00    +0.000 A 
ATOM     21  C   UNL     1      -0.273   9.660  20.527  0.00  0.00    +0.000 A 
ATOM     22  C   UNL     1       0.538   9.673  19.393  0.00  0.00    +0.000 A 
ATOM     23  C   UNL     1       1.593   8.761  19.260  0.00  0.00    +0.000 A 
ATOM     24 CL   UNL     1       2.543   8.868  17.820  0.00  0.00    +0.000 Cl
ENDBRANCH  17  18
ENDBRANCH   7  17
TORSDOF 4
ENDMDL
