MODEL 1
REMARK VINA RESULT:      -7.8      0.000      0.000
REMARK  Name = 
REMARK  5 active torsions:
REMARK  status: ('A' for Active; 'I' for Inactive)
REMARK    1  A    between atoms: C_1  and  C_2
REMARK    2  A    between atoms: C_2  and  C_3
REMARK    3  A    between atoms: C_3  and  N_4
REMARK    4  A    between atoms: N_9  and  C_10
REMARK    5  A    between atoms: C_10  and  C_11
REMARK                            x       y       z     vdW  Elec       q    Type
REMARK                         _______ _______ _______ _____ _____    ______ ____
ROOT
ATOM      1  N   UNL     1       6.243   5.683  16.421  0.00  0.00    +0.000 N 
ATOM      2  N   UNL     1       7.094   5.553  15.390  0.00  0.00    +0.000 NA
ATOM      3  N   UNL     1       6.883   4.334  14.920  0.00  0.00    +0.000 NA
ATOM      4  N   UNL     1       5.908   3.688  15.643  0.00  0.00    +0.000 NA
ATOM      5  C   UNL     1       5.486   4.543  16.550  0.00  0.00    +0.000 A 
ATOM      6  N   UNL     1       4.557   4.392  17.522  0.00  0.00    +0.000 N 
ATOM      7  H   UNL     1       3.851   5.115  17.623  0.00  0.00    +0.000 HD
ENDROOT
BRANCH   1   8
ATOM      8  C   UNL     1       6.299   6.845  17.275  0.00  0.00    +0.000 C 
BRANCH   8  10
ATOM      9  C   UNL     1       8.055   8.613  17.825  0.00  0.00    +0.000 C 
ATOM     10  C   UNL     1       7.675   7.139  17.881  0.00  0.00    +0.000 C 
ENDBRANCH   8  10
ENDBRANCH   1   8
BRANCH   6  11
ATOM     11  C   UNL     1       4.077   3.054  17.823  0.00  0.00    +0.000 C 
BRANCH  11  12
ATOM     12  C   UNL     1       3.122   3.139  18.985  0.00  0.00    +0.000 A 
ATOM     13  C   UNL     1       3.520   2.624  20.227  0.00  0.00    +0.000 A 
ATOM     14  F   UNL     1       4.718   2.036  20.353  0.00  0.00    +0.000 F 
ATOM     15  C   UNL     1       2.708   2.709  21.356  0.00  0.00    +0.000 A 
ATOM     16  C   UNL     1       1.464   3.323  21.266  0.00  0.00    +0.000 A 
ATOM     17  C   UNL     1       1.048   3.854  20.044  0.00  0.00    +0.000 A 
ATOM     18  C   UNL     1       1.872   3.769  18.915  0.00  0.00    +0.000 A 
ATOM     19 CL   UNL     1       1.296   4.490  17.455  0.00  0.00    +0.000 Cl
ENDBRANCH  11  12
ENDBRANCH   6  11
TORSDOF 4
ENDMDL
MODEL 2
REMARK VINA RESULT:      -7.7      1.777      2.190
REMARK  Name = 
REMARK  5 active torsions:
REMARK  status: ('A' for Active; 'I' for Inactive)
REMARK    1  A    between atoms: C_1  and  C_2
REMARK    2  A    between atoms: C_2  and  C_3
REMARK    3  A    between atoms: C_3  and  N_4
REMARK    4  A    between atoms: N_9  and  C_10
REMARK    5  A    between atoms: C_10  and  C_11
REMARK                            x       y       z     vdW  Elec       q    Type
REMARK                         _______ _______ _______ _____ _____    ______ ____
ROOT
ATOM      1  N   UNL     1       6.317   5.707  16.439  0.00  0.00    +0.000 N 
ATOM      2  N   UNL     1       7.236   5.530  15.475  0.00  0.00    +0.000 NA
ATOM      3  N   UNL     1       6.942   4.361  14.928  0.00  0.00    +0.000 NA
ATOM      4  N   UNL     1       5.848   3.792  15.535  0.00  0.00    +0.000 NA
ATOM      5  C   UNL     1       5.440   4.648  16.448  0.00  0.00    +0.000 A 
ATOM      6  N   UNL     1       4.420   4.556  17.332  0.00  0.00    +0.000 N 
ATOM      7  H   UNL     1       3.786   5.345  17.413  0.00  0.00    +0.000 HD
ENDROOT
BRANCH   1   8
ATOM      8  C   UNL     1       6.418   6.819  17.352  0.00  0.00    +0.000 C 
BRANCH   8  10
ATOM      9  C   UNL     1       7.888   5.741  19.138  0.00  0.00    +0.000 C 
ATOM     10  C   UNL     1       7.725   6.887  18.149  0.00  0.00    +0.000 C 
ENDBRANCH   8  10
ENDBRANCH   1   8
BRANCH   6  11
ATOM     11  C   UNL     1       3.781   3.265  17.525  0.00  0.00    +0.000 C 
BRANCH  11  12
ATOM     12  C   UNL     1       2.961   3.322  18.788  0.00  0.00    +0.000 A 
ATOM     13  C   UNL     1       1.692   3.916  18.743  0.00  0.00    +0.000 A 
ATOM     14  F   UNL     1       1.245   4.452  17.599  0.00  0.00    +0.000 F 
ATOM     15  C   UNL     1       0.859   3.963  19.860  0.00  0.00    +0.000 A 
ATOM     16  C   UNL     1       1.283   3.405  21.060  0.00  0.00    +0.000 A 
ATOM     17  C   UNL     1       2.538   2.798  21.129  0.00  0.00    +0.000 A 
ATOM     18  C   UNL     1       3.367   2.751  20.001  0.00  0.00    +0.000 A 
ATOM     19 CL   UNL     1       4.886   1.943  20.164  0.00  0.00    +0.000 Cl
ENDBRANCH  11  12
ENDBRANCH   6  11
TORSDOF 4
ENDMDL
MODEL 3
REMARK VINA RESULT:      -7.7      1.378      1.482
REMARK  Name = 
REMARK  5 active torsions:
REMARK  status: ('A' for Active; 'I' for Inactive)
REMARK    1  A    between atoms: C_1  and  C_2
REMARK    2  A    between atoms: C_2  and  C_3
REMARK    3  A    between atoms: C_3  and  N_4
REMARK    4  A    between atoms: N_9  and  C_10
REMARK    5  A    between atoms: C_10  and  C_11
REMARK                            x       y       z     vdW  Elec       q    Type
REMARK                         _______ _______ _______ _____ _____    ______ ____
ROOT
ATOM      1  N   UNL     1       6.965   4.890  16.616  0.00  0.00    +0.000 N 
ATOM      2  N   UNL     1       7.525   5.276  15.457  0.00  0.00    +0.000 NA
ATOM      3  N   UNL     1       6.535   5.273  14.578  0.00  0.00    +0.000 NA
ATOM      4  N   UNL     1       5.354   4.887  15.165  0.00  0.00    +0.000 NA
ATOM      5  C   UNL     1       5.617   4.687  16.439  0.00  0.00    +0.000 A 
ATOM      6  N   UNL     1       4.806   4.274  17.440  0.00  0.00    +0.000 N 
ATOM      7  H   UNL     1       4.819   4.797  18.311  0.00  0.00    +0.000 HD
ENDROOT
BRANCH   1   8
ATOM      8  C   UNL     1       7.784   4.634  17.776  0.00  0.00    +0.000 C 
BRANCH   8  10
ATOM      9  C   UNL     1       7.914   7.133  18.277  0.00  0.00    +0.000 C 
ATOM     10  C   UNL     1       7.752   5.730  18.846  0.00  0.00    +0.000 C 
ENDBRANCH   8  10
ENDBRANCH   1   8
BRANCH   6  11
ATOM     11  C   UNL     1       3.502   3.730  17.100  0.00  0.00    +0.000 C 
BRANCH  11  12
ATOM     12  C   UNL     1       2.660   3.690  18.349  0.00  0.00    +0.000 A 
ATOM     13  C   UNL     1       2.465   2.460  18.994  0.00  0.00    +0.000 A 
ATOM     14  F   UNL     1       2.996   1.343  18.476  0.00  0.00    +0.000 F 
ATOM     15  C   UNL     1       1.737   2.355  20.178  0.00  0.00    +0.000 A 
ATOM     16  C   UNL     1       1.184   3.494  20.750  0.00  0.00    +0.000 A 
ATOM     17  C   UNL     1       1.371   4.732  20.133  0.00  0.00    +0.000 A 
ATOM     18  C   UNL     1       2.108   4.830  18.947  0.00  0.00    +0.000 A 
ATOM     19 CL   UNL     1       2.327   6.407  18.276  0.00  0.00    +0.000 Cl
ENDBRANCH  11  12
ENDBRANCH   6  11
TORSDOF 4
ENDMDL
MODEL 4
REMARK VINA RESULT:      -7.7      2.382      3.473
REMARK  Name = 
REMARK  5 active torsions:
REMARK  status: ('A' for Active; 'I' for Inactive)
REMARK    1  A    between atoms: C_1  and  C_2
REMARK    2  A    between atoms: C_2  and  C_3
REMARK    3  A    between atoms: C_3  and  N_4
REMARK    4  A    between atoms: N_9  and  C_10
REMARK    5  A    between atoms: C_10  and  C_11
REMARK                            x       y       z     vdW  Elec       q    Type
REMARK                         _______ _______ _______ _____ _____    ______ ____
ROOT
ATOM      1  N   UNL     1       6.885   4.813  15.985  0.00  0.00    +0.000 N 
ATOM      2  N   UNL     1       7.584   5.883  15.572  0.00  0.00    +0.000 NA
ATOM      3  N   UNL     1       7.556   6.729  16.590  0.00  0.00    +0.000 NA
ATOM      4  N   UNL     1       6.844   6.208  17.644  0.00  0.00    +0.000 NA
ATOM      5  C   UNL     1       6.461   5.003  17.279  0.00  0.00    +0.000 A 
ATOM      6  N   UNL     1       5.717   4.088  17.942  0.00  0.00    +0.000 N 
ATOM      7  H   UNL     1       6.058   3.132  17.979  0.00  0.00    +0.000 HD
ENDROOT
BRANCH   1   8
ATOM      8  C   UNL     1       6.579   3.741  15.070  0.00  0.00    +0.000 C 
BRANCH   8  10
ATOM      9  C   UNL     1       6.239   3.570  12.547  0.00  0.00    +0.000 C 
ATOM     10  C   UNL     1       5.727   4.142  13.862  0.00  0.00    +0.000 C 
ENDBRANCH   8  10
ENDBRANCH   1   8
BRANCH   6  11
ATOM     11  C   UNL     1       5.005   4.506  19.138  0.00  0.00    +0.000 C 
BRANCH  11  12
ATOM     12  C   UNL     1       3.625   3.903  19.107  0.00  0.00    +0.000 A 
ATOM     13  C   UNL     1       2.650   4.487  18.286  0.00  0.00    +0.000 A 
ATOM     14  F   UNL     1       2.946   5.583  17.574  0.00  0.00    +0.000 F 
ATOM     15  C   UNL     1       1.366   3.956  18.172  0.00  0.00    +0.000 A 
ATOM     16  C   UNL     1       1.027   2.813  18.886  0.00  0.00    +0.000 A 
ATOM     17  C   UNL     1       1.982   2.206  19.703  0.00  0.00    +0.000 A 
ATOM     18  C   UNL     1       3.272   2.742  19.808  0.00  0.00    +0.000 A 
ATOM     19 CL   UNL     1       4.403   1.902  20.808  0.00  0.00    +0.000 Cl
ENDBRANCH  11  12
ENDBRANCH   6  11
TORSDOF 4
ENDMDL
MODEL 5
REMARK VINA RESULT:      -7.5      1.885      2.147
REMARK  Name = 
REMARK  5 active torsions:
REMARK  status: ('A' for Active; 'I' for Inactive)
REMARK    1  A    between atoms: C_1  and  C_2
REMARK    2  A    between atoms: C_2  and  C_3
REMARK    3  A    between atoms: C_3  and  N_4
REMARK    4  A    between atoms: N_9  and  C_10
REMARK    5  A    between atoms: C_10  and  C_11
REMARK                            x       y       z     vdW  Elec       q    Type
REMARK                         _______ _______ _______ _____ _____    ______ ____
ROOT
ATOM      1  N   UNL     1       6.966   5.072  16.742  0.00  0.00    +0.000 N 
ATOM      2  N   UNL     1       7.553   5.281  15.552  0.00  0.00    +0.000 NA
ATOM      3  N   UNL     1       6.558   5.336  14.681  0.00  0.00    +0.000 NA
ATOM      4  N   UNL     1       5.345   5.162  15.305  0.00  0.00    +0.000 NA
ATOM      5  C   UNL     1       5.600   5.037  16.590  0.00  0.00    +0.000 A 
ATOM      6  N   UNL     1       4.758   4.822  17.627  0.00  0.00    +0.000 N 
ATOM      7  H   UNL     1       4.854   5.410  18.449  0.00  0.00    +0.000 HD
ENDROOT
BRANCH   1   8
ATOM      8  C   UNL     1       7.762   4.808  17.916  0.00  0.00    +0.000 C 
BRANCH   8  10
ATOM      9  C   UNL     1       7.997   7.321  18.293  0.00  0.00    +0.000 C 
ATOM     10  C   UNL     1       7.815   5.952  18.934  0.00  0.00    +0.000 C 
ENDBRANCH   8  10
ENDBRANCH   1   8
BRANCH   6  11
ATOM     11  C   UNL     1       3.388   4.430  17.340  0.00  0.00    +0.000 C 
BRANCH  11  12
ATOM     12  C   UNL     1       2.724   4.033  18.633  0.00  0.00    +0.000 A 
ATOM     13  C   UNL     1       2.024   5.007  19.360  0.00  0.00    +0.000 A 
ATOM     14  F   UNL     1       1.987   6.272  18.919  0.00  0.00    +0.000 F 
ATOM     15  C   UNL     1       1.347   4.702  20.540  0.00  0.00    +0.000 A 
ATOM     16  C   UNL     1       1.353   3.398  21.021  0.00  0.00    +0.000 A 
ATOM     17  C   UNL     1       2.033   2.408  20.310  0.00  0.00    +0.000 A 
ATOM     18  C   UNL     1       2.707   2.722  19.123  0.00  0.00    +0.000 A 
ATOM     19 CL   UNL     1       3.486   1.426  18.286  0.00  0.00    +0.000 Cl
ENDBRANCH  11  12
ENDBRANCH   6  11
TORSDOF 4
ENDMDL
MODEL 6
REMARK VINA RESULT:      -7.5      1.901      3.037
REMARK  Name = 
REMARK  5 active torsions:
REMARK  status: ('A' for Active; 'I' for Inactive)
REMARK    1  A    between atoms: C_1  and  C_2
REMARK    2  A    between atoms: C_2  and  C_3
REMARK    3  A    between atoms: C_3  and  N_4
REMARK    4  A    between atoms: N_9  and  C_10
REMARK    5  A    between atoms: C_10  and  C_11
REMARK                            x       y       z     vdW  Elec       q    Type
REMARK                         _______ _______ _______ _____ _____    ______ ____
ROOT
ATOM      1  N   UNL     1       6.386   4.637  15.261  0.00  0.00    +0.000 N 
ATOM      2  N   UNL     1       7.256   5.564  14.828  0.00  0.00    +0.000 NA
ATOM      3  N   UNL     1       7.710   6.151  15.925  0.00  0.00    +0.000 NA
ATOM      4  N   UNL     1       7.135   5.608  17.049  0.00  0.00    +0.000 NA
ATOM      5  C   UNL     1       6.342   4.642  16.635  0.00  0.00    +0.000 A 
ATOM      6  N   UNL     1       5.532   3.819  17.340  0.00  0.00    +0.000 N 
ATOM      7  H   UNL     1       5.576   2.823  17.143  0.00  0.00    +0.000 HD
ENDROOT
BRANCH   1   8
ATOM      8  C   UNL     1       5.579   3.896  14.322  0.00  0.00    +0.000 C 
BRANCH   8  10
ATOM      9  C   UNL     1       5.245   3.164  11.901  0.00  0.00    +0.000 C 
ATOM     10  C   UNL     1       6.226   3.662  12.954  0.00  0.00    +0.000 C 
ENDBRANCH   8  10
ENDBRANCH   1   8
BRANCH   6  11
ATOM     11  C   UNL     1       5.265   4.132  18.733  0.00  0.00    +0.000 C 
BRANCH  11  12
ATOM     12  C   UNL     1       3.813   3.846  19.018  0.00  0.00    +0.000 A 
ATOM     13  C   UNL     1       3.472   2.643  19.651  0.00  0.00    +0.000 A 
ATOM     14  F   UNL     1       4.428   1.756  19.959  0.00  0.00    +0.000 F 
ATOM     15  C   UNL     1       2.155   2.333  19.987  0.00  0.00    +0.000 A 
ATOM     16  C   UNL     1       1.139   3.235  19.694  0.00  0.00    +0.000 A 
ATOM     17  C   UNL     1       1.453   4.445  19.073  0.00  0.00    +0.000 A 
ATOM     18  C   UNL     1       2.779   4.751  18.744  0.00  0.00    +0.000 A 
ATOM     19 CL   UNL     1       3.083   6.289  18.016  0.00  0.00    +0.000 Cl
ENDBRANCH  11  12
ENDBRANCH   6  11
TORSDOF 4
ENDMDL
MODEL 7
REMARK VINA RESULT:      -7.5      1.892      2.934
REMARK  Name = 
REMARK  5 active torsions:
REMARK  status: ('A' for Active; 'I' for Inactive)
REMARK    1  A    between atoms: C_1  and  C_2
REMARK    2  A    between atoms: C_2  and  C_3
REMARK    3  A    between atoms: C_3  and  N_4
REMARK    4  A    between atoms: N_9  and  C_10
REMARK    5  A    between atoms: C_10  and  C_11
REMARK                            x       y       z     vdW  Elec       q    Type
REMARK                         _______ _______ _______ _____ _____    ______ ____
ROOT
ATOM      1  N   UNL     1       7.142   5.301  16.479  0.00  0.00    +0.000 N 
ATOM      2  N   UNL     1       7.676   6.521  16.296  0.00  0.00    +0.000 NA
ATOM      3  N   UNL     1       7.440   7.175  17.422  0.00  0.00    +0.000 NA
ATOM      4  N   UNL     1       6.760   6.385  18.318  0.00  0.00    +0.000 NA
ATOM      5  C   UNL     1       6.611   5.210  17.744  0.00  0.00    +0.000 A 
ATOM      6  N   UNL     1       5.991   4.095  18.194  0.00  0.00    +0.000 N 
ATOM      7  H   UNL     1       6.486   3.211  18.118  0.00  0.00    +0.000 HD
ENDROOT
BRANCH   1   8
ATOM      8  C   UNL     1       7.082   4.357  15.391  0.00  0.00    +0.000 C 
BRANCH   8  10
ATOM      9  C   UNL     1       5.929   3.665  13.222  0.00  0.00    +0.000 C 
ATOM     10  C   UNL     1       5.821   4.445  14.526  0.00  0.00    +0.000 C 
ENDBRANCH   8  10
ENDBRANCH   1   8
BRANCH   6  11
ATOM     11  C   UNL     1       5.143   4.196  19.369  0.00  0.00    +0.000 C 
BRANCH  11  12
ATOM     12  C   UNL     1       3.756   3.737  19.000  0.00  0.00    +0.000 A 
ATOM     13  C   UNL     1       3.357   2.440  19.354  0.00  0.00    +0.000 A 
ATOM     14  F   UNL     1       4.217   1.624  19.979  0.00  0.00    +0.000 F 
ATOM     15  C   UNL     1       2.074   1.964  19.087  0.00  0.00    +0.000 A 
ATOM     16  C   UNL     1       1.152   2.788  18.452  0.00  0.00    +0.000 A 
ATOM     17  C   UNL     1       1.521   4.086  18.098  0.00  0.00    +0.000 A 
ATOM     18  C   UNL     1       2.810   4.559  18.375  0.00  0.00    +0.000 A 
ATOM     19 CL   UNL     1       3.167   6.192  17.940  0.00  0.00    +0.000 Cl
ENDBRANCH  11  12
ENDBRANCH   6  11
TORSDOF 4
ENDMDL
MODEL 8
REMARK VINA RESULT:      -7.5      2.660      4.076
REMARK  Name = 
REMARK  5 active torsions:
REMARK  status: ('A' for Active; 'I' for Inactive)
REMARK    1  A    between atoms: C_1  and  C_2
REMARK    2  A    between atoms: C_2  and  C_3
REMARK    3  A    between atoms: C_3  and  N_4
REMARK    4  A    between atoms: N_9  and  C_10
REMARK    5  A    between atoms: C_10  and  C_11
REMARK                            x       y       z     vdW  Elec       q    Type
REMARK                         _______ _______ _______ _____ _____    ______ ____
ROOT
ATOM      1  N   UNL     1       6.534   4.000  13.515  0.00  0.00    +0.000 N 
ATOM      2  N   UNL     1       7.391   4.826  12.892  0.00  0.00    +0.000 NA
ATOM      3  N   UNL     1       7.943   5.544  13.857  0.00  0.00    +0.000 NA
ATOM      4  N   UNL     1       7.444   5.184  15.087  0.00  0.00    +0.000 NA
ATOM      5  C   UNL     1       6.598   4.200  14.874  0.00  0.00    +0.000 A 
ATOM      6  N   UNL     1       5.826   3.512  15.747  0.00  0.00    +0.000 N 
ATOM      7  H   UNL     1       5.829   2.498  15.691  0.00  0.00    +0.000 HD
ENDROOT
BRANCH   1   8
ATOM      8  C   UNL     1       5.638   3.165  12.754  0.00  0.00    +0.000 C 
BRANCH   8  10
ATOM      9  C   UNL     1       3.771   2.998  11.023  0.00  0.00    +0.000 C 
ATOM     10  C   UNL     1       4.734   3.912  11.769  0.00  0.00    +0.000 C 
ENDBRANCH   8  10
ENDBRANCH   1   8
BRANCH   6  11
ATOM     11  C   UNL     1       5.676   4.027  17.098  0.00  0.00    +0.000 C 
BRANCH  11  12
ATOM     12  C   UNL     1       4.207   4.111  17.417  0.00  0.00    +0.000 A 
ATOM     13  C   UNL     1       3.494   2.924  17.641  0.00  0.00    +0.000 A 
ATOM     14  F   UNL     1       4.116   1.741  17.532  0.00  0.00    +0.000 F 
ATOM     15  C   UNL     1       2.144   2.927  17.986  0.00  0.00    +0.000 A 
ATOM     16  C   UNL     1       1.470   4.135  18.120  0.00  0.00    +0.000 A 
ATOM     17  C   UNL     1       2.158   5.331  17.914  0.00  0.00    +0.000 A 
ATOM     18  C   UNL     1       3.516   5.319  17.572  0.00  0.00    +0.000 A 
ATOM     19 CL   UNL     1       4.300   6.847  17.377  0.00  0.00    +0.000 Cl
ENDBRANCH  11  12
ENDBRANCH   6  11
TORSDOF 4
ENDMDL
MODEL 9
REMARK VINA RESULT:      -7.5      2.984      4.488
REMARK  Name = 
REMARK  5 active torsions:
REMARK  status: ('A' for Active; 'I' for Inactive)
REMARK    1  A    between atoms: C_1  and  C_2
REMARK    2  A    between atoms: C_2  and  C_3
REMARK    3  A    between atoms: C_3  and  N_4
REMARK    4  A    between atoms: N_9  and  C_10
REMARK    5  A    between atoms: C_10  and  C_11
REMARK                            x       y       z     vdW  Elec       q    Type
REMARK                         _______ _______ _______ _____ _____    ______ ____
ROOT
ATOM      1  N   UNL     1       6.375   4.176  13.907  0.00  0.00    +0.000 N 
ATOM      2  N   UNL     1       7.236   4.847  13.125  0.00  0.00    +0.000 NA
ATOM      3  N   UNL     1       7.995   5.539  13.960  0.00  0.00    +0.000 NA
ATOM      4  N   UNL     1       7.624   5.316  15.265  0.00  0.00    +0.000 NA
ATOM      5  C   UNL     1       6.643   4.439  15.230  0.00  0.00    +0.000 A 
ATOM      6  N   UNL     1       5.916   3.907  16.239  0.00  0.00    +0.000 N 
ATOM      7  H   UNL     1       5.788   2.900  16.255  0.00  0.00    +0.000 HD
ENDROOT
BRANCH   1   8
ATOM      8  C   UNL     1       5.291   3.423  13.326  0.00  0.00    +0.000 C 
BRANCH   8  10
ATOM      9  C   UNL     1       4.034   3.188  11.117  0.00  0.00    +0.000 C 
ATOM     10  C   UNL     1       5.389   3.208  11.812  0.00  0.00    +0.000 C 
ENDBRANCH   8  10
ENDBRANCH   1   8
BRANCH   6  11
ATOM     11  C   UNL     1       6.011   4.510  17.558  0.00  0.00    +0.000 C 
BRANCH  11  12
ATOM     12  C   UNL     1       4.733   5.259  17.835  0.00  0.00    +0.000 A 
ATOM     13  C   UNL     1       4.657   6.617  17.495  0.00  0.00    +0.000 A 
ATOM     14  F   UNL     1       5.724   7.234  16.967  0.00  0.00    +0.000 F 
ATOM     15  C   UNL     1       3.493   7.360  17.680  0.00  0.00    +0.000 A 
ATOM     16  C   UNL     1       2.364   6.751  18.213  0.00  0.00    +0.000 A 
ATOM     17  C   UNL     1       2.409   5.397  18.550  0.00  0.00    +0.000 A 
ATOM     18  C   UNL     1       3.581   4.656  18.356  0.00  0.00    +0.000 A 
ATOM     19 CL   UNL     1       3.535   2.977  18.761  0.00  0.00    +0.000 Cl
ENDBRANCH  11  12
ENDBRANCH   6  11
TORSDOF 4
ENDMDL
