MODEL 1
REMARK VINA RESULT:      -7.3      0.000      0.000
REMARK  Name = 
REMARK  9 active torsions:
REMARK  status: ('A' for Active; 'I' for Inactive)
REMARK    1  A    between atoms: C_1  and  C_2
REMARK    2  A    between atoms: C_2  and  C_3
REMARK    3  A    between atoms: C_3  and  C_4
REMARK    4  A    between atoms: C_9  and  O_10
REMARK    5  A    between atoms: O_10  and  C_11
REMARK    6  A    between atoms: C_15  and  O_17
REMARK    7  A    between atoms: O_17  and  C_18
REMARK    8  A    between atoms: C_20  and  O_22
REMARK    9  A    between atoms: O_22  and  C_23
REMARK                            x       y       z     vdW  Elec       q    Type
REMARK                         _______ _______ _______ _____ _____    ______ ____
ROOT
ATOM      1  C   UNL     1       4.153   4.727  17.475  0.00  0.00    +0.000 C 
ATOM      2  C   UNL     1       5.309   4.276  18.446  0.00  0.00    +0.000 C 
ATOM      3  O   UNL     1       5.403   3.695  19.509  0.00  0.00    +0.000 OA
ATOM      4  N   UNL     1       6.264   4.654  17.547  0.00  0.00    +0.000 N 
ATOM      5  C   UNL     1       7.294   5.484  17.945  0.00  0.00    +0.000 C 
ATOM      6  O   UNL     1       7.464   6.638  17.565  0.00  0.00    +0.000 OA
ATOM      7  N   UNL     1       5.297   5.122  16.627  0.00  0.00    +0.000 N 
ATOM      8  C   UNL     1       5.582   4.935  15.288  0.00  0.00    +0.000 C 
ATOM      9  O   UNL     1       4.816   4.485  14.449  0.00  0.00    +0.000 OA
ENDROOT
BRANCH   1  10
ATOM     10  C   UNL     1       3.236   5.922  18.175  0.00  0.00    +0.000 A 
ATOM     11  C   UNL     1       3.198   7.211  17.555  0.00  0.00    +0.000 A 
ATOM     12  C   UNL     1       2.581   8.341  18.107  0.00  0.00    +0.000 A 
ATOM     13  C   UNL     1       1.943   8.248  19.326  0.00  0.00    +0.000 A 
ATOM     14  C   UNL     1       1.946   7.027  19.979  0.00  0.00    +0.000 A 
ATOM     15  C   UNL     1       2.580   5.885  19.438  0.00  0.00    +0.000 A 
BRANCH  15  16
ATOM     16  O   UNL     1       2.550   4.891  20.378  0.00  0.00    +0.000 OA
ATOM     17  C   UNL     1       1.366   4.165  20.588  0.00  0.00    +0.000 C 
ENDBRANCH  15  16
ENDBRANCH   1  10
BRANCH   1  19
ATOM     18  C   UNL     1       3.339   2.292  17.892  0.00  0.00    +0.000 C 
ATOM     19  C   UNL     1       3.227   3.569  17.081  0.00  0.00    +0.000 C 
ENDBRANCH   1  19
BRANCH   5  20
ATOM     20  O   UNL     1       8.114   4.851  18.832  0.00  0.00    +0.000 OA
ATOM     21  C   UNL     1       8.319   5.542  20.066  0.00  0.00    +0.000 C 
ENDBRANCH   5  20
BRANCH   8  22
ATOM     22  O   UNL     1       6.828   5.400  14.982  0.00  0.00    +0.000 OA
ATOM     23  C   UNL     1       7.384   4.906  13.762  0.00  0.00    +0.000 C 
ENDBRANCH   8  22
TORSDOF 5
ENDMDL
MODEL 2
REMARK VINA RESULT:      -7.1      2.046      5.277
REMARK  Name = 
REMARK  9 active torsions:
REMARK  status: ('A' for Active; 'I' for Inactive)
REMARK    1  A    between atoms: C_1  and  C_2
REMARK    2  A    between atoms: C_2  and  C_3
REMARK    3  A    between atoms: C_3  and  C_4
REMARK    4  A    between atoms: C_9  and  O_10
REMARK    5  A    between atoms: O_10  and  C_11
REMARK    6  A    between atoms: C_15  and  O_17
REMARK    7  A    between atoms: O_17  and  C_18
REMARK    8  A    between atoms: C_20  and  O_22
REMARK    9  A    between atoms: O_22  and  C_23
REMARK                            x       y       z     vdW  Elec       q    Type
REMARK                         _______ _______ _______ _____ _____    ______ ____
ROOT
ATOM      1  C   UNL     1       4.071   5.161  17.589  0.00  0.00    +0.000 C 
ATOM      2  C   UNL     1       4.684   4.701  18.966  0.00  0.00    +0.000 C 
ATOM      3  O   UNL     1       5.516   5.108  19.751  0.00  0.00    +0.000 OA
ATOM      4  N   UNL     1       3.784   3.679  19.067  0.00  0.00    +0.000 N 
ATOM      5  C   UNL     1       4.226   2.394  19.313  0.00  0.00    +0.000 C 
ATOM      6  O   UNL     1       4.158   1.455  18.526  0.00  0.00    +0.000 OA
ATOM      7  N   UNL     1       3.195   3.995  17.821  0.00  0.00    +0.000 N 
ATOM      8  C   UNL     1       1.829   3.812  17.724  0.00  0.00    +0.000 C 
ATOM      9  O   UNL     1       1.031   4.614  17.259  0.00  0.00    +0.000 OA
ENDROOT
BRANCH   1  10
ATOM     10  C   UNL     1       5.210   5.069  16.383  0.00  0.00    +0.000 A 
ATOM     11  C   UNL     1       4.903   4.319  15.204  0.00  0.00    +0.000 A 
ATOM     12  C   UNL     1       5.815   4.045  14.176  0.00  0.00    +0.000 A 
ATOM     13  C   UNL     1       7.105   4.523  14.258  0.00  0.00    +0.000 A 
ATOM     14  C   UNL     1       7.467   5.256  15.377  0.00  0.00    +0.000 A 
ATOM     15  C   UNL     1       6.559   5.523  16.427  0.00  0.00    +0.000 A 
BRANCH  15  16
ATOM     16  O   UNL     1       7.247   6.120  17.448  0.00  0.00    +0.000 OA
ATOM     17  C   UNL     1       7.350   7.520  17.495  0.00  0.00    +0.000 C 
ENDBRANCH  15  16
ENDBRANCH   1  10
BRANCH   1  19
ATOM     18  C   UNL     1       2.804   7.016  18.902  0.00  0.00    +0.000 C 
ATOM     19  C   UNL     1       3.526   6.595  17.636  0.00  0.00    +0.000 C 
ENDBRANCH   1  19
BRANCH   5  20
ATOM     20  O   UNL     1       4.763   2.295  20.563  0.00  0.00    +0.000 OA
ATOM     21  C   UNL     1       5.264   1.002  20.907  0.00  0.00    +0.000 C 
ENDBRANCH   5  20
BRANCH   8  22
ATOM     22  O   UNL     1       1.469   2.565  18.144  0.00  0.00    +0.000 OA
ATOM     23  C   UNL     1       0.509   2.528  19.203  0.00  0.00    +0.000 C 
ENDBRANCH   8  22
TORSDOF 5
ENDMDL
MODEL 3
REMARK VINA RESULT:      -7.0      1.102      1.168
REMARK  Name = 
REMARK  9 active torsions:
REMARK  status: ('A' for Active; 'I' for Inactive)
REMARK    1  A    between atoms: C_1  and  C_2
REMARK    2  A    between atoms: C_2  and  C_3
REMARK    3  A    between atoms: C_3  and  C_4
REMARK    4  A    between atoms: C_9  and  O_10
REMARK    5  A    between atoms: O_10  and  C_11
REMARK    6  A    between atoms: C_15  and  O_17
REMARK    7  A    between atoms: O_17  and  C_18
REMARK    8  A    between atoms: C_20  and  O_22
REMARK    9  A    between atoms: O_22  and  C_23
REMARK                            x       y       z     vdW  Elec       q    Type
REMARK                         _______ _______ _______ _____ _____    ______ ____
ROOT
ATOM      1  C   UNL     1       4.527   5.185  17.956  0.00  0.00    +0.000 C 
ATOM      2  C   UNL     1       5.875   5.442  18.731  0.00  0.00    +0.000 C 
ATOM      3  O   UNL     1       6.296   5.290  19.860  0.00  0.00    +0.000 OA
ATOM      4  N   UNL     1       6.518   5.783  17.576  0.00  0.00    +0.000 N 
ATOM      5  C   UNL     1       7.225   6.968  17.506  0.00  0.00    +0.000 C 
ATOM      6  O   UNL     1       6.926   7.934  16.811  0.00  0.00    +0.000 OA
ATOM      7  N   UNL     1       5.346   5.615  16.804  0.00  0.00    +0.000 N 
ATOM      8  C   UNL     1       5.517   5.105  15.531  0.00  0.00    +0.000 C 
ATOM      9  O   UNL     1       4.866   4.200  15.030  0.00  0.00    +0.000 OA
ENDROOT
BRANCH   1  10
ATOM     10  C   UNL     1       3.335   6.204  18.505  0.00  0.00    +0.000 A 
ATOM     11  C   UNL     1       3.078   7.412  17.783  0.00  0.00    +0.000 A 
ATOM     12  C   UNL     1       2.203   8.421  18.208  0.00  0.00    +0.000 A 
ATOM     13  C   UNL     1       1.511   8.276  19.392  0.00  0.00    +0.000 A 
ATOM     14  C   UNL     1       1.718   7.128  20.139  0.00  0.00    +0.000 A 
ATOM     15  C   UNL     1       2.611   6.112  19.727  0.00  0.00    +0.000 A 
BRANCH  15  16
ATOM     16  O   UNL     1       2.717   5.198  20.740  0.00  0.00    +0.000 OA
ATOM     17  C   UNL     1       1.711   4.235  20.919  0.00  0.00    +0.000 C 
ENDBRANCH  15  16
ENDBRANCH   1  10
BRANCH   1  19
ATOM     18  C   UNL     1       2.713   3.396  17.432  0.00  0.00    +0.000 C 
ATOM     19  C   UNL     1       4.034   3.739  18.093  0.00  0.00    +0.000 C 
ENDBRANCH   1  19
BRANCH   5  20
ATOM     20  O   UNL     1       8.315   6.933  18.324  0.00  0.00    +0.000 OA
ATOM     21  C   UNL     1       8.704   8.195  18.870  0.00  0.00    +0.000 C 
ENDBRANCH   5  20
BRANCH   8  22
ATOM     22  O   UNL     1       6.469   5.802  14.847  0.00  0.00    +0.000 OA
ATOM     23  C   UNL     1       7.297   5.022  13.981  0.00  0.00    +0.000 C 
ENDBRANCH   8  22
TORSDOF 5
ENDMDL
MODEL 4
REMARK VINA RESULT:      -6.6      1.515      2.383
REMARK  Name = 
REMARK  9 active torsions:
REMARK  status: ('A' for Active; 'I' for Inactive)
REMARK    1  A    between atoms: C_1  and  C_2
REMARK    2  A    between atoms: C_2  and  C_3
REMARK    3  A    between atoms: C_3  and  C_4
REMARK    4  A    between atoms: C_9  and  O_10
REMARK    5  A    between atoms: O_10  and  C_11
REMARK    6  A    between atoms: C_15  and  O_17
REMARK    7  A    between atoms: O_17  and  C_18
REMARK    8  A    between atoms: C_20  and  O_22
REMARK    9  A    between atoms: O_22  and  C_23
REMARK                            x       y       z     vdW  Elec       q    Type
REMARK                         _______ _______ _______ _____ _____    ______ ____
ROOT
ATOM      1  C   UNL     1       4.960   4.709  18.510  0.00  0.00    +0.000 C 
ATOM      2  C   UNL     1       6.332   5.312  18.997  0.00  0.00    +0.000 C 
ATOM      3  O   UNL     1       6.994   5.311  20.016  0.00  0.00    +0.000 OA
ATOM      4  N   UNL     1       6.629   5.751  17.739  0.00  0.00    +0.000 N 
ATOM      5  C   UNL     1       6.998   7.067  17.538  0.00  0.00    +0.000 C 
ATOM      6  O   UNL     1       6.341   7.904  16.928  0.00  0.00    +0.000 OA
ATOM      7  N   UNL     1       5.403   5.276  17.219  0.00  0.00    +0.000 N 
ATOM      8  C   UNL     1       5.435   4.771  15.934  0.00  0.00    +0.000 C 
ATOM      9  O   UNL     1       4.937   3.717  15.566  0.00  0.00    +0.000 OA
ENDROOT
BRANCH   1  10
ATOM     10  C   UNL     1       3.691   5.433  19.300  0.00  0.00    +0.000 A 
ATOM     11  C   UNL     1       3.021   4.706  20.334  0.00  0.00    +0.000 A 
ATOM     12  C   UNL     1       1.857   5.138  20.984  0.00  0.00    +0.000 A 
ATOM     13  C   UNL     1       1.290   6.347  20.644  0.00  0.00    +0.000 A 
ATOM     14  C   UNL     1       1.890   7.099  19.647  0.00  0.00    +0.000 A 
ATOM     15  C   UNL     1       3.054   6.664  18.974  0.00  0.00    +0.000 A 
BRANCH  15  16
ATOM     16  O   UNL     1       3.308   7.535  17.949  0.00  0.00    +0.000 OA
ATOM     17  C   UNL     1       2.446   8.620  17.726  0.00  0.00    +0.000 C 
ENDBRANCH  15  16
ENDBRANCH   1  10
BRANCH   1  19
ATOM     18  C   UNL     1       3.646   2.489  18.180  0.00  0.00    +0.000 C 
ATOM     19  C   UNL     1       4.871   3.193  18.730  0.00  0.00    +0.000 C 
ENDBRANCH   1  19
BRANCH   5  20
ATOM     20  O   UNL     1       8.205   7.327  18.117  0.00  0.00    +0.000 OA
ATOM     21  C   UNL     1       8.485   8.711  18.338  0.00  0.00    +0.000 C 
ENDBRANCH   5  20
BRANCH   8  22
ATOM     22  O   UNL     1       6.034   5.648  15.077  0.00  0.00    +0.000 OA
ATOM     23  C   UNL     1       7.053   5.093  14.244  0.00  0.00    +0.000 C 
ENDBRANCH   8  22
TORSDOF 5
ENDMDL
MODEL 5
REMARK VINA RESULT:      -6.2      6.265      8.787
REMARK  Name = 
REMARK  9 active torsions:
REMARK  status: ('A' for Active; 'I' for Inactive)
REMARK    1  A    between atoms: C_1  and  C_2
REMARK    2  A    between atoms: C_2  and  C_3
REMARK    3  A    between atoms: C_3  and  C_4
REMARK    4  A    between atoms: C_9  and  O_10
REMARK    5  A    between atoms: O_10  and  C_11
REMARK    6  A    between atoms: C_15  and  O_17
REMARK    7  A    between atoms: O_17  and  C_18
REMARK    8  A    between atoms: C_20  and  O_22
REMARK    9  A    between atoms: O_22  and  C_23
REMARK                            x       y       z     vdW  Elec       q    Type
REMARK                         _______ _______ _______ _____ _____    ______ ____
ROOT
ATOM      1  C   UNL     1       0.033  10.383  18.670  0.00  0.00    +0.000 C 
ATOM      2  C   UNL     1      -0.104   9.999  20.192  0.00  0.00    +0.000 C 
ATOM      3  O   UNL     1      -0.467   9.036  20.838  0.00  0.00    +0.000 OA
ATOM      4  N   UNL     1       0.515  11.152  20.578  0.00  0.00    +0.000 N 
ATOM      5  C   UNL     1      -0.078  11.969  21.521  0.00  0.00    +0.000 C 
ATOM      6  O   UNL     1      -0.522  13.094  21.308  0.00  0.00    +0.000 OA
ATOM      7  N   UNL     1       0.648  11.598  19.243  0.00  0.00    +0.000 N 
ATOM      8  C   UNL     1       1.800  12.300  18.941  0.00  0.00    +0.000 C 
ATOM      9  O   UNL     1       2.522  12.108  17.974  0.00  0.00    +0.000 OA
ENDROOT
BRANCH   1  10
ATOM     10  C   UNL     1      -1.464  10.510  17.963  0.00  0.00    +0.000 A 
ATOM     11  C   UNL     1      -1.718   9.783  16.757  0.00  0.00    +0.000 A 
ATOM     12  C   UNL     1      -2.882   9.904  15.985  0.00  0.00    +0.000 A 
ATOM     13  C   UNL     1      -3.882  10.764  16.384  0.00  0.00    +0.000 A 
ATOM     14  C   UNL     1      -3.697  11.500  17.542  0.00  0.00    +0.000 A 
ATOM     15  C   UNL     1      -2.520  11.396  18.319  0.00  0.00    +0.000 A 
BRANCH  15  16
ATOM     16  O   UNL     1      -2.566  12.352  19.297  0.00  0.00    +0.000 OA
ATOM     17  C   UNL     1      -3.757  12.564  20.010  0.00  0.00    +0.000 C 
ENDBRANCH  15  16
ENDBRANCH   1  10
BRANCH   1  19
ATOM     18  C   UNL     1       1.919   8.591  18.642  0.00  0.00    +0.000 C 
ATOM     19  C   UNL     1       0.862   9.364  17.877  0.00  0.00    +0.000 C 
ENDBRANCH   1  19
BRANCH   5  20
ATOM     20  O   UNL     1      -0.114  11.360  22.740  0.00  0.00    +0.000 OA
ATOM     21  C   UNL     1      -1.421  11.169  23.284  0.00  0.00    +0.000 C 
ENDBRANCH   5  20
BRANCH   8  22
ATOM     22  O   UNL     1       2.002  13.315  19.829  0.00  0.00    +0.000 OA
ATOM     23  C   UNL     1       2.636  14.480  19.295  0.00  0.00    +0.000 C 
ENDBRANCH   8  22
TORSDOF 5
ENDMDL
MODEL 6
REMARK VINA RESULT:      -6.1      1.356      3.362
REMARK  Name = 
REMARK  9 active torsions:
REMARK  status: ('A' for Active; 'I' for Inactive)
REMARK    1  A    between atoms: C_1  and  C_2
REMARK    2  A    between atoms: C_2  and  C_3
REMARK    3  A    between atoms: C_3  and  C_4
REMARK    4  A    between atoms: C_9  and  O_10
REMARK    5  A    between atoms: O_10  and  C_11
REMARK    6  A    between atoms: C_15  and  O_17
REMARK    7  A    between atoms: O_17  and  C_18
REMARK    8  A    between atoms: C_20  and  O_22
REMARK    9  A    between atoms: O_22  and  C_23
REMARK                            x       y       z     vdW  Elec       q    Type
REMARK                         _______ _______ _______ _____ _____    ______ ____
ROOT
ATOM      1  C   UNL     1       4.438   6.074  17.360  0.00  0.00    +0.000 C 
ATOM      2  C   UNL     1       3.969   4.570  17.309  0.00  0.00    +0.000 C 
ATOM      3  O   UNL     1       3.128   3.919  16.723  0.00  0.00    +0.000 OA
ATOM      4  N   UNL     1       5.010   4.180  18.101  0.00  0.00    +0.000 N 
ATOM      5  C   UNL     1       4.770   3.416  19.227  0.00  0.00    +0.000 C 
ATOM      6  O   UNL     1       4.933   3.788  20.385  0.00  0.00    +0.000 OA
ATOM      7  N   UNL     1       5.484   5.505  18.235  0.00  0.00    +0.000 N 
ATOM      8  C   UNL     1       6.855   5.665  18.286  0.00  0.00    +0.000 C 
ATOM      9  O   UNL     1       7.504   6.480  17.647  0.00  0.00    +0.000 OA
ENDROOT
BRANCH   1  10
ATOM     10  C   UNL     1       3.264   7.029  18.046  0.00  0.00    +0.000 A 
ATOM     11  C   UNL     1       2.962   8.288  17.438  0.00  0.00    +0.000 A 
ATOM     12  C   UNL     1       2.099   9.248  17.984  0.00  0.00    +0.000 A 
ATOM     13  C   UNL     1       1.466   8.998  19.182  0.00  0.00    +0.000 A 
ATOM     14  C   UNL     1       1.718   7.797  19.823  0.00  0.00    +0.000 A 
ATOM     15  C   UNL     1       2.600   6.829  19.289  0.00  0.00    +0.000 A 
BRANCH  15  16
ATOM     16  O   UNL     1       2.763   5.837  20.218  0.00  0.00    +0.000 OA
ATOM     17  C   UNL     1       1.655   5.082  20.634  0.00  0.00    +0.000 C 
ENDBRANCH  15  16
ENDBRANCH   1  10
BRANCH   1  19
ATOM     18  C   UNL     1       5.437   5.689  14.989  0.00  0.00    +0.000 C 
ATOM     19  C   UNL     1       4.773   6.635  15.972  0.00  0.00    +0.000 C 
ENDBRANCH   1  19
BRANCH   5  20
ATOM     20  O   UNL     1       4.318   2.176  18.887  0.00  0.00    +0.000 OA
ATOM     21  C   UNL     1       3.031   1.836  19.408  0.00  0.00    +0.000 C 
ENDBRANCH   5  20
BRANCH   8  22
ATOM     22  O   UNL     1       7.411   4.839  19.219  0.00  0.00    +0.000 OA
ATOM     23  C   UNL     1       8.271   5.476  20.167  0.00  0.00    +0.000 C 
ENDBRANCH   8  22
TORSDOF 5
ENDMDL
MODEL 7
REMARK VINA RESULT:      -6.1      1.829      5.867
REMARK  Name = 
REMARK  9 active torsions:
REMARK  status: ('A' for Active; 'I' for Inactive)
REMARK    1  A    between atoms: C_1  and  C_2
REMARK    2  A    between atoms: C_2  and  C_3
REMARK    3  A    between atoms: C_3  and  C_4
REMARK    4  A    between atoms: C_9  and  O_10
REMARK    5  A    between atoms: O_10  and  C_11
REMARK    6  A    between atoms: C_15  and  O_17
REMARK    7  A    between atoms: O_17  and  C_18
REMARK    8  A    between atoms: C_20  and  O_22
REMARK    9  A    between atoms: O_22  and  C_23
REMARK                            x       y       z     vdW  Elec       q    Type
REMARK                         _______ _______ _______ _____ _____    ______ ____
ROOT
ATOM      1  C   UNL     1       5.871   5.718  16.451  0.00  0.00    +0.000 C 
ATOM      2  C   UNL     1       6.365   4.710  17.557  0.00  0.00    +0.000 C 
ATOM      3  O   UNL     1       7.412   4.184  17.879  0.00  0.00    +0.000 OA
ATOM      4  N   UNL     1       5.151   4.740  18.180  0.00  0.00    +0.000 N 
ATOM      5  C   UNL     1       4.501   3.558  18.480  0.00  0.00    +0.000 C 
ATOM      6  O   UNL     1       3.455   3.173  17.968  0.00  0.00    +0.000 OA
ATOM      7  N   UNL     1       4.609   5.616  17.211  0.00  0.00    +0.000 N 
ATOM      8  C   UNL     1       3.710   6.560  17.671  0.00  0.00    +0.000 C 
ATOM      9  O   UNL     1       3.722   7.751  17.398  0.00  0.00    +0.000 OA
ENDROOT
BRANCH   1  10
ATOM     10  C   UNL     1       5.949   5.018  14.946  0.00  0.00    +0.000 A 
ATOM     11  C   UNL     1       4.912   4.113  14.556  0.00  0.00    +0.000 A 
ATOM     12  C   UNL     1       4.922   3.350  13.380  0.00  0.00    +0.000 A 
ATOM     13  C   UNL     1       5.980   3.458  12.502  0.00  0.00    +0.000 A 
ATOM     14  C   UNL     1       7.018   4.317  12.824  0.00  0.00    +0.000 A 
ATOM     15  C   UNL     1       7.024   5.077  14.016  0.00  0.00    +0.000 A 
BRANCH  15  16
ATOM     16  O   UNL     1       8.241   5.696  14.124  0.00  0.00    +0.000 OA
ATOM     17  C   UNL     1       8.995   5.958  12.970  0.00  0.00    +0.000 C 
ENDBRANCH  15  16
ENDBRANCH   1  10
BRANCH   1  19
ATOM     18  C   UNL     1       7.484   7.351  17.675  0.00  0.00    +0.000 C 
ATOM     19  C   UNL     1       6.690   7.015  16.428  0.00  0.00    +0.000 C 
ENDBRANCH   1  19
BRANCH   5  20
ATOM     20  O   UNL     1       5.182   2.857  19.431  0.00  0.00    +0.000 OA
ATOM     21  C   UNL     1       4.364   2.199  20.400  0.00  0.00    +0.000 C 
ENDBRANCH   5  20
BRANCH   8  22
ATOM     22  O   UNL     1       2.731   5.980  18.423  0.00  0.00    +0.000 OA
ATOM     23  C   UNL     1       2.442   6.632  19.662  0.00  0.00    +0.000 C 
ENDBRANCH   8  22
TORSDOF 5
ENDMDL
MODEL 8
REMARK VINA RESULT:      -5.8      1.105      1.957
REMARK  Name = 
REMARK  9 active torsions:
REMARK  status: ('A' for Active; 'I' for Inactive)
REMARK    1  A    between atoms: C_1  and  C_2
REMARK    2  A    between atoms: C_2  and  C_3
REMARK    3  A    between atoms: C_3  and  C_4
REMARK    4  A    between atoms: C_9  and  O_10
REMARK    5  A    between atoms: O_10  and  C_11
REMARK    6  A    between atoms: C_15  and  O_17
REMARK    7  A    between atoms: O_17  and  C_18
REMARK    8  A    between atoms: C_20  and  O_22
REMARK    9  A    between atoms: O_22  and  C_23
REMARK                            x       y       z     vdW  Elec       q    Type
REMARK                         _______ _______ _______ _____ _____    ______ ____
ROOT
ATOM      1  C   UNL     1       4.063   4.581  18.013  0.00  0.00    +0.000 C 
ATOM      2  C   UNL     1       5.328   4.060  18.794  0.00  0.00    +0.000 C 
ATOM      3  O   UNL     1       5.554   3.327  19.737  0.00  0.00    +0.000 OA
ATOM      4  N   UNL     1       6.171   4.636  17.888  0.00  0.00    +0.000 N 
ATOM      5  C   UNL     1       7.191   5.459  18.323  0.00  0.00    +0.000 C 
ATOM      6  O   UNL     1       7.265   6.667  18.121  0.00  0.00    +0.000 OA
ATOM      7  N   UNL     1       5.098   5.177  17.143  0.00  0.00    +0.000 N 
ATOM      8  C   UNL     1       5.261   5.220  15.772  0.00  0.00    +0.000 C 
ATOM      9  O   UNL     1       4.440   4.858  14.942  0.00  0.00    +0.000 OA
ENDROOT
BRANCH   1  10
ATOM     10  C   UNL     1       3.158   5.589  18.974  0.00  0.00    +0.000 A 
ATOM     11  C   UNL     1       2.474   5.032  20.101  0.00  0.00    +0.000 A 
ATOM     12  C   UNL     1       1.571   5.735  20.910  0.00  0.00    +0.000 A 
ATOM     13  C   UNL     1       1.304   7.062  20.647  0.00  0.00    +0.000 A 
ATOM     14  C   UNL     1       1.934   7.660  19.568  0.00  0.00    +0.000 A 
ATOM     15  C   UNL     1       2.832   6.954  18.736  0.00  0.00    +0.000 A 
BRANCH  15  16
ATOM     16  O   UNL     1       3.159   7.758  17.678  0.00  0.00    +0.000 OA
ATOM     17  C   UNL     1       2.504   8.988  17.507  0.00  0.00    +0.000 C 
ENDBRANCH  15  16
ENDBRANCH   1  10
BRANCH   1  19
ATOM     18  C   UNL     1       3.504   2.040  17.994  0.00  0.00    +0.000 C 
ATOM     19  C   UNL     1       3.163   3.440  17.520  0.00  0.00    +0.000 C 
ENDBRANCH   1  19
BRANCH   5  20
ATOM     20  O   UNL     1       8.124   4.750  19.022  0.00  0.00    +0.000 OA
ATOM     21  C   UNL     1       8.465   5.293  20.299  0.00  0.00    +0.000 C 
ENDBRANCH   5  20
BRANCH   8  22
ATOM     22  O   UNL     1       6.446   5.807  15.438  0.00  0.00    +0.000 OA
ATOM     23  C   UNL     1       7.236   5.094  14.484  0.00  0.00    +0.000 C 
ENDBRANCH   8  22
TORSDOF 5
ENDMDL
MODEL 9
REMARK VINA RESULT:      -5.7      1.421      1.741
REMARK  Name = 
REMARK  9 active torsions:
REMARK  status: ('A' for Active; 'I' for Inactive)
REMARK    1  A    between atoms: C_1  and  C_2
REMARK    2  A    between atoms: C_2  and  C_3
REMARK    3  A    between atoms: C_3  and  C_4
REMARK    4  A    between atoms: C_9  and  O_10
REMARK    5  A    between atoms: O_10  and  C_11
REMARK    6  A    between atoms: C_15  and  O_17
REMARK    7  A    between atoms: O_17  and  C_18
REMARK    8  A    between atoms: C_20  and  O_22
REMARK    9  A    between atoms: O_22  and  C_23
REMARK                            x       y       z     vdW  Elec       q    Type
REMARK                         _______ _______ _______ _____ _____    ______ ____
ROOT
ATOM      1  C   UNL     1       4.551   4.420  18.407  0.00  0.00    +0.000 C 
ATOM      2  C   UNL     1       5.908   5.016  18.940  0.00  0.00    +0.000 C 
ATOM      3  O   UNL     1       6.529   5.023  19.984  0.00  0.00    +0.000 OA
ATOM      4  N   UNL     1       6.260   5.434  17.689  0.00  0.00    +0.000 N 
ATOM      5  C   UNL     1       6.651   6.743  17.485  0.00  0.00    +0.000 C 
ATOM      6  O   UNL     1       6.028   7.578  16.837  0.00  0.00    +0.000 OA
ATOM      7  N   UNL     1       5.051   4.964  17.127  0.00  0.00    +0.000 N 
ATOM      8  C   UNL     1       5.129   4.441  15.851  0.00  0.00    +0.000 C 
ATOM      9  O   UNL     1       4.635   3.386  15.479  0.00  0.00    +0.000 OA
ENDROOT
BRANCH   1  10
ATOM     10  C   UNL     1       3.259   5.169  19.135  0.00  0.00    +0.000 A 
ATOM     11  C   UNL     1       3.237   6.598  19.194  0.00  0.00    +0.000 A 
ATOM     12  C   UNL     1       2.284   7.351  19.894  0.00  0.00    +0.000 A 
ATOM     13  C   UNL     1       1.273   6.711  20.578  0.00  0.00    +0.000 A 
ATOM     14  C   UNL     1       1.239   5.326  20.562  0.00  0.00    +0.000 A 
ATOM     15  C   UNL     1       2.205   4.558  19.872  0.00  0.00    +0.000 A 
BRANCH  15  16
ATOM     16  O   UNL     1       1.999   3.239  20.173  0.00  0.00    +0.000 OA
ATOM     17  C   UNL     1       1.529   2.879  21.447  0.00  0.00    +0.000 C 
ENDBRANCH  15  16
ENDBRANCH   1  10
BRANCH   1  19
ATOM     18  C   UNL     1       4.876   2.390  20.000  0.00  0.00    +0.000 C 
ATOM     19  C   UNL     1       4.436   2.909  18.644  0.00  0.00    +0.000 C 
ENDBRANCH   1  19
BRANCH   5  20
ATOM     20  O   UNL     1       7.837   7.000  18.108  0.00  0.00    +0.000 OA
ATOM     21  C   UNL     1       8.235   8.372  18.111  0.00  0.00    +0.000 C 
ENDBRANCH   5  20
BRANCH   8  22
ATOM     22  O   UNL     1       5.770   5.299  15.007  0.00  0.00    +0.000 OA
ATOM     23  C   UNL     1       6.768   4.707  14.172  0.00  0.00    +0.000 C 
ENDBRANCH   8  22
TORSDOF 5
ENDMDL
