MODEL 1
REMARK VINA RESULT:      -7.3      0.000      0.000
REMARK  Name = 
REMARK  4 active torsions:
REMARK  status: ('A' for Active; 'I' for Inactive)
REMARK    1  A    between atoms: N_3  and  C_4
REMARK    2  A    between atoms: N_16  and  C_17
REMARK    3  A    between atoms: C_17  and  C_18
REMARK    4  A    between atoms: C_18  and  N_19
REMARK                            x       y       z     vdW  Elec       q    Type
REMARK                         _______ _______ _______ _____ _____    ______ ____
ROOT
ATOM      1  O   UNL     1       7.390   9.528  17.179  0.00  0.00    +0.000 OA
ATOM      2  C   UNL     1       7.866   8.662  17.910  0.00  0.00    +0.000 C 
ATOM      3  N   UNL     1       8.849   8.891  18.840  0.00  0.00    +0.000 N 
ATOM      4  N   UNL     1       7.399   7.361  17.849  0.00  0.00    +0.000 N 
ATOM      5  C   UNL     1       7.831   6.232  18.681  0.00  0.00    +0.000 C 
ATOM      6  C   UNL     1       6.638   5.623  19.438  0.00  0.00    +0.000 C 
ATOM      7  N   UNL     1       5.518   5.222  18.562  0.00  0.00    +0.000 NA
ATOM      8  C   UNL     1       5.100   6.427  17.789  0.00  0.00    +0.000 C 
ATOM      9  C   UNL     1       6.242   7.085  16.985  0.00  0.00    +0.000 C 
ATOM     10  H   UNL     1       9.398   8.100  19.130  0.00  0.00    +0.000 HD
ENDROOT
BRANCH   3  11
ATOM     11  C   UNL     1       9.384  10.141  19.204  0.00  0.00    +0.000 A 
ATOM     12  C   UNL     1       9.342  10.640  20.523  0.00  0.00    +0.000 A 
ATOM     13  C   UNL     1       9.800  11.919  20.823  0.00  0.00    +0.000 A 
ATOM     14  C   UNL     1      10.320  12.664  19.796  0.00  0.00    +0.000 A 
ATOM     15  C   UNL     1      10.416  12.168  18.516  0.00  0.00    +0.000 A 
ATOM     16  C   UNL     1       9.972  10.904  18.189  0.00  0.00    +0.000 A 
ATOM     17  O   UNL     1      10.957  13.068  17.655  0.00  0.00    +0.000 OA
ATOM     18  C   UNL     1      11.129  14.208  18.522  0.00  0.00    +0.000 C 
ATOM     19  O   UNL     1      10.782  13.938  19.894  0.00  0.00    +0.000 OA
ENDBRANCH   3  11
BRANCH   7  20
ATOM     20  C   UNL     1       5.869   4.114  17.646  0.00  0.00    +0.000 C 
BRANCH  20  21
ATOM     21  C   UNL     1       4.720   3.684  16.723  0.00  0.00    +0.000 C 
BRANCH  21  22
ATOM     22  N   UNL     1       3.599   3.163  17.477  0.00  0.00    +0.000 N 
ATOM     23  C   UNL     1       2.328   3.660  17.494  0.00  0.00    +0.000 A 
ATOM     24  C   UNL     1       1.636   2.828  18.345  0.00  0.00    +0.000 A 
ATOM     25  N   UNL     1       2.458   1.842  18.831  0.00  0.00    +0.000 NA
ATOM     26  C   UNL     1       3.629   2.064  18.284  0.00  0.00    +0.000 A 
ENDBRANCH  21  22
ENDBRANCH  20  21
ENDBRANCH   7  20
TORSDOF 4
ENDMDL
MODEL 2
REMARK VINA RESULT:      -7.3      5.712      7.643
REMARK  Name = 
REMARK  4 active torsions:
REMARK  status: ('A' for Active; 'I' for Inactive)
REMARK    1  A    between atoms: N_3  and  C_4
REMARK    2  A    between atoms: N_16  and  C_17
REMARK    3  A    between atoms: C_17  and  C_18
REMARK    4  A    between atoms: C_18  and  N_19
REMARK                            x       y       z     vdW  Elec       q    Type
REMARK                         _______ _______ _______ _____ _____    ______ ____
ROOT
ATOM      1  O   UNL     1       1.692   8.736  19.015  0.00  0.00    +0.000 OA
ATOM      2  C   UNL     1       1.831   7.912  19.915  0.00  0.00    +0.000 C 
ATOM      3  N   UNL     1       1.452   8.120  21.218  0.00  0.00    +0.000 N 
ATOM      4  N   UNL     1       2.377   6.669  19.648  0.00  0.00    +0.000 N 
ATOM      5  C   UNL     1       2.565   5.568  20.600  0.00  0.00    +0.000 C 
ATOM      6  C   UNL     1       1.834   4.302  20.121  0.00  0.00    +0.000 C 
ATOM      7  N   UNL     1       2.208   3.876  18.757  0.00  0.00    +0.000 NA
ATOM      8  C   UNL     1       1.942   5.023  17.842  0.00  0.00    +0.000 C 
ATOM      9  C   UNL     1       2.658   6.329  18.246  0.00  0.00    +0.000 C 
ATOM     10  H   UNL     1       1.902   7.558  21.921  0.00  0.00    +0.000 HD
ENDROOT
BRANCH   3  11
ATOM     11  C   UNL     1       0.742   9.228  21.718  0.00  0.00    +0.000 A 
ATOM     12  C   UNL     1      -0.171   9.134  22.790  0.00  0.00    +0.000 A 
ATOM     13  C   UNL     1      -0.919  10.236  23.194  0.00  0.00    +0.000 A 
ATOM     14  C   UNL     1      -0.716  11.420  22.532  0.00  0.00    +0.000 A 
ATOM     15  C   UNL     1       0.210  11.535  21.521  0.00  0.00    +0.000 A 
ATOM     16  C   UNL     1       0.968  10.462  21.100  0.00  0.00    +0.000 A 
ATOM     17  O   UNL     1       0.250  12.789  21.001  0.00  0.00    +0.000 OA
ATOM     18  C   UNL     1      -0.801  13.430  21.753  0.00  0.00    +0.000 C 
ATOM     19  O   UNL     1      -1.376  12.583  22.766  0.00  0.00    +0.000 OA
ENDBRANCH   3  11
BRANCH   7  20
ATOM     20  C   UNL     1       3.621   3.446  18.653  0.00  0.00    +0.000 C 
BRANCH  20  21
ATOM     21  C   UNL     1       4.181   3.497  17.225  0.00  0.00    +0.000 C 
BRANCH  21  22
ATOM     22  N   UNL     1       5.508   4.076  17.194  0.00  0.00    +0.000 N 
ATOM     23  C   UNL     1       6.170   4.652  18.240  0.00  0.00    +0.000 A 
ATOM     24  C   UNL     1       7.383   5.040  17.718  0.00  0.00    +0.000 A 
ATOM     25  N   UNL     1       7.468   4.704  16.391  0.00  0.00    +0.000 NA
ATOM     26  C   UNL     1       6.330   4.117  16.107  0.00  0.00    +0.000 A 
ENDBRANCH  21  22
ENDBRANCH  20  21
ENDBRANCH   7  20
TORSDOF 4
ENDMDL
MODEL 3
REMARK VINA RESULT:      -7.1      7.022      9.371
REMARK  Name = 
REMARK  4 active torsions:
REMARK  status: ('A' for Active; 'I' for Inactive)
REMARK    1  A    between atoms: N_3  and  C_4
REMARK    2  A    between atoms: N_16  and  C_17
REMARK    3  A    between atoms: C_17  and  C_18
REMARK    4  A    between atoms: C_18  and  N_19
REMARK                            x       y       z     vdW  Elec       q    Type
REMARK                         _______ _______ _______ _____ _____    ______ ____
ROOT
ATOM      1  O   UNL     1       2.031   8.820  17.373  0.00  0.00    +0.000 OA
ATOM      2  C   UNL     1       1.866   8.287  18.467  0.00  0.00    +0.000 C 
ATOM      3  N   UNL     1       2.367   7.055  18.809  0.00  0.00    +0.000 N 
ATOM      4  N   UNL     1       1.157   8.936  19.463  0.00  0.00    +0.000 N 
ATOM      5  C   UNL     1       0.916   8.453  20.827  0.00  0.00    +0.000 C 
ATOM      6  C   UNL     1       1.453   9.454  21.865  0.00  0.00    +0.000 C 
ATOM      7  N   UNL     1       0.926  10.825  21.699  0.00  0.00    +0.000 NA
ATOM      8  C   UNL     1       1.253  11.266  20.313  0.00  0.00    +0.000 C 
ATOM      9  C   UNL     1       0.730  10.319  19.212  0.00  0.00    +0.000 C 
ATOM     10  H   UNL     1       1.909   6.568  19.561  0.00  0.00    +0.000 HD
ENDROOT
BRANCH   3  11
ATOM     11  C   UNL     1       3.239   6.262  18.040  0.00  0.00    +0.000 A 
ATOM     12  C   UNL     1       3.003   4.896  17.777  0.00  0.00    +0.000 A 
ATOM     13  C   UNL     1       3.936   4.125  17.090  0.00  0.00    +0.000 A 
ATOM     14  C   UNL     1       5.078   4.748  16.655  0.00  0.00    +0.000 A 
ATOM     15  C   UNL     1       5.294   6.091  16.859  0.00  0.00    +0.000 A 
ATOM     16  C   UNL     1       4.387   6.881  17.535  0.00  0.00    +0.000 A 
ATOM     17  O   UNL     1       6.484   6.504  16.352  0.00  0.00    +0.000 OA
ATOM     18  C   UNL     1       7.021   5.257  15.865  0.00  0.00    +0.000 C 
ATOM     19  O   UNL     1       6.108   4.151  16.001  0.00  0.00    +0.000 OA
ENDBRANCH   3  11
BRANCH   7  20
ATOM     20  C   UNL     1      -0.531  10.917  21.942  0.00  0.00    +0.000 C 
BRANCH  20  21
ATOM     21  C   UNL     1      -1.124  12.300  21.641  0.00  0.00    +0.000 C 
BRANCH  21  22
ATOM     22  N   UNL     1      -2.444  12.451  22.218  0.00  0.00    +0.000 N 
ATOM     23  C   UNL     1      -3.527  13.038  21.631  0.00  0.00    +0.000 A 
ATOM     24  C   UNL     1      -4.534  12.931  22.564  0.00  0.00    +0.000 A 
ATOM     25  N   UNL     1      -4.084  12.288  23.689  0.00  0.00    +0.000 NA
ATOM     26  C   UNL     1      -2.827  12.003  23.448  0.00  0.00    +0.000 A 
ENDBRANCH  21  22
ENDBRANCH  20  21
ENDBRANCH   7  20
TORSDOF 4
ENDMDL
MODEL 4
REMARK VINA RESULT:      -7.1      5.556      7.632
REMARK  Name = 
REMARK  4 active torsions:
REMARK  status: ('A' for Active; 'I' for Inactive)
REMARK    1  A    between atoms: N_3  and  C_4
REMARK    2  A    between atoms: N_16  and  C_17
REMARK    3  A    between atoms: C_17  and  C_18
REMARK    4  A    between atoms: C_18  and  N_19
REMARK                            x       y       z     vdW  Elec       q    Type
REMARK                         _______ _______ _______ _____ _____    ______ ____
ROOT
ATOM      1  O   UNL     1       1.948   5.726  19.389  0.00  0.00    +0.000 OA
ATOM      2  C   UNL     1       2.652   6.457  18.696  0.00  0.00    +0.000 C 
ATOM      3  N   UNL     1       2.469   7.811  18.570  0.00  0.00    +0.000 N 
ATOM      4  N   UNL     1       3.726   5.936  17.996  0.00  0.00    +0.000 N 
ATOM      5  C   UNL     1       4.681   6.681  17.168  0.00  0.00    +0.000 C 
ATOM      6  C   UNL     1       6.120   6.472  17.671  0.00  0.00    +0.000 C 
ATOM      7  N   UNL     1       6.517   5.053  17.768  0.00  0.00    +0.000 NA
ATOM      8  C   UNL     1       5.536   4.374  18.663  0.00  0.00    +0.000 C 
ATOM      9  C   UNL     1       4.067   4.523  18.213  0.00  0.00    +0.000 C 
ATOM     10  H   UNL     1       2.852   8.250  17.750  0.00  0.00    +0.000 HD
ENDROOT
BRANCH   3  11
ATOM     11  C   UNL     1       1.554   8.605  19.287  0.00  0.00    +0.000 A 
ATOM     12  C   UNL     1       0.800   9.637  18.689  0.00  0.00    +0.000 A 
ATOM     13  C   UNL     1      -0.026  10.457  19.452  0.00  0.00    +0.000 A 
ATOM     14  C   UNL     1      -0.102  10.207  20.798  0.00  0.00    +0.000 A 
ATOM     15  C   UNL     1       0.587   9.170  21.383  0.00  0.00    +0.000 A 
ATOM     16  C   UNL     1       1.412   8.339  20.653  0.00  0.00    +0.000 A 
ATOM     17  O   UNL     1       0.373   9.101  22.722  0.00  0.00    +0.000 OA
ATOM     18  C   UNL     1      -0.473  10.251  22.924  0.00  0.00    +0.000 C 
ATOM     19  O   UNL     1      -0.826  10.921  21.698  0.00  0.00    +0.000 OA
ENDBRANCH   3  11
BRANCH   7  20
ATOM     20  C   UNL     1       6.573   4.377  16.453  0.00  0.00    +0.000 C 
BRANCH  20  21
ATOM     21  C   UNL     1       7.205   5.229  15.344  0.00  0.00    +0.000 C 
BRANCH  21  22
ATOM     22  N   UNL     1       6.973   4.657  14.034  0.00  0.00    +0.000 N 
ATOM     23  C   UNL     1       6.021   3.735  13.705  0.00  0.00    +0.000 A 
ATOM     24  C   UNL     1       6.196   3.513  12.358  0.00  0.00    +0.000 A 
ATOM     25  N   UNL     1       7.222   4.284  11.871  0.00  0.00    +0.000 NA
ATOM     26  C   UNL     1       7.663   4.967  12.899  0.00  0.00    +0.000 A 
ENDBRANCH  21  22
ENDBRANCH  20  21
ENDBRANCH   7  20
TORSDOF 4
ENDMDL
MODEL 5
REMARK VINA RESULT:      -7.0      5.760      7.959
REMARK  Name = 
REMARK  4 active torsions:
REMARK  status: ('A' for Active; 'I' for Inactive)
REMARK    1  A    between atoms: N_3  and  C_4
REMARK    2  A    between atoms: N_16  and  C_17
REMARK    3  A    between atoms: C_17  and  C_18
REMARK    4  A    between atoms: C_18  and  N_19
REMARK                            x       y       z     vdW  Elec       q    Type
REMARK                         _______ _______ _______ _____ _____    ______ ____
ROOT
ATOM      1  O   UNL     1       1.807   8.635  19.053  0.00  0.00    +0.000 OA
ATOM      2  C   UNL     1       1.774   7.788  19.944  0.00  0.00    +0.000 C 
ATOM      3  N   UNL     1       1.201   7.986  21.175  0.00  0.00    +0.000 N 
ATOM      4  N   UNL     1       2.314   6.532  19.736  0.00  0.00    +0.000 N 
ATOM      5  C   UNL     1       2.313   5.407  20.678  0.00  0.00    +0.000 C 
ATOM      6  C   UNL     1       1.624   4.177  20.060  0.00  0.00    +0.000 C 
ATOM      7  N   UNL     1       2.195   3.764  18.761  0.00  0.00    +0.000 NA
ATOM      8  C   UNL     1       2.115   4.937  17.844  0.00  0.00    +0.000 C 
ATOM      9  C   UNL     1       2.802   6.208  18.387  0.00  0.00    +0.000 C 
ATOM     10  H   UNL     1       1.516   7.395  21.927  0.00  0.00    +0.000 HD
ENDROOT
BRANCH   3  11
ATOM     11  C   UNL     1       0.459   9.109  21.585  0.00  0.00    +0.000 A 
ATOM     12  C   UNL     1       0.085   9.335  22.927  0.00  0.00    +0.000 A 
ATOM     13  C   UNL     1      -0.727  10.410  23.275  0.00  0.00    +0.000 A 
ATOM     14  C   UNL     1      -1.126  11.256  22.272  0.00  0.00    +0.000 A 
ATOM     15  C   UNL     1      -0.723  11.077  20.969  0.00  0.00    +0.000 A 
ATOM     16  C   UNL     1       0.083  10.022  20.594  0.00  0.00    +0.000 A 
ATOM     17  O   UNL     1      -1.231  12.024  20.139  0.00  0.00    +0.000 OA
ATOM     18  C   UNL     1      -2.051  12.778  21.054  0.00  0.00    +0.000 C 
ATOM     19  O   UNL     1      -1.941  12.333  22.419  0.00  0.00    +0.000 OA
ENDBRANCH   3  11
BRANCH   7  20
ATOM     20  C   UNL     1       3.591   3.285  18.870  0.00  0.00    +0.000 C 
BRANCH  20  21
ATOM     21  C   UNL     1       4.494   3.738  17.714  0.00  0.00    +0.000 C 
BRANCH  21  22
ATOM     22  N   UNL     1       5.692   4.391  18.199  0.00  0.00    +0.000 N 
ATOM     23  C   UNL     1       6.840   4.616  17.495  0.00  0.00    +0.000 A 
ATOM     24  C   UNL     1       7.673   5.265  18.378  0.00  0.00    +0.000 A 
ATOM     25  N   UNL     1       7.051   5.442  19.588  0.00  0.00    +0.000 NA
ATOM     26  C   UNL     1       5.859   4.915  19.448  0.00  0.00    +0.000 A 
ENDBRANCH  21  22
ENDBRANCH  20  21
ENDBRANCH   7  20
TORSDOF 4
ENDMDL
MODEL 6
REMARK VINA RESULT:      -6.8      6.183     10.183
REMARK  Name = 
REMARK  4 active torsions:
REMARK  status: ('A' for Active; 'I' for Inactive)
REMARK    1  A    between atoms: N_3  and  C_4
REMARK    2  A    between atoms: N_16  and  C_17
REMARK    3  A    between atoms: C_17  and  C_18
REMARK    4  A    between atoms: C_18  and  N_19
REMARK                            x       y       z     vdW  Elec       q    Type
REMARK                         _______ _______ _______ _____ _____    ______ ____
ROOT
ATOM      1  O   UNL     1       1.707   6.951  21.015  0.00  0.00    +0.000 OA
ATOM      2  C   UNL     1       1.827   7.523  19.933  0.00  0.00    +0.000 C 
ATOM      3  N   UNL     1       2.289   6.921  18.789  0.00  0.00    +0.000 N 
ATOM      4  N   UNL     1       1.466   8.852  19.800  0.00  0.00    +0.000 N 
ATOM      5  C   UNL     1       1.507   9.655  18.573  0.00  0.00    +0.000 C 
ATOM      6  C   UNL     1       0.115  10.224  18.245  0.00  0.00    +0.000 C 
ATOM      7  N   UNL     1      -0.489  10.996  19.350  0.00  0.00    +0.000 NA
ATOM      8  C   UNL     1      -0.545  10.103  20.543  0.00  0.00    +0.000 C 
ATOM      9  C   UNL     1       0.820   9.506  20.947  0.00  0.00    +0.000 C 
ATOM     10  H   UNL     1       2.669   7.522  18.077  0.00  0.00    +0.000 HD
ENDROOT
BRANCH   3  11
ATOM     11  C   UNL     1       2.578   5.554  18.618  0.00  0.00    +0.000 A 
ATOM     12  C   UNL     1       1.795   4.698  17.814  0.00  0.00    +0.000 A 
ATOM     13  C   UNL     1       2.063   3.335  17.745  0.00  0.00    +0.000 A 
ATOM     14  C   UNL     1       3.131   2.859  18.463  0.00  0.00    +0.000 A 
ATOM     15  C   UNL     1       3.933   3.693  19.207  0.00  0.00    +0.000 A 
ATOM     16  C   UNL     1       3.694   5.049  19.293  0.00  0.00    +0.000 A 
ATOM     17  O   UNL     1       4.929   3.020  19.838  0.00  0.00    +0.000 OA
ATOM     18  C   UNL     1       4.623   1.662  19.461  0.00  0.00    +0.000 C 
ATOM     19  O   UNL     1       3.520   1.560  18.541  0.00  0.00    +0.000 OA
ENDBRANCH   3  11
BRANCH   7  20
ATOM     20  C   UNL     1       0.258  12.235  19.665  0.00  0.00    +0.000 C 
BRANCH  20  21
ATOM     21  C   UNL     1       0.335  13.227  18.496  0.00  0.00    +0.000 C 
BRANCH  21  22
ATOM     22  N   UNL     1       1.601  13.931  18.478  0.00  0.00    +0.000 N 
ATOM     23  C   UNL     1       1.796  15.263  18.705  0.00  0.00    +0.000 A 
ATOM     24  C   UNL     1       3.154  15.445  18.583  0.00  0.00    +0.000 A 
ATOM     25  N   UNL     1       3.778  14.257  18.298  0.00  0.00    +0.000 NA
ATOM     26  C   UNL     1       2.820  13.363  18.250  0.00  0.00    +0.000 A 
ENDBRANCH  21  22
ENDBRANCH  20  21
ENDBRANCH   7  20
TORSDOF 4
ENDMDL
MODEL 7
REMARK VINA RESULT:      -6.8      5.507      7.531
REMARK  Name = 
REMARK  4 active torsions:
REMARK  status: ('A' for Active; 'I' for Inactive)
REMARK    1  A    between atoms: N_3  and  C_4
REMARK    2  A    between atoms: N_16  and  C_17
REMARK    3  A    between atoms: C_17  and  C_18
REMARK    4  A    between atoms: C_18  and  N_19
REMARK                            x       y       z     vdW  Elec       q    Type
REMARK                         _______ _______ _______ _____ _____    ______ ____
ROOT
ATOM      1  O   UNL     1       2.055   6.009  19.457  0.00  0.00    +0.000 OA
ATOM      2  C   UNL     1       2.699   6.668  18.643  0.00  0.00    +0.000 C 
ATOM      3  N   UNL     1       2.463   7.990  18.360  0.00  0.00    +0.000 N 
ATOM      4  N   UNL     1       3.756   6.094  17.959  0.00  0.00    +0.000 N 
ATOM      5  C   UNL     1       4.644   6.757  16.997  0.00  0.00    +0.000 C 
ATOM      6  C   UNL     1       6.111   6.654  17.447  0.00  0.00    +0.000 C 
ATOM      7  N   UNL     1       6.562   5.270  17.699  0.00  0.00    +0.000 NA
ATOM      8  C   UNL     1       5.649   4.681  18.720  0.00  0.00    +0.000 C 
ATOM      9  C   UNL     1       4.156   4.730  18.332  0.00  0.00    +0.000 C 
ATOM     10  H   UNL     1       2.790   8.333  17.473  0.00  0.00    +0.000 HD
ENDROOT
BRANCH   3  11
ATOM     11  C   UNL     1       1.555   8.840  19.019  0.00  0.00    +0.000 A 
ATOM     12  C   UNL     1       1.316   8.780  20.409  0.00  0.00    +0.000 A 
ATOM     13  C   UNL     1       0.344   9.577  21.005  0.00  0.00    +0.000 A 
ATOM     14  C   UNL     1      -0.352  10.441  20.199  0.00  0.00    +0.000 A 
ATOM     15  C   UNL     1      -0.090  10.547  18.852  0.00  0.00    +0.000 A 
ATOM     16  C   UNL     1       0.869   9.772  18.234  0.00  0.00    +0.000 A 
ATOM     17  O   UNL     1      -0.891  11.458  18.243  0.00  0.00    +0.000 OA
ATOM     18  C   UNL     1      -1.731  11.864  19.343  0.00  0.00    +0.000 C 
ATOM     19  O   UNL     1      -1.354  11.267  20.598  0.00  0.00    +0.000 OA
ENDBRANCH   3  11
BRANCH   7  20
ATOM     20  C   UNL     1       6.580   4.436  16.476  0.00  0.00    +0.000 C 
BRANCH  20  21
ATOM     21  C   UNL     1       7.341   5.070  15.304  0.00  0.00    +0.000 C 
BRANCH  21  22
ATOM     22  N   UNL     1       6.917   4.519  14.034  0.00  0.00    +0.000 N 
ATOM     23  C   UNL     1       7.568   4.631  12.839  0.00  0.00    +0.000 A 
ATOM     24  C   UNL     1       6.781   3.943  11.943  0.00  0.00    +0.000 A 
ATOM     25  N   UNL     1       5.681   3.417  12.572  0.00  0.00    +0.000 NA
ATOM     26  C   UNL     1       5.795   3.772  13.829  0.00  0.00    +0.000 A 
ENDBRANCH  21  22
ENDBRANCH  20  21
ENDBRANCH   7  20
TORSDOF 4
ENDMDL
MODEL 8
REMARK VINA RESULT:      -6.8      0.851      1.657
REMARK  Name = 
REMARK  4 active torsions:
REMARK  status: ('A' for Active; 'I' for Inactive)
REMARK    1  A    between atoms: N_3  and  C_4
REMARK    2  A    between atoms: N_16  and  C_17
REMARK    3  A    between atoms: C_17  and  C_18
REMARK    4  A    between atoms: C_18  and  N_19
REMARK                            x       y       z     vdW  Elec       q    Type
REMARK                         _______ _______ _______ _____ _____    ______ ____
ROOT
ATOM      1  O   UNL     1       7.362   9.462  17.116  0.00  0.00    +0.000 OA
ATOM      2  C   UNL     1       7.861   8.630  17.870  0.00  0.00    +0.000 C 
ATOM      3  N   UNL     1       8.847   8.909  18.783  0.00  0.00    +0.000 N 
ATOM      4  N   UNL     1       7.420   7.319  17.856  0.00  0.00    +0.000 N 
ATOM      5  C   UNL     1       7.881   6.227  18.721  0.00  0.00    +0.000 C 
ATOM      6  C   UNL     1       6.707   5.620  19.508  0.00  0.00    +0.000 C 
ATOM      7  N   UNL     1       5.588   5.168  18.656  0.00  0.00    +0.000 NA
ATOM      8  C   UNL     1       5.140   6.339  17.848  0.00  0.00    +0.000 C 
ATOM      9  C   UNL     1       6.261   6.993  17.013  0.00  0.00    +0.000 C 
ATOM     10  H   UNL     1       9.415   8.139  19.094  0.00  0.00    +0.000 HD
ENDROOT
BRANCH   3  11
ATOM     11  C   UNL     1       9.361  10.181  19.102  0.00  0.00    +0.000 A 
ATOM     12  C   UNL     1      10.280  10.866  18.279  0.00  0.00    +0.000 A 
ATOM     13  C   UNL     1      10.833  12.080  18.676  0.00  0.00    +0.000 A 
ATOM     14  C   UNL     1      10.429  12.598  19.880  0.00  0.00    +0.000 A 
ATOM     15  C   UNL     1       9.493  11.966  20.665  0.00  0.00    +0.000 A 
ATOM     16  C   UNL     1       8.927  10.763  20.297  0.00  0.00    +0.000 A 
ATOM     17  O   UNL     1       9.239  12.646  21.812  0.00  0.00    +0.000 OA
ATOM     18  C   UNL     1      10.169  13.742  21.692  0.00  0.00    +0.000 C 
ATOM     19  O   UNL     1      10.883  13.749  20.441  0.00  0.00    +0.000 OA
ENDBRANCH   3  11
BRANCH   7  20
ATOM     20  C   UNL     1       5.953   4.038  17.773  0.00  0.00    +0.000 C 
BRANCH  20  21
ATOM     21  C   UNL     1       4.865   3.668  16.756  0.00  0.00    +0.000 C 
BRANCH  21  22
ATOM     22  N   UNL     1       3.673   3.171  17.410  0.00  0.00    +0.000 N 
ATOM     23  C   UNL     1       3.590   2.092  18.243  0.00  0.00    +0.000 A 
ATOM     24  C   UNL     1       2.264   2.029  18.607  0.00  0.00    +0.000 A 
ATOM     25  N   UNL     1       1.553   3.046  18.021  0.00  0.00    +0.000 NA
ATOM     26  C   UNL     1       2.428   3.721  17.315  0.00  0.00    +0.000 A 
ENDBRANCH  21  22
ENDBRANCH  20  21
ENDBRANCH   7  20
TORSDOF 4
ENDMDL
MODEL 9
REMARK VINA RESULT:      -6.8      5.772      7.719
REMARK  Name = 
REMARK  4 active torsions:
REMARK  status: ('A' for Active; 'I' for Inactive)
REMARK    1  A    between atoms: N_3  and  C_4
REMARK    2  A    between atoms: N_16  and  C_17
REMARK    3  A    between atoms: C_17  and  C_18
REMARK    4  A    between atoms: C_18  and  N_19
REMARK                            x       y       z     vdW  Elec       q    Type
REMARK                         _______ _______ _______ _____ _____    ______ ____
ROOT
ATOM      1  O   UNL     1       1.829   9.056  17.903  0.00  0.00    +0.000 OA
ATOM      2  C   UNL     1       1.741   8.522  19.007  0.00  0.00    +0.000 C 
ATOM      3  N   UNL     1       1.057   9.058  20.070  0.00  0.00    +0.000 N 
ATOM      4  N   UNL     1       2.329   7.292  19.239  0.00  0.00    +0.000 N 
ATOM      5  C   UNL     1       2.273   6.511  20.480  0.00  0.00    +0.000 C 
ATOM      6  C   UNL     1       1.673   5.117  20.223  0.00  0.00    +0.000 C 
ATOM      7  N   UNL     1       2.365   4.356  19.162  0.00  0.00    +0.000 NA
ATOM      8  C   UNL     1       2.337   5.186  17.924  0.00  0.00    +0.000 C 
ATOM      9  C   UNL     1       2.940   6.596  18.098  0.00  0.00    +0.000 C 
ATOM     10  H   UNL     1       1.320   8.742  20.989  0.00  0.00    +0.000 HD
ENDROOT
BRANCH   3  11
ATOM     11  C   UNL     1       0.254  10.213  20.056  0.00  0.00    +0.000 A 
ATOM     12  C   UNL     1      -0.927  10.318  19.290  0.00  0.00    +0.000 A 
ATOM     13  C   UNL     1      -1.643  11.510  19.233  0.00  0.00    +0.000 A 
ATOM     14  C   UNL     1      -1.174  12.568  19.969  0.00  0.00    +0.000 A 
ATOM     15  C   UNL     1      -0.055  12.461  20.762  0.00  0.00    +0.000 A 
ATOM     16  C   UNL     1       0.674  11.292  20.840  0.00  0.00    +0.000 A 
ATOM     17  O   UNL     1       0.234  13.623  21.402  0.00  0.00    +0.000 OA
ATOM     18  C   UNL     1      -0.789  14.490  20.872  0.00  0.00    +0.000 C 
ATOM     19  O   UNL     1      -1.721  13.810  20.010  0.00  0.00    +0.000 OA
ENDBRANCH   3  11
BRANCH   7  20
ATOM     20  C   UNL     1       3.759   4.005  19.519  0.00  0.00    +0.000 C 
BRANCH  20  21
ATOM     21  C   UNL     1       4.621   3.592  18.318  0.00  0.00    +0.000 C 
BRANCH  21  22
ATOM     22  N   UNL     1       5.799   4.425  18.196  0.00  0.00    +0.000 N 
ATOM     23  C   UNL     1       6.307   5.261  19.148  0.00  0.00    +0.000 A 
ATOM     24  C   UNL     1       7.422   5.820  18.566  0.00  0.00    +0.000 A 
ATOM     25  N   UNL     1       7.599   5.334  17.295  0.00  0.00    +0.000 NA
ATOM     26  C   UNL     1       6.613   4.491  17.104  0.00  0.00    +0.000 A 
ENDBRANCH  21  22
ENDBRANCH  20  21
ENDBRANCH   7  20
TORSDOF 4
ENDMDL
