MODEL 1
REMARK VINA RESULT:      -5.4      0.000      0.000
REMARK  Name = 
REMARK  6 active torsions:
REMARK  status: ('A' for Active; 'I' for Inactive)
REMARK    1  A    between atoms: C_1  and  C_2
REMARK    2  A    between atoms: C_2  and  C_3
REMARK    3  A    between atoms: C_3  and  C_4
REMARK    4  A    between atoms: C_4  and  C_5
REMARK    5  A    between atoms: C_5  and  C_6
REMARK    6  A    between atoms: C_11  and  C_12
REMARK                            x       y       z     vdW  Elec       q    Type
REMARK                         _______ _______ _______ _____ _____    ______ ____
ROOT
ATOM      1  C   UNL     1       2.969   4.087  17.435  0.00  0.00    +0.000 C 
ATOM      2  N   UNL     1       2.767   2.627  17.389  0.00  0.00    +0.000 NA
ATOM      3  C   UNL     1       3.669   2.161  18.177  0.00  0.00    +0.000 C 
ATOM      4  N   UNL     1       3.839   0.872  18.525  0.00  0.00    +0.000 N 
ATOM      5  O   UNL     1       4.582   2.994  18.720  0.00  0.00    +0.000 OA
ATOM      6  C   UNL     1       4.317   4.266  18.137  0.00  0.00    +0.000 C 
ATOM      7  C   UNL     1       5.438   4.611  17.163  0.00  0.00    +0.000 C 
ATOM      8  H   UNL     1       3.398   0.217  17.893  0.00  0.00    +0.000 HD
ATOM      9  H   UNL     1       4.773   0.631  18.823  0.00  0.00    +0.000 HD
ENDROOT
BRANCH   1  10
ATOM     10  C   UNL     1       1.810   4.730  18.213  0.00  0.00    +0.000 C 
BRANCH  10  11
ATOM     11  C   UNL     1       2.315   5.614  19.359  0.00  0.00    +0.000 C 
BRANCH  11  12
ATOM     12  C   UNL     1       1.877   5.082  20.722  0.00  0.00    +0.000 C 
BRANCH  12  14
ATOM     13  C   UNL     1       1.597   2.709  21.526  0.00  0.00    +0.000 C 
ATOM     14  C   UNL     1       1.094   3.777  20.571  0.00  0.00    +0.000 C 
ENDBRANCH  12  14
ENDBRANCH  11  12
ENDBRANCH  10  11
ENDBRANCH   1  10
TORSDOF 4
ENDMDL
MODEL 2
REMARK VINA RESULT:      -5.3      2.923      3.869
REMARK  Name = 
REMARK  6 active torsions:
REMARK  status: ('A' for Active; 'I' for Inactive)
REMARK    1  A    between atoms: C_1  and  C_2
REMARK    2  A    between atoms: C_2  and  C_3
REMARK    3  A    between atoms: C_3  and  C_4
REMARK    4  A    between atoms: C_4  and  C_5
REMARK    5  A    between atoms: C_5  and  C_6
REMARK    6  A    between atoms: C_11  and  C_12
REMARK                            x       y       z     vdW  Elec       q    Type
REMARK                         _______ _______ _______ _____ _____    ______ ____
ROOT
ATOM      1  C   UNL     1       5.270   5.119  16.025  0.00  0.00    +0.000 C 
ATOM      2  N   UNL     1       5.907   4.583  17.242  0.00  0.00    +0.000 NA
ATOM      3  C   UNL     1       7.158   4.548  16.952  0.00  0.00    +0.000 C 
ATOM      4  N   UNL     1       8.161   4.200  17.778  0.00  0.00    +0.000 N 
ATOM      5  O   UNL     1       7.567   4.853  15.702  0.00  0.00    +0.000 OA
ATOM      6  C   UNL     1       6.368   5.061  14.960  0.00  0.00    +0.000 C 
ATOM      7  C   UNL     1       6.175   3.901  13.989  0.00  0.00    +0.000 C 
ATOM      8  H   UNL     1       7.861   3.666  18.583  0.00  0.00    +0.000 HD
ATOM      9  H   UNL     1       8.996   3.865  17.317  0.00  0.00    +0.000 HD
ENDROOT
BRANCH   1  10
ATOM     10  C   UNL     1       4.790   6.553  16.298  0.00  0.00    +0.000 C 
BRANCH  10  11
ATOM     11  C   UNL     1       4.363   6.741  17.759  0.00  0.00    +0.000 C 
BRANCH  11  12
ATOM     12  C   UNL     1       2.853   6.590  17.932  0.00  0.00    +0.000 C 
BRANCH  12  14
ATOM     13  C   UNL     1       1.702   4.360  17.696  0.00  0.00    +0.000 C 
ATOM     14  C   UNL     1       2.511   5.263  18.610  0.00  0.00    +0.000 C 
ENDBRANCH  12  14
ENDBRANCH  11  12
ENDBRANCH  10  11
ENDBRANCH   1  10
TORSDOF 4
ENDMDL
MODEL 3
REMARK VINA RESULT:      -5.3      1.270      1.586
REMARK  Name = 
REMARK  6 active torsions:
REMARK  status: ('A' for Active; 'I' for Inactive)
REMARK    1  A    between atoms: C_1  and  C_2
REMARK    2  A    between atoms: C_2  and  C_3
REMARK    3  A    between atoms: C_3  and  C_4
REMARK    4  A    between atoms: C_4  and  C_5
REMARK    5  A    between atoms: C_5  and  C_6
REMARK    6  A    between atoms: C_11  and  C_12
REMARK                            x       y       z     vdW  Elec       q    Type
REMARK                         _______ _______ _______ _____ _____    ______ ____
ROOT
ATOM      1  C   UNL     1       3.729   4.409  17.982  0.00  0.00    +0.000 C 
ATOM      2  N   UNL     1       3.904   2.964  18.220  0.00  0.00    +0.000 NA
ATOM      3  C   UNL     1       4.675   2.907  19.247  0.00  0.00    +0.000 C 
ATOM      4  N   UNL     1       5.063   1.793  19.894  0.00  0.00    +0.000 N 
ATOM      5  O   UNL     1       5.201   4.041  19.756  0.00  0.00    +0.000 OA
ATOM      6  C   UNL     1       4.785   5.074  18.869  0.00  0.00    +0.000 C 
ATOM      7  C   UNL     1       5.989   5.562  18.071  0.00  0.00    +0.000 C 
ATOM      8  H   UNL     1       4.959   0.947  19.350  0.00  0.00    +0.000 HD
ATOM      9  H   UNL     1       5.928   1.879  20.409  0.00  0.00    +0.000 HD
ENDROOT
BRANCH   1  10
ATOM     10  C   UNL     1       2.297   4.812  18.367  0.00  0.00    +0.000 C 
BRANCH  10  11
ATOM     11  C   UNL     1       1.290   3.698  18.056  0.00  0.00    +0.000 C 
BRANCH  11  12
ATOM     12  C   UNL     1       0.750   3.049  19.329  0.00  0.00    +0.000 C 
BRANCH  12  14
ATOM     13  C   UNL     1       1.809   2.964  21.614  0.00  0.00    +0.000 C 
ATOM     14  C   UNL     1       1.161   3.849  20.565  0.00  0.00    +0.000 C 
ENDBRANCH  12  14
ENDBRANCH  11  12
ENDBRANCH  10  11
ENDBRANCH   1  10
TORSDOF 4
ENDMDL
MODEL 4
REMARK VINA RESULT:      -5.3      2.842      3.692
REMARK  Name = 
REMARK  6 active torsions:
REMARK  status: ('A' for Active; 'I' for Inactive)
REMARK    1  A    between atoms: C_1  and  C_2
REMARK    2  A    between atoms: C_2  and  C_3
REMARK    3  A    between atoms: C_3  and  C_4
REMARK    4  A    between atoms: C_4  and  C_5
REMARK    5  A    between atoms: C_5  and  C_6
REMARK    6  A    between atoms: C_11  and  C_12
REMARK                            x       y       z     vdW  Elec       q    Type
REMARK                         _______ _______ _______ _____ _____    ______ ____
ROOT
ATOM      1  C   UNL     1       5.429   5.273  17.206  0.00  0.00    +0.000 C 
ATOM      2  N   UNL     1       5.740   5.711  15.833  0.00  0.00    +0.000 NA
ATOM      3  C   UNL     1       6.903   5.214  15.601  0.00  0.00    +0.000 C 
ATOM      4  N   UNL     1       7.584   5.277  14.443  0.00  0.00    +0.000 N 
ATOM      5  O   UNL     1       7.570   4.578  16.588  0.00  0.00    +0.000 OA
ATOM      6  C   UNL     1       6.754   4.731  17.746  0.00  0.00    +0.000 C 
ATOM      7  C   UNL     1       7.431   5.702  18.707  0.00  0.00    +0.000 C 
ATOM      8  H   UNL     1       7.264   6.008  13.821  0.00  0.00    +0.000 HD
ATOM      9  H   UNL     1       8.586   5.185  14.531  0.00  0.00    +0.000 HD
ENDROOT
BRANCH   1  10
ATOM     10  C   UNL     1       4.330   4.199  17.153  0.00  0.00    +0.000 C 
BRANCH  10  11
ATOM     11  C   UNL     1       3.245   4.444  18.209  0.00  0.00    +0.000 C 
BRANCH  11  12
ATOM     12  C   UNL     1       1.873   3.974  17.731  0.00  0.00    +0.000 C 
BRANCH  12  14
ATOM     13  C   UNL     1       0.974   3.817  20.081  0.00  0.00    +0.000 C 
ATOM     14  C   UNL     1       1.210   3.077  18.777  0.00  0.00    +0.000 C 
ENDBRANCH  12  14
ENDBRANCH  11  12
ENDBRANCH  10  11
ENDBRANCH   1  10
TORSDOF 4
ENDMDL
MODEL 5
REMARK VINA RESULT:      -5.3      4.074      6.406
REMARK  Name = 
REMARK  6 active torsions:
REMARK  status: ('A' for Active; 'I' for Inactive)
REMARK    1  A    between atoms: C_1  and  C_2
REMARK    2  A    between atoms: C_2  and  C_3
REMARK    3  A    between atoms: C_3  and  C_4
REMARK    4  A    between atoms: C_4  and  C_5
REMARK    5  A    between atoms: C_5  and  C_6
REMARK    6  A    between atoms: C_11  and  C_12
REMARK                            x       y       z     vdW  Elec       q    Type
REMARK                         _______ _______ _______ _____ _____    ______ ____
ROOT
ATOM      1  C   UNL     1       6.108   5.006  15.693  0.00  0.00    +0.000 C 
ATOM      2  N   UNL     1       7.435   5.055  16.333  0.00  0.00    +0.000 NA
ATOM      3  C   UNL     1       7.205   4.737  17.558  0.00  0.00    +0.000 C 
ATOM      4  N   UNL     1       8.123   4.571  18.527  0.00  0.00    +0.000 N 
ATOM      5  O   UNL     1       5.934   4.568  17.980  0.00  0.00    +0.000 OA
ATOM      6  C   UNL     1       5.122   4.911  16.861  0.00  0.00    +0.000 C 
ATOM      7  C   UNL     1       4.423   6.237  17.140  0.00  0.00    +0.000 C 
ATOM      8  H   UNL     1       9.014   5.004  18.324  0.00  0.00    +0.000 HD
ATOM      9  H   UNL     1       7.777   4.698  19.468  0.00  0.00    +0.000 HD
ENDROOT
BRANCH   1  10
ATOM     10  C   UNL     1       6.042   3.782  14.766  0.00  0.00    +0.000 C 
BRANCH  10  11
ATOM     11  C   UNL     1       5.563   4.160  13.359  0.00  0.00    +0.000 C 
BRANCH  11  12
ATOM     12  C   UNL     1       6.292   3.364  12.278  0.00  0.00    +0.000 C 
BRANCH  12  14
ATOM     13  C   UNL     1       4.002   3.224  11.235  0.00  0.00    +0.000 C 
ATOM     14  C   UNL     1       5.312   2.500  11.484  0.00  0.00    +0.000 C 
ENDBRANCH  12  14
ENDBRANCH  11  12
ENDBRANCH  10  11
ENDBRANCH   1  10
TORSDOF 4
ENDMDL
MODEL 6
REMARK VINA RESULT:      -5.2      2.192      2.679
REMARK  Name = 
REMARK  6 active torsions:
REMARK  status: ('A' for Active; 'I' for Inactive)
REMARK    1  A    between atoms: C_1  and  C_2
REMARK    2  A    between atoms: C_2  and  C_3
REMARK    3  A    between atoms: C_3  and  C_4
REMARK    4  A    between atoms: C_4  and  C_5
REMARK    5  A    between atoms: C_5  and  C_6
REMARK    6  A    between atoms: C_11  and  C_12
REMARK                            x       y       z     vdW  Elec       q    Type
REMARK                         _______ _______ _______ _____ _____    ______ ____
ROOT
ATOM      1  C   UNL     1       3.932   4.555  17.025  0.00  0.00    +0.000 C 
ATOM      2  N   UNL     1       5.315   4.080  16.829  0.00  0.00    +0.000 NA
ATOM      3  C   UNL     1       5.958   4.567  17.830  0.00  0.00    +0.000 C 
ATOM      4  N   UNL     1       7.250   4.347  18.134  0.00  0.00    +0.000 N 
ATOM      5  O   UNL     1       5.337   5.412  18.681  0.00  0.00    +0.000 OA
ATOM      6  C   UNL     1       4.042   5.616  18.123  0.00  0.00    +0.000 C 
ATOM      7  C   UNL     1       3.956   7.034  17.570  0.00  0.00    +0.000 C 
ATOM      8  H   UNL     1       7.799   4.004  17.358  0.00  0.00    +0.000 HD
ATOM      9  H   UNL     1       7.684   5.066  18.695  0.00  0.00    +0.000 HD
ENDROOT
BRANCH   1  10
ATOM     10  C   UNL     1       3.048   3.368  17.440  0.00  0.00    +0.000 C 
BRANCH  10  11
ATOM     11  C   UNL     1       1.699   3.833  18.002  0.00  0.00    +0.000 C 
BRANCH  11  12
ATOM     12  C   UNL     1       1.004   2.728  18.795  0.00  0.00    +0.000 C 
BRANCH  12  14
ATOM     13  C   UNL     1       1.296   4.512  20.551  0.00  0.00    +0.000 C 
ATOM     14  C   UNL     1       1.013   3.044  20.291  0.00  0.00    +0.000 C 
ENDBRANCH  12  14
ENDBRANCH  11  12
ENDBRANCH  10  11
ENDBRANCH   1  10
TORSDOF 4
ENDMDL
MODEL 7
REMARK VINA RESULT:      -5.2      3.002      3.848
REMARK  Name = 
REMARK  6 active torsions:
REMARK  status: ('A' for Active; 'I' for Inactive)
REMARK    1  A    between atoms: C_1  and  C_2
REMARK    2  A    between atoms: C_2  and  C_3
REMARK    3  A    between atoms: C_3  and  C_4
REMARK    4  A    between atoms: C_4  and  C_5
REMARK    5  A    between atoms: C_5  and  C_6
REMARK    6  A    between atoms: C_11  and  C_12
REMARK                            x       y       z     vdW  Elec       q    Type
REMARK                         _______ _______ _______ _____ _____    ______ ____
ROOT
ATOM      1  C   UNL     1       5.245   4.414  16.650  0.00  0.00    +0.000 C 
ATOM      2  N   UNL     1       6.307   5.093  17.416  0.00  0.00    +0.000 NA
ATOM      3  C   UNL     1       6.736   6.005  16.618  0.00  0.00    +0.000 C 
ATOM      4  N   UNL     1       7.662   6.940  16.896  0.00  0.00    +0.000 N 
ATOM      5  O   UNL     1       6.269   6.064  15.353  0.00  0.00    +0.000 OA
ATOM      6  C   UNL     1       5.415   4.932  15.219  0.00  0.00    +0.000 C 
ATOM      7  C   UNL     1       6.082   3.908  14.307  0.00  0.00    +0.000 C 
ATOM      8  H   UNL     1       8.245   6.714  17.691  0.00  0.00    +0.000 HD
ATOM      9  H   UNL     1       8.145   7.314  16.092  0.00  0.00    +0.000 HD
ENDROOT
BRANCH   1  10
ATOM     10  C   UNL     1       3.879   4.782  17.251  0.00  0.00    +0.000 C 
BRANCH  10  11
ATOM     11  C   UNL     1       2.934   3.575  17.292  0.00  0.00    +0.000 C 
BRANCH  11  12
ATOM     12  C   UNL     1       1.569   3.944  17.872  0.00  0.00    +0.000 C 
BRANCH  12  14
ATOM     13  C   UNL     1       0.953   3.580  20.289  0.00  0.00    +0.000 C 
ATOM     14  C   UNL     1       1.135   2.929  18.930  0.00  0.00    +0.000 C 
ENDBRANCH  12  14
ENDBRANCH  11  12
ENDBRANCH  10  11
ENDBRANCH   1  10
TORSDOF 4
ENDMDL
MODEL 8
REMARK VINA RESULT:      -5.2      3.832      6.241
REMARK  Name = 
REMARK  6 active torsions:
REMARK  status: ('A' for Active; 'I' for Inactive)
REMARK    1  A    between atoms: C_1  and  C_2
REMARK    2  A    between atoms: C_2  and  C_3
REMARK    3  A    between atoms: C_3  and  C_4
REMARK    4  A    between atoms: C_4  and  C_5
REMARK    5  A    between atoms: C_5  and  C_6
REMARK    6  A    between atoms: C_11  and  C_12
REMARK                            x       y       z     vdW  Elec       q    Type
REMARK                         _______ _______ _______ _____ _____    ______ ____
ROOT
ATOM      1  C   UNL     1       6.449   5.624  16.907  0.00  0.00    +0.000 C 
ATOM      2  N   UNL     1       7.490   6.172  17.797  0.00  0.00    +0.000 NA
ATOM      3  C   UNL     1       7.362   5.495  18.883  0.00  0.00    +0.000 C 
ATOM      4  N   UNL     1       8.144   5.580  19.974  0.00  0.00    +0.000 N 
ATOM      5  O   UNL     1       6.345   4.617  19.011  0.00  0.00    +0.000 OA
ATOM      6  C   UNL     1       5.572   4.768  17.824  0.00  0.00    +0.000 C 
ATOM      7  C   UNL     1       4.255   5.454  18.172  0.00  0.00    +0.000 C 
ATOM      8  H   UNL     1       8.682   6.435  20.026  0.00  0.00    +0.000 HD
ATOM      9  H   UNL     1       7.706   5.285  20.836  0.00  0.00    +0.000 HD
ENDROOT
BRANCH   1  10
ATOM     10  C   UNL     1       7.122   4.798  15.798  0.00  0.00    +0.000 C 
BRANCH  10  11
ATOM     11  C   UNL     1       6.375   4.923  14.465  0.00  0.00    +0.000 C 
BRANCH  11  12
ATOM     12  C   UNL     1       5.988   3.556  13.902  0.00  0.00    +0.000 C 
BRANCH  12  14
ATOM     13  C   UNL     1       4.719   3.297  11.740  0.00  0.00    +0.000 C 
ATOM     14  C   UNL     1       6.074   3.552  12.376  0.00  0.00    +0.000 C 
ENDBRANCH  12  14
ENDBRANCH  11  12
ENDBRANCH  10  11
ENDBRANCH   1  10
TORSDOF 4
ENDMDL
MODEL 9
REMARK VINA RESULT:      -5.2      2.749      3.160
REMARK  Name = 
REMARK  6 active torsions:
REMARK  status: ('A' for Active; 'I' for Inactive)
REMARK    1  A    between atoms: C_1  and  C_2
REMARK    2  A    between atoms: C_2  and  C_3
REMARK    3  A    between atoms: C_3  and  C_4
REMARK    4  A    between atoms: C_4  and  C_5
REMARK    5  A    between atoms: C_5  and  C_6
REMARK    6  A    between atoms: C_11  and  C_12
REMARK                            x       y       z     vdW  Elec       q    Type
REMARK                         _______ _______ _______ _____ _____    ______ ____
ROOT
ATOM      1  C   UNL     1       4.809   5.044  18.445  0.00  0.00    +0.000 C 
ATOM      2  N   UNL     1       5.920   4.609  19.311  0.00  0.00    +0.000 NA
ATOM      3  C   UNL     1       6.838   5.485  19.106  0.00  0.00    +0.000 C 
ATOM      4  N   UNL     1       8.026   5.559  19.733  0.00  0.00    +0.000 N 
ATOM      5  O   UNL     1       6.663   6.434  18.162  0.00  0.00    +0.000 OA
ATOM      6  C   UNL     1       5.425   6.110  17.536  0.00  0.00    +0.000 C 
ATOM      7  C   UNL     1       5.700   5.586  16.130  0.00  0.00    +0.000 C 
ATOM      8  H   UNL     1       8.305   4.698  20.183  0.00  0.00    +0.000 HD
ATOM      9  H   UNL     1       8.751   6.039  19.217  0.00  0.00    +0.000 HD
ENDROOT
BRANCH   1  10
ATOM     10  C   UNL     1       3.676   5.601  19.322  0.00  0.00    +0.000 C 
BRANCH  10  11
ATOM     11  C   UNL     1       2.305   5.429  18.657  0.00  0.00    +0.000 C 
BRANCH  11  12
ATOM     12  C   UNL     1       1.685   4.070  18.977  0.00  0.00    +0.000 C 
BRANCH  12  14
ATOM     13  C   UNL     1       1.389   2.889  21.184  0.00  0.00    +0.000 C 
ATOM     14  C   UNL     1       1.000   4.092  20.344  0.00  0.00    +0.000 C 
ENDBRANCH  12  14
ENDBRANCH  11  12
ENDBRANCH  10  11
ENDBRANCH   1  10
TORSDOF 4
ENDMDL
