MODEL 1
REMARK VINA RESULT:      -6.9      0.000      0.000
REMARK  Name = 
REMARK  10 active torsions:
REMARK  status: ('A' for Active; 'I' for Inactive)
REMARK    1  A    between atoms: C_1  and  N_2
REMARK    2  A    between atoms: C_7  and  C_8
REMARK    3  A    between atoms: C_8  and  O_9
REMARK    4  A    between atoms: C_8  and  C_10
REMARK    5  A    between atoms: C_10  and  N_11
REMARK    6  A    between atoms: C_12  and  C_14
REMARK    7  A    between atoms: C_14  and  C_15
REMARK    8  A    between atoms: C_15  and  C_16
REMARK    9  A    between atoms: C_15  and  C_17
REMARK   10  A    between atoms: C_15  and  C_18
REMARK                            x       y       z     vdW  Elec       q    Type
REMARK                         _______ _______ _______ _____ _____    ______ ____
ROOT
ATOM      1  C   UNL     1       2.721   3.641  19.254  0.00  0.00    +0.000 C 
ENDROOT
BRANCH   1   8
ATOM      2  C   UNL     1       0.855  10.019  20.580  0.00  0.00    +0.000 C 
ATOM      3  N   UNL     1       1.437   9.167  19.569  0.00  0.00    +0.000 N 
ATOM      4  C   UNL     1       1.819   9.593  18.322  0.00  0.00    +0.000 A 
ATOM      5  C   UNL     1       2.300   8.503  17.636  0.00  0.00    +0.000 A 
ATOM      6  C   UNL     1       2.209   7.382  18.498  0.00  0.00    +0.000 A 
ATOM      7  C   UNL     1       2.537   6.023  18.345  0.00  0.00    +0.000 A 
ATOM      8  C   UNL     1       2.361   5.112  19.404  0.00  0.00    +0.000 A 
ATOM      9  C   UNL     1       1.818   5.584  20.608  0.00  0.00    +0.000 A 
ATOM     10  C   UNL     1       1.471   6.934  20.783  0.00  0.00    +0.000 A 
ATOM     11  C   UNL     1       1.675   7.816  19.710  0.00  0.00    +0.000 A 
ENDBRANCH   1   8
BRANCH   1  12
ATOM     12  O   UNL     1       2.645   3.275  17.870  0.00  0.00    +0.000 OA
ATOM     13  H   UNL     1       2.607   2.301  17.837  0.00  0.00    +0.000 HD
ENDBRANCH   1  12
BRANCH   1  14
ATOM     14  C   UNL     1       4.139   3.321  19.765  0.00  0.00    +0.000 C 
BRANCH  14  15
ATOM     15  N   UNL     1       5.184   3.381  18.763  0.00  0.00    +0.000 N 
ATOM     16  C   UNL     1       5.996   4.498  18.768  0.00  0.00    +0.000 C 
ATOM     17  O   UNL     1       5.919   5.377  19.623  0.00  0.00    +0.000 OA
ATOM     18  H   UNL     1       5.024   2.896  17.889  0.00  0.00    +0.000 HD
BRANCH  16  19
ATOM     19  C   UNL     1       7.041   4.541  17.677  0.00  0.00    +0.000 C 
BRANCH  19  20
ATOM     20  C   UNL     1       6.691   5.515  16.528  0.00  0.00    +0.000 C 
ATOM     21  C   UNL     1       5.168   5.657  16.369  0.00  0.00    +0.000 C 
ATOM     22  C   UNL     1       7.282   6.895  16.870  0.00  0.00    +0.000 C 
ATOM     23  C   UNL     1       7.299   5.046  15.193  0.00  0.00    +0.000 C 
ENDBRANCH  19  20
ENDBRANCH  16  19
ENDBRANCH  14  15
ENDBRANCH   1  14
TORSDOF 6
ENDMDL
MODEL 2
REMARK VINA RESULT:      -6.8      0.314      1.011
REMARK  Name = 
REMARK  10 active torsions:
REMARK  status: ('A' for Active; 'I' for Inactive)
REMARK    1  A    between atoms: C_1  and  N_2
REMARK    2  A    between atoms: C_7  and  C_8
REMARK    3  A    between atoms: C_8  and  O_9
REMARK    4  A    between atoms: C_8  and  C_10
REMARK    5  A    between atoms: C_10  and  N_11
REMARK    6  A    between atoms: C_12  and  C_14
REMARK    7  A    between atoms: C_14  and  C_15
REMARK    8  A    between atoms: C_15  and  C_16
REMARK    9  A    between atoms: C_15  and  C_17
REMARK   10  A    between atoms: C_15  and  C_18
REMARK                            x       y       z     vdW  Elec       q    Type
REMARK                         _______ _______ _______ _____ _____    ______ ____
ROOT
ATOM      1  C   UNL     1       2.787   3.626  18.882  0.00  0.00    +0.000 C 
ENDROOT
BRANCH   1   8
ATOM      2  C   UNL     1       0.817   9.780  20.921  0.00  0.00    +0.000 C 
ATOM      3  N   UNL     1       1.351   9.046  19.797  0.00  0.00    +0.000 N 
ATOM      4  C   UNL     1       1.626   9.597  18.572  0.00  0.00    +0.000 A 
ATOM      5  C   UNL     1       2.091   8.593  17.756  0.00  0.00    +0.000 A 
ATOM      6  C   UNL     1       2.099   7.396  18.514  0.00  0.00    +0.000 A 
ATOM      7  C   UNL     1       2.459   6.070  18.213  0.00  0.00    +0.000 A 
ATOM      8  C   UNL     1       2.391   5.062  19.193  0.00  0.00    +0.000 A 
ATOM      9  C   UNL     1       1.923   5.402  20.471  0.00  0.00    +0.000 A 
ATOM     10  C   UNL     1       1.546   6.715  20.794  0.00  0.00    +0.000 A 
ATOM     11  C   UNL     1       1.642   7.698  19.795  0.00  0.00    +0.000 A 
ENDBRANCH   1   8
BRANCH   1  12
ATOM     12  O   UNL     1       2.882   3.458  17.462  0.00  0.00    +0.000 OA
ATOM     13  H   UNL     1       3.689   2.939  17.291  0.00  0.00    +0.000 HD
ENDBRANCH   1  12
BRANCH   1  14
ATOM     14  C   UNL     1       4.138   3.232  19.509  0.00  0.00    +0.000 C 
BRANCH  14  15
ATOM     15  N   UNL     1       5.294   3.424  18.656  0.00  0.00    +0.000 N 
ATOM     16  C   UNL     1       6.000   4.601  18.808  0.00  0.00    +0.000 C 
ATOM     17  O   UNL     1       5.741   5.428  19.678  0.00  0.00    +0.000 OA
ATOM     18  H   UNL     1       5.289   2.970  17.751  0.00  0.00    +0.000 HD
BRANCH  16  19
ATOM     19  C   UNL     1       7.168   4.779  17.866  0.00  0.00    +0.000 C 
BRANCH  19  20
ATOM     20  C   UNL     1       6.904   5.814  16.748  0.00  0.00    +0.000 C 
ATOM     21  C   UNL     1       7.609   7.147  17.052  0.00  0.00    +0.000 C 
ATOM     22  C   UNL     1       7.464   5.250  15.429  0.00  0.00    +0.000 C 
ATOM     23  C   UNL     1       5.396   6.068  16.565  0.00  0.00    +0.000 C 
ENDBRANCH  19  20
ENDBRANCH  16  19
ENDBRANCH  14  15
ENDBRANCH   1  14
TORSDOF 6
ENDMDL
MODEL 3
REMARK VINA RESULT:      -6.8      0.745      1.300
REMARK  Name = 
REMARK  10 active torsions:
REMARK  status: ('A' for Active; 'I' for Inactive)
REMARK    1  A    between atoms: C_1  and  N_2
REMARK    2  A    between atoms: C_7  and  C_8
REMARK    3  A    between atoms: C_8  and  O_9
REMARK    4  A    between atoms: C_8  and  C_10
REMARK    5  A    between atoms: C_10  and  N_11
REMARK    6  A    between atoms: C_12  and  C_14
REMARK    7  A    between atoms: C_14  and  C_15
REMARK    8  A    between atoms: C_15  and  C_16
REMARK    9  A    between atoms: C_15  and  C_17
REMARK   10  A    between atoms: C_15  and  C_18
REMARK                            x       y       z     vdW  Elec       q    Type
REMARK                         _______ _______ _______ _____ _____    ______ ____
ROOT
ATOM      1  C   UNL     1       3.185   3.851  19.392  0.00  0.00    +0.000 C 
ENDROOT
BRANCH   1   8
ATOM      2  C   UNL     1       0.618  10.043  20.387  0.00  0.00    +0.000 C 
ATOM      3  N   UNL     1       1.356   9.231  19.448  0.00  0.00    +0.000 N 
ATOM      4  C   UNL     1       1.791   9.664  18.222  0.00  0.00    +0.000 A 
ATOM      5  C   UNL     1       2.427   8.613  17.606  0.00  0.00    +0.000 A 
ATOM      6  C   UNL     1       2.376   7.506  18.491  0.00  0.00    +0.000 A 
ATOM      7  C   UNL     1       2.844   6.183  18.403  0.00  0.00    +0.000 A 
ATOM      8  C   UNL     1       2.674   5.283  19.472  0.00  0.00    +0.000 A 
ATOM      9  C   UNL     1       1.996   5.725  20.617  0.00  0.00    +0.000 A 
ATOM     10  C   UNL     1       1.509   7.038  20.726  0.00  0.00    +0.000 A 
ATOM     11  C   UNL     1       1.711   7.912  19.646  0.00  0.00    +0.000 A 
ENDBRANCH   1   8
BRANCH   1  12
ATOM     12  O   UNL     1       2.917   3.325  18.086  0.00  0.00    +0.000 OA
ATOM     13  H   UNL     1       2.461   4.026  17.587  0.00  0.00    +0.000 HD
ENDBRANCH   1  12
BRANCH   1  14
ATOM     14  C   UNL     1       4.698   3.743  19.659  0.00  0.00    +0.000 C 
BRANCH  14  15
ATOM     15  N   UNL     1       5.526   3.630  18.475  0.00  0.00    +0.000 N 
ATOM     16  C   UNL     1       6.303   4.722  18.143  0.00  0.00    +0.000 C 
ATOM     17  O   UNL     1       6.380   5.726  18.846  0.00  0.00    +0.000 OA
ATOM     18  H   UNL     1       5.207   3.013  17.737  0.00  0.00    +0.000 HD
BRANCH  16  19
ATOM     19  C   UNL     1       7.114   4.576  16.876  0.00  0.00    +0.000 C 
BRANCH  19  20
ATOM     20  C   UNL     1       6.301   4.855  15.590  0.00  0.00    +0.000 C 
ATOM     21  C   UNL     1       7.232   5.092  14.390  0.00  0.00    +0.000 C 
ATOM     22  C   UNL     1       5.425   3.623  15.299  0.00  0.00    +0.000 C 
ATOM     23  C   UNL     1       5.378   6.075  15.765  0.00  0.00    +0.000 C 
ENDBRANCH  19  20
ENDBRANCH  16  19
ENDBRANCH  14  15
ENDBRANCH   1  14
TORSDOF 6
ENDMDL
MODEL 4
REMARK VINA RESULT:      -6.8      0.645      1.647
REMARK  Name = 
REMARK  10 active torsions:
REMARK  status: ('A' for Active; 'I' for Inactive)
REMARK    1  A    between atoms: C_1  and  N_2
REMARK    2  A    between atoms: C_7  and  C_8
REMARK    3  A    between atoms: C_8  and  O_9
REMARK    4  A    between atoms: C_8  and  C_10
REMARK    5  A    between atoms: C_10  and  N_11
REMARK    6  A    between atoms: C_12  and  C_14
REMARK    7  A    between atoms: C_14  and  C_15
REMARK    8  A    between atoms: C_15  and  C_16
REMARK    9  A    between atoms: C_15  and  C_17
REMARK   10  A    between atoms: C_15  and  C_18
REMARK                            x       y       z     vdW  Elec       q    Type
REMARK                         _______ _______ _______ _____ _____    ______ ____
ROOT
ATOM      1  C   UNL     1       2.767   3.608  19.521  0.00  0.00    +0.000 C 
ENDROOT
BRANCH   1   8
ATOM      2  C   UNL     1       1.561  10.172  18.348  0.00  0.00    +0.000 C 
ATOM      3  N   UNL     1       1.479   9.140  19.355  0.00  0.00    +0.000 N 
ATOM      4  C   UNL     1       1.034   9.340  20.636  0.00  0.00    +0.000 A 
ATOM      5  C   UNL     1       1.125   8.142  21.304  0.00  0.00    +0.000 A 
ATOM      6  C   UNL     1       1.640   7.185  20.395  0.00  0.00    +0.000 A 
ATOM      7  C   UNL     1       1.951   5.818  20.512  0.00  0.00    +0.000 A 
ATOM      8  C   UNL     1       2.436   5.090  19.409  0.00  0.00    +0.000 A 
ATOM      9  C   UNL     1       2.636   5.766  18.197  0.00  0.00    +0.000 A 
ATOM     10  C   UNL     1       2.345   7.132  18.057  0.00  0.00    +0.000 A 
ATOM     11  C   UNL     1       1.848   7.823  19.173  0.00  0.00    +0.000 A 
ENDBRANCH   1   8
BRANCH   1  12
ATOM     12  O   UNL     1       2.523   2.973  18.259  0.00  0.00    +0.000 OA
ATOM     13  H   UNL     1       3.120   2.204  18.210  0.00  0.00    +0.000 HD
ENDBRANCH   1  12
BRANCH   1  14
ATOM     14  C   UNL     1       4.233   3.353  19.919  0.00  0.00    +0.000 C 
BRANCH  14  15
ATOM     15  N   UNL     1       5.185   3.397  18.828  0.00  0.00    +0.000 N 
ATOM     16  C   UNL     1       5.975   4.525  18.727  0.00  0.00    +0.000 C 
ATOM     17  O   UNL     1       5.958   5.430  19.558  0.00  0.00    +0.000 OA
ATOM     18  H   UNL     1       4.957   2.881  17.986  0.00  0.00    +0.000 HD
BRANCH  16  19
ATOM     19  C   UNL     1       6.919   4.548  17.547  0.00  0.00    +0.000 C 
BRANCH  19  20
ATOM     20  C   UNL     1       6.245   4.992  16.228  0.00  0.00    +0.000 C 
ATOM     21  C   UNL     1       5.022   4.116  15.911  0.00  0.00    +0.000 C 
ATOM     22  C   UNL     1       5.778   6.450  16.394  0.00  0.00    +0.000 C 
ATOM     23  C   UNL     1       7.232   4.932  15.047  0.00  0.00    +0.000 C 
ENDBRANCH  19  20
ENDBRANCH  16  19
ENDBRANCH  14  15
ENDBRANCH   1  14
TORSDOF 6
ENDMDL
MODEL 5
REMARK VINA RESULT:      -6.7      0.941      2.075
REMARK  Name = 
REMARK  10 active torsions:
REMARK  status: ('A' for Active; 'I' for Inactive)
REMARK    1  A    between atoms: C_1  and  N_2
REMARK    2  A    between atoms: C_7  and  C_8
REMARK    3  A    between atoms: C_8  and  O_9
REMARK    4  A    between atoms: C_8  and  C_10
REMARK    5  A    between atoms: C_10  and  N_11
REMARK    6  A    between atoms: C_12  and  C_14
REMARK    7  A    between atoms: C_14  and  C_15
REMARK    8  A    between atoms: C_15  and  C_16
REMARK    9  A    between atoms: C_15  and  C_17
REMARK   10  A    between atoms: C_15  and  C_18
REMARK                            x       y       z     vdW  Elec       q    Type
REMARK                         _______ _______ _______ _____ _____    ______ ____
ROOT
ATOM      1  C   UNL     1       3.277   4.062  19.273  0.00  0.00    +0.000 C 
ENDROOT
BRANCH   1   8
ATOM      2  C   UNL     1       1.350  10.516  18.531  0.00  0.00    +0.000 C 
ATOM      3  N   UNL     1       1.346   9.403  19.452  0.00  0.00    +0.000 N 
ATOM      4  C   UNL     1       0.821   9.445  20.718  0.00  0.00    +0.000 A 
ATOM      5  C   UNL     1       1.023   8.216  21.298  0.00  0.00    +0.000 A 
ATOM      6  C   UNL     1       1.691   7.401  20.350  0.00  0.00    +0.000 A 
ATOM      7  C   UNL     1       2.157   6.075  20.381  0.00  0.00    +0.000 A 
ATOM      8  C   UNL     1       2.777   5.499  19.255  0.00  0.00    +0.000 A 
ATOM      9  C   UNL     1       2.951   6.290  18.110  0.00  0.00    +0.000 A 
ATOM     10  C   UNL     1       2.505   7.621  18.057  0.00  0.00    +0.000 A 
ATOM     11  C   UNL     1       1.877   8.156  19.193  0.00  0.00    +0.000 A 
ENDBRANCH   1   8
BRANCH   1  12
ATOM     12  O   UNL     1       3.018   3.455  18.001  0.00  0.00    +0.000 OA
ATOM     13  H   UNL     1       2.079   3.197  17.996  0.00  0.00    +0.000 HD
ENDBRANCH   1  12
BRANCH   1  14
ATOM     14  C   UNL     1       4.786   3.960  19.563  0.00  0.00    +0.000 C 
BRANCH  14  15
ATOM     15  N   UNL     1       5.627   3.775  18.397  0.00  0.00    +0.000 N 
ATOM     16  C   UNL     1       6.419   4.841  18.017  0.00  0.00    +0.000 C 
ATOM     17  O   UNL     1       6.497   5.881  18.667  0.00  0.00    +0.000 OA
ATOM     18  H   UNL     1       5.310   3.124  17.689  0.00  0.00    +0.000 HD
BRANCH  16  19
ATOM     19  C   UNL     1       7.242   4.621  16.770  0.00  0.00    +0.000 C 
BRANCH  19  20
ATOM     20  C   UNL     1       6.437   4.796  15.462  0.00  0.00    +0.000 C 
ATOM     21  C   UNL     1       7.372   5.035  14.265  0.00  0.00    +0.000 C 
ATOM     22  C   UNL     1       5.638   3.503  15.212  0.00  0.00    +0.000 C 
ATOM     23  C   UNL     1       5.441   5.966  15.569  0.00  0.00    +0.000 C 
ENDBRANCH  19  20
ENDBRANCH  16  19
ENDBRANCH  14  15
ENDBRANCH   1  14
TORSDOF 6
ENDMDL
MODEL 6
REMARK VINA RESULT:      -6.6      2.821      5.054
REMARK  Name = 
REMARK  10 active torsions:
REMARK  status: ('A' for Active; 'I' for Inactive)
REMARK    1  A    between atoms: C_1  and  N_2
REMARK    2  A    between atoms: C_7  and  C_8
REMARK    3  A    between atoms: C_8  and  O_9
REMARK    4  A    between atoms: C_8  and  C_10
REMARK    5  A    between atoms: C_10  and  N_11
REMARK    6  A    between atoms: C_12  and  C_14
REMARK    7  A    between atoms: C_14  and  C_15
REMARK    8  A    between atoms: C_15  and  C_16
REMARK    9  A    between atoms: C_15  and  C_17
REMARK   10  A    between atoms: C_15  and  C_18
REMARK                            x       y       z     vdW  Elec       q    Type
REMARK                         _______ _______ _______ _____ _____    ______ ____
ROOT
ATOM      1  C   UNL     1       5.872   6.669  17.112  0.00  0.00    +0.000 C 
ENDROOT
BRANCH   1   8
ATOM      2  C   UNL     1       0.951   3.412  20.443  0.00  0.00    +0.000 C 
ATOM      3  N   UNL     1       2.350   3.349  20.088  0.00  0.00    +0.000 N 
ATOM      4  C   UNL     1       3.204   2.348  20.475  0.00  0.00    +0.000 A 
ATOM      5  C   UNL     1       4.449   2.641  19.973  0.00  0.00    +0.000 A 
ATOM      6  C   UNL     1       4.344   3.859  19.255  0.00  0.00    +0.000 A 
ATOM      7  C   UNL     1       5.274   4.640  18.546  0.00  0.00    +0.000 A 
ATOM      8  C   UNL     1       4.876   5.821  17.891  0.00  0.00    +0.000 A 
ATOM      9  C   UNL     1       3.536   6.221  17.988  0.00  0.00    +0.000 A 
ATOM     10  C   UNL     1       2.590   5.465  18.700  0.00  0.00    +0.000 A 
ATOM     11  C   UNL     1       3.019   4.285  19.328  0.00  0.00    +0.000 A 
ENDBRANCH   1   8
BRANCH   1  12
ATOM     12  O   UNL     1       7.197   6.176  17.344  0.00  0.00    +0.000 OA
ATOM     13  H   UNL     1       7.314   6.121  18.309  0.00  0.00    +0.000 HD
ENDBRANCH   1  12
BRANCH   1  14
ATOM     14  C   UNL     1       5.606   6.656  15.595  0.00  0.00    +0.000 C 
BRANCH  14  15
ATOM     15  N   UNL     1       5.421   5.342  15.012  0.00  0.00    +0.000 N 
ATOM     16  C   UNL     1       6.529   4.741  14.449  0.00  0.00    +0.000 C 
ATOM     17  O   UNL     1       7.654   5.231  14.501  0.00  0.00    +0.000 OA
ATOM     18  H   UNL     1       4.503   5.116  14.648  0.00  0.00    +0.000 HD
BRANCH  16  19
ATOM     19  C   UNL     1       6.279   3.394  13.812  0.00  0.00    +0.000 C 
BRANCH  19  20
ATOM     20  C   UNL     1       6.181   3.451  12.270  0.00  0.00    +0.000 C 
ATOM     21  C   UNL     1       7.053   4.583  11.703  0.00  0.00    +0.000 C 
ATOM     22  C   UNL     1       6.685   2.110  11.706  0.00  0.00    +0.000 C 
ATOM     23  C   UNL     1       4.725   3.653  11.809  0.00  0.00    +0.000 C 
ENDBRANCH  19  20
ENDBRANCH  16  19
ENDBRANCH  14  15
ENDBRANCH   1  14
TORSDOF 6
ENDMDL
MODEL 7
REMARK VINA RESULT:      -6.5      1.661      2.895
REMARK  Name = 
REMARK  10 active torsions:
REMARK  status: ('A' for Active; 'I' for Inactive)
REMARK    1  A    between atoms: C_1  and  N_2
REMARK    2  A    between atoms: C_7  and  C_8
REMARK    3  A    between atoms: C_8  and  O_9
REMARK    4  A    between atoms: C_8  and  C_10
REMARK    5  A    between atoms: C_10  and  N_11
REMARK    6  A    between atoms: C_12  and  C_14
REMARK    7  A    between atoms: C_14  and  C_15
REMARK    8  A    between atoms: C_15  and  C_16
REMARK    9  A    between atoms: C_15  and  C_17
REMARK   10  A    between atoms: C_15  and  C_18
REMARK                            x       y       z     vdW  Elec       q    Type
REMARK                         _______ _______ _______ _____ _____    ______ ____
ROOT
ATOM      1  C   UNL     1       2.893   6.028  19.513  0.00  0.00    +0.000 C 
ENDROOT
BRANCH   1   8
ATOM      2  C   UNL     1       0.011  12.114  18.756  0.00  0.00    +0.000 C 
ATOM      3  N   UNL     1       0.216  11.036  19.696  0.00  0.00    +0.000 N 
ATOM      4  C   UNL     1      -0.244  11.037  20.988  0.00  0.00    +0.000 A 
ATOM      5  C   UNL     1       0.166   9.865  21.579  0.00  0.00    +0.000 A 
ATOM      6  C   UNL     1       0.895   9.131  20.611  0.00  0.00    +0.000 A 
ATOM      7  C   UNL     1       1.551   7.887  20.642  0.00  0.00    +0.000 A 
ATOM      8  C   UNL     1       2.189   7.377  19.495  0.00  0.00    +0.000 A 
ATOM      9  C   UNL     1       2.186   8.154  18.327  0.00  0.00    +0.000 A 
ATOM     10  C   UNL     1       1.549   9.404  18.273  0.00  0.00    +0.000 A 
ATOM     11  C   UNL     1       0.910   9.873  19.432  0.00  0.00    +0.000 A 
ENDBRANCH   1   8
BRANCH   1  12
ATOM     12  O   UNL     1       2.823   5.475  20.833  0.00  0.00    +0.000 OA
ATOM     13  H   UNL     1       2.041   4.894  20.855  0.00  0.00    +0.000 HD
ENDBRANCH   1  12
BRANCH   1  14
ATOM     14  C   UNL     1       2.271   5.019  18.528  0.00  0.00    +0.000 C 
BRANCH  14  15
ATOM     15  N   UNL     1       3.094   4.689  17.382  0.00  0.00    +0.000 N 
ATOM     16  C   UNL     1       4.285   4.035  17.629  0.00  0.00    +0.000 C 
ATOM     17  O   UNL     1       4.620   3.656  18.749  0.00  0.00    +0.000 OA
ATOM     18  H   UNL     1       3.023   5.286  16.567  0.00  0.00    +0.000 HD
BRANCH  16  19
ATOM     19  C   UNL     1       5.131   3.753  16.410  0.00  0.00    +0.000 C 
BRANCH  19  20
ATOM     20  C   UNL     1       6.244   4.801  16.177  0.00  0.00    +0.000 C 
ATOM     21  C   UNL     1       7.410   4.596  17.157  0.00  0.00    +0.000 C 
ATOM     22  C   UNL     1       6.771   4.632  14.740  0.00  0.00    +0.000 C 
ATOM     23  C   UNL     1       5.702   6.235  16.327  0.00  0.00    +0.000 C 
ENDBRANCH  19  20
ENDBRANCH  16  19
ENDBRANCH  14  15
ENDBRANCH   1  14
TORSDOF 6
ENDMDL
MODEL 8
REMARK VINA RESULT:      -6.5      2.979      5.001
REMARK  Name = 
REMARK  10 active torsions:
REMARK  status: ('A' for Active; 'I' for Inactive)
REMARK    1  A    between atoms: C_1  and  N_2
REMARK    2  A    between atoms: C_7  and  C_8
REMARK    3  A    between atoms: C_8  and  O_9
REMARK    4  A    between atoms: C_8  and  C_10
REMARK    5  A    between atoms: C_10  and  N_11
REMARK    6  A    between atoms: C_12  and  C_14
REMARK    7  A    between atoms: C_14  and  C_15
REMARK    8  A    between atoms: C_15  and  C_16
REMARK    9  A    between atoms: C_15  and  C_17
REMARK   10  A    between atoms: C_15  and  C_18
REMARK                            x       y       z     vdW  Elec       q    Type
REMARK                         _______ _______ _______ _____ _____    ______ ____
ROOT
ATOM      1  C   UNL     1       7.006   5.289  17.858  0.00  0.00    +0.000 C 
ENDROOT
BRANCH   1   8
ATOM      2  C   UNL     1       0.839   3.900  20.299  0.00  0.00    +0.000 C 
ATOM      3  N   UNL     1       1.906   3.378  19.477  0.00  0.00    +0.000 N 
ATOM      4  C   UNL     1       1.887   2.147  18.872  0.00  0.00    +0.000 A 
ATOM      5  C   UNL     1       3.077   1.991  18.202  0.00  0.00    +0.000 A 
ATOM      6  C   UNL     1       3.840   3.167  18.407  0.00  0.00    +0.000 A 
ATOM      7  C   UNL     1       5.119   3.570  17.981  0.00  0.00    +0.000 A 
ATOM      8  C   UNL     1       5.628   4.838  18.321  0.00  0.00    +0.000 A 
ATOM      9  C   UNL     1       4.844   5.681  19.123  0.00  0.00    +0.000 A 
ATOM     10  C   UNL     1       3.570   5.298  19.571  0.00  0.00    +0.000 A 
ATOM     11  C   UNL     1       3.088   4.032  19.200  0.00  0.00    +0.000 A 
ENDBRANCH   1   8
BRANCH   1  12
ATOM     12  O   UNL     1       7.942   4.222  18.050  0.00  0.00    +0.000 OA
ATOM     13  H   UNL     1       7.544   3.607  18.692  0.00  0.00    +0.000 HD
ENDBRANCH   1  12
BRANCH   1  14
ATOM     14  C   UNL     1       7.031   5.697  16.372  0.00  0.00    +0.000 C 
BRANCH  14  15
ATOM     15  N   UNL     1       7.213   4.606  15.436  0.00  0.00    +0.000 N 
ATOM     16  C   UNL     1       6.136   4.275  14.638  0.00  0.00    +0.000 C 
ATOM     17  O   UNL     1       5.086   4.913  14.633  0.00  0.00    +0.000 OA
ATOM     18  H   UNL     1       7.881   3.885  15.681  0.00  0.00    +0.000 HD
BRANCH  16  19
ATOM     19  C   UNL     1       6.356   3.102  13.711  0.00  0.00    +0.000 C 
BRANCH  19  20
ATOM     20  C   UNL     1       6.324   3.486  12.214  0.00  0.00    +0.000 C 
ATOM     21  C   UNL     1       7.178   4.736  11.945  0.00  0.00    +0.000 C 
ATOM     22  C   UNL     1       6.901   2.310  11.404  0.00  0.00    +0.000 C 
ATOM     23  C   UNL     1       4.884   3.743  11.733  0.00  0.00    +0.000 C 
ENDBRANCH  19  20
ENDBRANCH  16  19
ENDBRANCH  14  15
ENDBRANCH   1  14
TORSDOF 6
ENDMDL
MODEL 9
REMARK VINA RESULT:      -6.4      3.879      7.646
REMARK  Name = 
REMARK  10 active torsions:
REMARK  status: ('A' for Active; 'I' for Inactive)
REMARK    1  A    between atoms: C_1  and  N_2
REMARK    2  A    between atoms: C_7  and  C_8
REMARK    3  A    between atoms: C_8  and  O_9
REMARK    4  A    between atoms: C_8  and  C_10
REMARK    5  A    between atoms: C_10  and  N_11
REMARK    6  A    between atoms: C_12  and  C_14
REMARK    7  A    between atoms: C_14  and  C_15
REMARK    8  A    between atoms: C_15  and  C_16
REMARK    9  A    between atoms: C_15  and  C_17
REMARK   10  A    between atoms: C_15  and  C_18
REMARK                            x       y       z     vdW  Elec       q    Type
REMARK                         _______ _______ _______ _____ _____    ______ ____
ROOT
ATOM      1  C   UNL     1       1.981   9.439  18.567  0.00  0.00    +0.000 C 
ENDROOT
BRANCH   1   8
ATOM      2  C   UNL     1       3.878   3.007  19.533  0.00  0.00    +0.000 C 
ATOM      3  N   UNL     1       3.976   4.119  18.618  0.00  0.00    +0.000 N 
ATOM      4  C   UNL     1       4.684   4.097  17.443  0.00  0.00    +0.000 A 
ATOM      5  C   UNL     1       4.567   5.337  16.860  0.00  0.00    +0.000 A 
ATOM      6  C   UNL     1       3.761   6.134  17.710  0.00  0.00    +0.000 A 
ATOM      7  C   UNL     1       3.314   7.466  17.639  0.00  0.00    +0.000 A 
ATOM      8  C   UNL     1       2.479   8.003  18.637  0.00  0.00    +0.000 A 
ATOM      9  C   UNL     1       2.128   7.189  19.725  0.00  0.00    +0.000 A 
ATOM     10  C   UNL     1       2.570   5.860  19.825  0.00  0.00    +0.000 A 
ATOM     11  C   UNL     1       3.389   5.354  18.803  0.00  0.00    +0.000 A 
ENDBRANCH   1   8
BRANCH   1  12
ATOM     12  O   UNL     1       2.164   9.939  17.236  0.00  0.00    +0.000 OA
ATOM     13  H   UNL     1       1.288   9.938  16.809  0.00  0.00    +0.000 HD
ENDBRANCH   1  12
BRANCH   1  14
ATOM     14  C   UNL     1       0.491   9.571  18.934  0.00  0.00    +0.000 C 
BRANCH  14  15
ATOM     15  N   UNL     1      -0.330  10.247  17.949  0.00  0.00    +0.000 N 
ATOM     16  C   UNL     1      -1.347  11.052  18.423  0.00  0.00    +0.000 C 
ATOM     17  O   UNL     1      -1.520  11.278  19.618  0.00  0.00    +0.000 OA
ATOM     18  H   UNL     1      -0.438   9.804  17.045  0.00  0.00    +0.000 HD
BRANCH  16  19
ATOM     19  C   UNL     1      -2.206  11.699  17.362  0.00  0.00    +0.000 C 
BRANCH  19  20
ATOM     20  C   UNL     1      -3.275  10.749  16.772  0.00  0.00    +0.000 C 
ATOM     21  C   UNL     1      -3.442   9.495  17.647  0.00  0.00    +0.000 C 
ATOM     22  C   UNL     1      -4.617  11.503  16.729  0.00  0.00    +0.000 C 
ATOM     23  C   UNL     1      -2.914  10.322  15.337  0.00  0.00    +0.000 C 
ENDBRANCH  19  20
ENDBRANCH  16  19
ENDBRANCH  14  15
ENDBRANCH   1  14
TORSDOF 6
ENDMDL
