MODEL 1
REMARK VINA RESULT:      -8.1      0.000      0.000
REMARK  Name = 
REMARK  2 active torsions:
REMARK  status: ('A' for Active; 'I' for Inactive)
REMARK    1  A    between atoms: N_1  and  C_2
REMARK    2  A    between atoms: C_7  and  C_8
REMARK                            x       y       z     vdW  Elec       q    Type
REMARK                         _______ _______ _______ _____ _____    ______ ____
ROOT
ATOM      1  C   UNL     1       4.496   3.989  18.471  0.00  0.00    +0.000 A 
ATOM      2  N   UNL     1       4.195   3.912  17.214  0.00  0.00    +0.000 NA
ATOM      3  C   UNL     1       5.200   4.218  16.303  0.00  0.00    +0.000 A 
ATOM      4  C   UNL     1       4.922   4.176  14.938  0.00  0.00    +0.000 A 
ATOM      5  C   UNL     1       5.921   4.465  14.004  0.00  0.00    +0.000 A 
ATOM      6  C   UNL     1       7.204   4.804  14.435  0.00  0.00    +0.000 A 
ATOM      7  C   UNL     1       7.485   4.858  15.800  0.00  0.00    +0.000 A 
ATOM      8  C   UNL     1       6.476   4.565  16.724  0.00  0.00    +0.000 A 
ATOM      9  C   UNL     1       6.727   4.620  18.168  0.00  0.00    +0.000 A 
ATOM     10  O   UNL     1       7.829   4.930  18.603  0.00  0.00    +0.000 OA
ATOM     11  O   UNL     1       5.694   4.328  18.993  0.00  0.00    +0.000 OA
ENDROOT
BRANCH   1  17
ATOM     12  C   UNL     1       3.737   2.572  20.398  0.00  0.00    +0.000 A 
ATOM     13  C   UNL     1       2.810   2.341  21.423  0.00  0.00    +0.000 A 
ATOM     14  C   UNL     1       1.676   3.146  21.568  0.00  0.00    +0.000 A 
ATOM     15  C   UNL     1       1.469   4.223  20.711  0.00  0.00    +0.000 A 
ATOM     16  C   UNL     1       2.394   4.493  19.705  0.00  0.00    +0.000 A 
ATOM     17  C   UNL     1       3.534   3.685  19.555  0.00  0.00    +0.000 A 
BRANCH  12  18
ATOM     18  N   UNL     1       4.948   1.851  20.415  0.00  0.00    +0.000 N 
ATOM     19  H   UNL     1       5.349   1.726  21.338  0.00  0.00    +0.000 HD
ATOM     20  H   UNL     1       4.870   0.966  19.906  0.00  0.00    +0.000 HD
ENDBRANCH  12  18
ENDBRANCH   1  17
TORSDOF 2
ENDMDL
MODEL 2
REMARK VINA RESULT:      -7.9      1.368      5.796
REMARK  Name = 
REMARK  2 active torsions:
REMARK  status: ('A' for Active; 'I' for Inactive)
REMARK    1  A    between atoms: N_1  and  C_2
REMARK    2  A    between atoms: C_7  and  C_8
REMARK                            x       y       z     vdW  Elec       q    Type
REMARK                         _______ _______ _______ _____ _____    ______ ____
ROOT
ATOM      1  C   UNL     1       4.595   3.779  17.933  0.00  0.00    +0.000 A 
ATOM      2  N   UNL     1       3.399   4.246  18.097  0.00  0.00    +0.000 NA
ATOM      3  C   UNL     1       2.707   3.827  19.228  0.00  0.00    +0.000 A 
ATOM      4  C   UNL     1       1.406   4.279  19.442  0.00  0.00    +0.000 A 
ATOM      5  C   UNL     1       0.697   3.883  20.579  0.00  0.00    +0.000 A 
ATOM      6  C   UNL     1       1.288   3.026  21.507  0.00  0.00    +0.000 A 
ATOM      7  C   UNL     1       2.586   2.562  21.294  0.00  0.00    +0.000 A 
ATOM      8  C   UNL     1       3.284   2.967  20.151  0.00  0.00    +0.000 A 
ATOM      9  C   UNL     1       4.647   2.494  19.885  0.00  0.00    +0.000 A 
ATOM     10  O   UNL     1       5.207   1.726  20.657  0.00  0.00    +0.000 OA
ATOM     11  O   UNL     1       5.249   2.931  18.753  0.00  0.00    +0.000 OA
ENDROOT
BRANCH   1  17
ATOM     12  C   UNL     1       6.777   4.586  16.992  0.00  0.00    +0.000 A 
ATOM     13  C   UNL     1       7.557   4.895  15.869  0.00  0.00    +0.000 A 
ATOM     14  C   UNL     1       7.023   4.832  14.579  0.00  0.00    +0.000 A 
ATOM     15  C   UNL     1       5.707   4.422  14.385  0.00  0.00    +0.000 A 
ATOM     16  C   UNL     1       4.923   4.078  15.483  0.00  0.00    +0.000 A 
ATOM     17  C   UNL     1       5.455   4.141  16.783  0.00  0.00    +0.000 A 
BRANCH  12  18
ATOM     18  N   UNL     1       7.417   4.486  18.244  0.00  0.00    +0.000 N 
ATOM     19  H   UNL     1       8.286   3.964  18.230  0.00  0.00    +0.000 HD
ATOM     20  H   UNL     1       7.524   5.401  18.690  0.00  0.00    +0.000 HD
ENDBRANCH  12  18
ENDBRANCH   1  17
TORSDOF 2
ENDMDL
MODEL 3
REMARK VINA RESULT:      -7.8      1.837      6.119
REMARK  Name = 
REMARK  2 active torsions:
REMARK  status: ('A' for Active; 'I' for Inactive)
REMARK    1  A    between atoms: N_1  and  C_2
REMARK    2  A    between atoms: C_7  and  C_8
REMARK                            x       y       z     vdW  Elec       q    Type
REMARK                         _______ _______ _______ _____ _____    ______ ____
ROOT
ATOM      1  C   UNL     1       4.211   3.937  17.553  0.00  0.00    +0.000 A 
ATOM      2  N   UNL     1       4.435   3.475  18.742  0.00  0.00    +0.000 NA
ATOM      3  C   UNL     1       3.328   3.254  19.554  0.00  0.00    +0.000 A 
ATOM      4  C   UNL     1       3.513   2.782  20.852  0.00  0.00    +0.000 A 
ATOM      5  C   UNL     1       2.414   2.538  21.680  0.00  0.00    +0.000 A 
ATOM      6  C   UNL     1       1.122   2.773  21.212  0.00  0.00    +0.000 A 
ATOM      7  C   UNL     1       0.930   3.257  19.918  0.00  0.00    +0.000 A 
ATOM      8  C   UNL     1       2.039   3.495  19.099  0.00  0.00    +0.000 A 
ATOM      9  C   UNL     1       1.882   4.012  17.735  0.00  0.00    +0.000 A 
ATOM     10  O   UNL     1       0.771   4.254  17.280  0.00  0.00    +0.000 OA
ATOM     11  O   UNL     1       3.007   4.220  17.012  0.00  0.00    +0.000 OA
ENDROOT
BRANCH   1  17
ATOM     12  C   UNL     1       6.587   4.541  17.017  0.00  0.00    +0.000 A 
ATOM     13  C   UNL     1       7.576   4.770  16.051  0.00  0.00    +0.000 A 
ATOM     14  C   UNL     1       7.274   4.742  14.686  0.00  0.00    +0.000 A 
ATOM     15  C   UNL     1       5.983   4.448  14.262  0.00  0.00    +0.000 A 
ATOM     16  C   UNL     1       4.989   4.184  15.202  0.00  0.00    +0.000 A 
ATOM     17  C   UNL     1       5.288   4.212  16.575  0.00  0.00    +0.000 A 
BRANCH  12  18
ATOM     18  N   UNL     1       6.984   4.396  18.361  0.00  0.00    +0.000 N 
ATOM     19  H   UNL     1       7.134   3.437  18.654  0.00  0.00    +0.000 HD
ATOM     20  H   UNL     1       7.782   4.997  18.588  0.00  0.00    +0.000 HD
ENDBRANCH  12  18
ENDBRANCH   1  17
TORSDOF 2
ENDMDL
MODEL 4
REMARK VINA RESULT:      -7.7      1.029      1.678
REMARK  Name = 
REMARK  2 active torsions:
REMARK  status: ('A' for Active; 'I' for Inactive)
REMARK    1  A    between atoms: N_1  and  C_2
REMARK    2  A    between atoms: C_7  and  C_8
REMARK                            x       y       z     vdW  Elec       q    Type
REMARK                         _______ _______ _______ _____ _____    ______ ____
ROOT
ATOM      1  C   UNL     1       4.221   3.887  18.406  0.00  0.00    +0.000 A 
ATOM      2  N   UNL     1       4.077   3.745  17.127  0.00  0.00    +0.000 NA
ATOM      3  C   UNL     1       5.157   4.100  16.327  0.00  0.00    +0.000 A 
ATOM      4  C   UNL     1       5.048   3.992  14.941  0.00  0.00    +0.000 A 
ATOM      5  C   UNL     1       6.125   4.329  14.118  0.00  0.00    +0.000 A 
ATOM      6  C   UNL     1       7.318   4.784  14.680  0.00  0.00    +0.000 A 
ATOM      7  C   UNL     1       7.430   4.905  16.065  0.00  0.00    +0.000 A 
ATOM      8  C   UNL     1       6.344   4.563  16.878  0.00  0.00    +0.000 A 
ATOM      9  C   UNL     1       6.417   4.685  18.337  0.00  0.00    +0.000 A 
ATOM     10  O   UNL     1       7.433   5.096  18.883  0.00  0.00    +0.000 OA
ATOM     11  O   UNL     1       5.318   4.338  19.049  0.00  0.00    +0.000 OA
ENDROOT
BRANCH   1  17
ATOM     12  C   UNL     1       1.829   3.944  19.163  0.00  0.00    +0.000 A 
ATOM     13  C   UNL     1       0.861   3.572  20.106  0.00  0.00    +0.000 A 
ATOM     14  C   UNL     1       1.213   2.881  21.269  0.00  0.00    +0.000 A 
ATOM     15  C   UNL     1       2.537   2.516  21.492  0.00  0.00    +0.000 A 
ATOM     16  C   UNL     1       3.512   2.845  20.553  0.00  0.00    +0.000 A 
ATOM     17  C   UNL     1       3.163   3.542  19.383  0.00  0.00    +0.000 A 
BRANCH  12  18
ATOM     18  N   UNL     1       1.394   4.470  17.929  0.00  0.00    +0.000 N 
ATOM     19  H   UNL     1       0.389   4.571  17.848  0.00  0.00    +0.000 HD
ATOM     20  H   UNL     1       1.889   5.333  17.689  0.00  0.00    +0.000 HD
ENDBRANCH  12  18
ENDBRANCH   1  17
TORSDOF 2
ENDMDL
MODEL 5
REMARK VINA RESULT:      -7.7      1.123      1.185
REMARK  Name = 
REMARK  2 active torsions:
REMARK  status: ('A' for Active; 'I' for Inactive)
REMARK    1  A    between atoms: N_1  and  C_2
REMARK    2  A    between atoms: C_7  and  C_8
REMARK                            x       y       z     vdW  Elec       q    Type
REMARK                         _______ _______ _______ _____ _____    ______ ____
ROOT
ATOM      1  C   UNL     1       4.221   3.983  18.185  0.00  0.00    +0.000 A 
ATOM      2  N   UNL     1       4.068   3.909  16.902  0.00  0.00    +0.000 NA
ATOM      3  C   UNL     1       5.172   4.220  16.115  0.00  0.00    +0.000 A 
ATOM      4  C   UNL     1       5.056   4.182  14.727  0.00  0.00    +0.000 A 
ATOM      5  C   UNL     1       6.156   4.476  13.916  0.00  0.00    +0.000 A 
ATOM      6  C   UNL     1       7.378   4.816  14.495  0.00  0.00    +0.000 A 
ATOM      7  C   UNL     1       7.498   4.867  15.884  0.00  0.00    +0.000 A 
ATOM      8  C   UNL     1       6.389   4.569  16.683  0.00  0.00    +0.000 A 
ATOM      9  C   UNL     1       6.470   4.620  18.147  0.00  0.00    +0.000 A 
ATOM     10  O   UNL     1       7.513   4.931  18.707  0.00  0.00    +0.000 OA
ATOM     11  O   UNL     1       5.348   4.323  18.845  0.00  0.00    +0.000 OA
ENDROOT
BRANCH   1  17
ATOM     12  C   UNL     1       2.236   2.621  18.893  0.00  0.00    +0.000 A 
ATOM     13  C   UNL     1       1.245   2.353  19.847  0.00  0.00    +0.000 A 
ATOM     14  C   UNL     1       1.108   3.147  20.989  0.00  0.00    +0.000 A 
ATOM     15  C   UNL     1       1.985   4.202  21.217  0.00  0.00    +0.000 A 
ATOM     16  C   UNL     1       2.999   4.468  20.300  0.00  0.00    +0.000 A 
ATOM     17  C   UNL     1       3.140   3.673  19.148  0.00  0.00    +0.000 A 
BRANCH  12  18
ATOM     18  N   UNL     1       2.445   1.681  17.864  0.00  0.00    +0.000 N 
ATOM     19  H   UNL     1       3.169   1.938  17.202  0.00  0.00    +0.000 HD
ATOM     20  H   UNL     1       2.581   0.735  18.234  0.00  0.00    +0.000 HD
ENDBRANCH  12  18
ENDBRANCH   1  17
TORSDOF 2
ENDMDL
MODEL 6
REMARK VINA RESULT:      -7.6      1.259      1.547
REMARK  Name = 
REMARK  2 active torsions:
REMARK  status: ('A' for Active; 'I' for Inactive)
REMARK    1  A    between atoms: N_1  and  C_2
REMARK    2  A    between atoms: C_7  and  C_8
REMARK                            x       y       z     vdW  Elec       q    Type
REMARK                         _______ _______ _______ _____ _____    ______ ____
ROOT
ATOM      1  C   UNL     1       4.183   4.005  18.110  0.00  0.00    +0.000 A 
ATOM      2  N   UNL     1       4.046   3.929  16.824  0.00  0.00    +0.000 NA
ATOM      3  C   UNL     1       5.163   4.222  16.050  0.00  0.00    +0.000 A 
ATOM      4  C   UNL     1       5.064   4.180  14.661  0.00  0.00    +0.000 A 
ATOM      5  C   UNL     1       6.178   4.456  13.863  0.00  0.00    +0.000 A 
ATOM      6  C   UNL     1       7.397   4.783  14.456  0.00  0.00    +0.000 A 
ATOM      7  C   UNL     1       7.500   4.837  15.845  0.00  0.00    +0.000 A 
ATOM      8  C   UNL     1       6.377   4.557  16.632  0.00  0.00    +0.000 A 
ATOM      9  C   UNL     1       6.441   4.612  18.096  0.00  0.00    +0.000 A 
ATOM     10  O   UNL     1       7.481   4.911  18.669  0.00  0.00    +0.000 OA
ATOM     11  O   UNL     1       5.307   4.333  18.781  0.00  0.00    +0.000 OA
ENDROOT
BRANCH   1  17
ATOM     12  C   UNL     1       2.735   4.650  20.055  0.00  0.00    +0.000 A 
ATOM     13  C   UNL     1       1.674   4.335  20.915  0.00  0.00    +0.000 A 
ATOM     14  C   UNL     1       1.024   3.100  20.839  0.00  0.00    +0.000 A 
ATOM     15  C   UNL     1       1.399   2.170  19.874  0.00  0.00    +0.000 A 
ATOM     16  C   UNL     1       2.428   2.473  18.986  0.00  0.00    +0.000 A 
ATOM     17  C   UNL     1       3.087   3.713  19.060  0.00  0.00    +0.000 A 
BRANCH  12  18
ATOM     18  N   UNL     1       3.225   5.971  20.052  0.00  0.00    +0.000 N 
ATOM     19  H   UNL     1       4.230   6.046  19.939  0.00  0.00    +0.000 HD
ATOM     20  H   UNL     1       2.718   6.563  19.388  0.00  0.00    +0.000 HD
ENDBRANCH  12  18
ENDBRANCH   1  17
TORSDOF 2
ENDMDL
MODEL 7
REMARK VINA RESULT:      -7.4      1.542      2.063
REMARK  Name = 
REMARK  2 active torsions:
REMARK  status: ('A' for Active; 'I' for Inactive)
REMARK    1  A    between atoms: N_1  and  C_2
REMARK    2  A    between atoms: C_7  and  C_8
REMARK                            x       y       z     vdW  Elec       q    Type
REMARK                         _______ _______ _______ _____ _____    ______ ____
ROOT
ATOM      1  C   UNL     1       4.740   4.384  16.579  0.00  0.00    +0.000 A 
ATOM      2  N   UNL     1       4.667   3.806  15.423  0.00  0.00    +0.000 NA
ATOM      3  C   UNL     1       5.642   4.136  14.488  0.00  0.00    +0.000 A 
ATOM      4  C   UNL     1       5.596   3.563  13.219  0.00  0.00    +0.000 A 
ATOM      5  C   UNL     1       6.575   3.868  12.269  0.00  0.00    +0.000 A 
ATOM      6  C   UNL     1       7.602   4.757  12.585  0.00  0.00    +0.000 A 
ATOM      7  C   UNL     1       7.647   5.343  13.849  0.00  0.00    +0.000 A 
ATOM      8  C   UNL     1       6.662   5.027  14.792  0.00  0.00    +0.000 A 
ATOM      9  C   UNL     1       6.668   5.628  16.130  0.00  0.00    +0.000 A 
ATOM     10  O   UNL     1       7.535   6.429  16.454  0.00  0.00    +0.000 OA
ATOM     11  O   UNL     1       5.675   5.272  16.979  0.00  0.00    +0.000 OA
ENDROOT
BRANCH   1  17
ATOM     12  C   UNL     1       4.229   3.622  18.915  0.00  0.00    +0.000 A 
ATOM     13  C   UNL     1       3.283   3.416  19.928  0.00  0.00    +0.000 A 
ATOM     14  C   UNL     1       1.921   3.637  19.701  0.00  0.00    +0.000 A 
ATOM     15  C   UNL     1       1.485   4.104  18.466  0.00  0.00    +0.000 A 
ATOM     16  C   UNL     1       2.409   4.348  17.453  0.00  0.00    +0.000 A 
ATOM     17  C   UNL     1       3.780   4.126  17.676  0.00  0.00    +0.000 A 
BRANCH  12  18
ATOM     18  N   UNL     1       5.596   3.565  19.254  0.00  0.00    +0.000 N 
ATOM     19  H   UNL     1       6.224   3.873  18.520  0.00  0.00    +0.000 HD
ATOM     20  H   UNL     1       5.786   4.032  20.145  0.00  0.00    +0.000 HD
ENDBRANCH  12  18
ENDBRANCH   1  17
TORSDOF 2
ENDMDL
MODEL 8
REMARK VINA RESULT:      -7.4      1.538      1.651
REMARK  Name = 
REMARK  2 active torsions:
REMARK  status: ('A' for Active; 'I' for Inactive)
REMARK    1  A    between atoms: N_1  and  C_2
REMARK    2  A    between atoms: C_7  and  C_8
REMARK                            x       y       z     vdW  Elec       q    Type
REMARK                         _______ _______ _______ _____ _____    ______ ____
ROOT
ATOM      1  C   UNL     1       3.729   4.181  18.257  0.00  0.00    +0.000 A 
ATOM      2  N   UNL     1       4.327   3.420  17.396  0.00  0.00    +0.000 NA
ATOM      3  C   UNL     1       5.004   4.051  16.358  0.00  0.00    +0.000 A 
ATOM      4  C   UNL     1       5.643   3.280  15.389  0.00  0.00    +0.000 A 
ATOM      5  C   UNL     1       6.342   3.892  14.345  0.00  0.00    +0.000 A 
ATOM      6  C   UNL     1       6.399   5.283  14.265  0.00  0.00    +0.000 A 
ATOM      7  C   UNL     1       5.753   6.060  15.225  0.00  0.00    +0.000 A 
ATOM      8  C   UNL     1       5.057   5.434  16.266  0.00  0.00    +0.000 A 
ATOM      9  C   UNL     1       4.356   6.215  17.290  0.00  0.00    +0.000 A 
ATOM     10  O   UNL     1       4.357   7.439  17.258  0.00  0.00    +0.000 OA
ATOM     11  O   UNL     1       3.702   5.530  18.259  0.00  0.00    +0.000 OA
ENDROOT
BRANCH   1  17
ATOM     12  C   UNL     1       3.542   2.657  20.242  0.00  0.00    +0.000 A 
ATOM     13  C   UNL     1       2.799   2.208  21.342  0.00  0.00    +0.000 A 
ATOM     14  C   UNL     1       1.506   2.681  21.583  0.00  0.00    +0.000 A 
ATOM     15  C   UNL     1       0.946   3.642  20.747  0.00  0.00    +0.000 A 
ATOM     16  C   UNL     1       1.677   4.128  19.666  0.00  0.00    +0.000 A 
ATOM     17  C   UNL     1       2.978   3.654  19.418  0.00  0.00    +0.000 A 
BRANCH  12  18
ATOM     18  N   UNL     1       4.900   2.288  20.156  0.00  0.00    +0.000 N 
ATOM     19  H   UNL     1       5.379   2.242  21.048  0.00  0.00    +0.000 HD
ATOM     20  H   UNL     1       5.028   1.434  19.606  0.00  0.00    +0.000 HD
ENDBRANCH  12  18
ENDBRANCH   1  17
TORSDOF 2
ENDMDL
MODEL 9
REMARK VINA RESULT:      -7.3      2.279      6.178
REMARK  Name = 
REMARK  2 active torsions:
REMARK  status: ('A' for Active; 'I' for Inactive)
REMARK    1  A    between atoms: N_1  and  C_2
REMARK    2  A    between atoms: C_7  and  C_8
REMARK                            x       y       z     vdW  Elec       q    Type
REMARK                         _______ _______ _______ _____ _____    ______ ____
ROOT
ATOM      1  C   UNL     1       4.857   4.511  16.142  0.00  0.00    +0.000 A 
ATOM      2  N   UNL     1       4.448   5.629  16.651  0.00  0.00    +0.000 NA
ATOM      3  C   UNL     1       3.697   5.554  17.819  0.00  0.00    +0.000 A 
ATOM      4  C   UNL     1       3.210   6.726  18.396  0.00  0.00    +0.000 A 
ATOM      5  C   UNL     1       2.466   6.676  19.578  0.00  0.00    +0.000 A 
ATOM      6  C   UNL     1       2.200   5.448  20.185  0.00  0.00    +0.000 A 
ATOM      7  C   UNL     1       2.675   4.272  19.606  0.00  0.00    +0.000 A 
ATOM      8  C   UNL     1       3.420   4.336  18.424  0.00  0.00    +0.000 A 
ATOM      9  C   UNL     1       3.930   3.122  17.778  0.00  0.00    +0.000 A 
ATOM     10  O   UNL     1       3.710   2.017  18.257  0.00  0.00    +0.000 OA
ATOM     11  O   UNL     1       4.637   3.274  16.633  0.00  0.00    +0.000 OA
ENDROOT
BRANCH   1  17
ATOM     12  C   UNL     1       6.863   5.181  14.792  0.00  0.00    +0.000 A 
ATOM     13  C   UNL     1       7.611   5.055  13.613  0.00  0.00    +0.000 A 
ATOM     14  C   UNL     1       7.159   4.265  12.552  0.00  0.00    +0.000 A 
ATOM     15  C   UNL     1       5.967   3.556  12.665  0.00  0.00    +0.000 A 
ATOM     16  C   UNL     1       5.223   3.639  13.839  0.00  0.00    +0.000 A 
ATOM     17  C   UNL     1       5.672   4.433  14.909  0.00  0.00    +0.000 A 
BRANCH  12  18
ATOM     18  N   UNL     1       7.453   5.834  15.892  0.00  0.00    +0.000 N 
ATOM     19  H   UNL     1       8.442   5.645  16.012  0.00  0.00    +0.000 HD
ATOM     20  H   UNL     1       7.251   6.838  15.891  0.00  0.00    +0.000 HD
ENDBRANCH  12  18
ENDBRANCH   1  17
TORSDOF 2
ENDMDL
