MODEL 1
REMARK VINA RESULT:      -7.3      0.000      0.000
REMARK  Name = 
REMARK  3 active torsions:
REMARK  status: ('A' for Active; 'I' for Inactive)
REMARK    1  A    between atoms: C_2  and  C_15
REMARK    2  A    between atoms: N_3  and  C_4
REMARK    3  A    between atoms: C_4  and  N_6
REMARK                            x       y       z     vdW  Elec       q    Type
REMARK                         _______ _______ _______ _____ _____    ______ ____
ROOT
ATOM      1  C   UNL     1       3.641   6.252  17.957  0.00  0.00    +0.000 C 
ATOM      2  S   UNL     1       2.621   7.593  17.936  0.00  0.00    +0.000 S 
ENDROOT
BRANCH   1   3
ATOM      3  N   UNL     1       3.155   4.946  18.097  0.00  0.00    +0.000 N 
ATOM      4  C   UNL     1       3.291   3.905  17.044  0.00  0.00    +0.000 C 
ATOM      5  C   UNL     1       2.440   2.709  17.470  0.00  0.00    +0.000 C 
ATOM      6  C   UNL     1       2.226   3.002  18.919  0.00  0.00    +0.000 A 
ATOM      7  C   UNL     1       1.665   2.151  19.861  0.00  0.00    +0.000 A 
ATOM      8  C   UNL     1       1.534   2.609  21.170  0.00  0.00    +0.000 A 
ATOM      9  C   UNL     1       1.979   3.889  21.519  0.00  0.00    +0.000 A 
ATOM     10  C   UNL     1       2.552   4.735  20.561  0.00  0.00    +0.000 A 
ATOM     11  C   UNL     1       2.639   4.298  19.248  0.00  0.00    +0.000 A 
ENDBRANCH   1   3
BRANCH   1  14
ATOM     12  O   UNL     1       5.507   6.580  15.650  0.00  0.00    +0.000 OA
ATOM     13  C   UNL     1       5.858   6.676  16.831  0.00  0.00    +0.000 C 
ATOM     14  N   UNL     1       5.031   6.346  17.906  0.00  0.00    +0.000 N 
ATOM     15  H   UNL     1       5.464   6.351  18.817  0.00  0.00    +0.000 HD
BRANCH  13  16
ATOM     16  C   UNL     1       7.318   7.015  17.218  0.00  0.00    +0.000 C 
ATOM     17  C   UNL     1       7.584   8.498  17.611  0.00  0.00    +0.000 C 
ATOM     18  C   UNL     1       8.598   7.993  18.647  0.00  0.00    +0.000 C 
ATOM     19  C   UNL     1       7.861   6.639  18.619  0.00  0.00    +0.000 C 
ENDBRANCH  13  16
ENDBRANCH   1  14
TORSDOF 3
ENDMDL
MODEL 2
REMARK VINA RESULT:      -7.2      2.871      3.962
REMARK  Name = 
REMARK  3 active torsions:
REMARK  status: ('A' for Active; 'I' for Inactive)
REMARK    1  A    between atoms: C_2  and  C_15
REMARK    2  A    between atoms: N_3  and  C_4
REMARK    3  A    between atoms: C_4  and  N_6
REMARK                            x       y       z     vdW  Elec       q    Type
REMARK                         _______ _______ _______ _____ _____    ______ ____
ROOT
ATOM      1  C   UNL     1       6.010   5.072  17.623  0.00  0.00    +0.000 C 
ATOM      2  S   UNL     1       7.199   5.494  18.740  0.00  0.00    +0.000 S 
ENDROOT
BRANCH   1   3
ATOM      3  N   UNL     1       4.644   5.178  17.910  0.00  0.00    +0.000 N 
ATOM      4  C   UNL     1       3.905   6.469  17.907  0.00  0.00    +0.000 C 
ATOM      5  C   UNL     1       2.518   6.204  18.492  0.00  0.00    +0.000 C 
ATOM      6  C   UNL     1       2.436   4.716  18.392  0.00  0.00    +0.000 A 
ATOM      7  C   UNL     1       1.312   3.933  18.615  0.00  0.00    +0.000 A 
ATOM      8  C   UNL     1       1.434   2.551  18.487  0.00  0.00    +0.000 A 
ATOM      9  C   UNL     1       2.659   1.980  18.121  0.00  0.00    +0.000 A 
ATOM     10  C   UNL     1       3.783   2.783  17.890  0.00  0.00    +0.000 A 
ATOM     11  C   UNL     1       3.675   4.154  18.064  0.00  0.00    +0.000 A 
ENDBRANCH   1   3
BRANCH   1  14
ATOM     12  O   UNL     1       5.590   6.143  14.869  0.00  0.00    +0.000 OA
ATOM     13  C   UNL     1       6.248   5.126  15.112  0.00  0.00    +0.000 C 
ATOM     14  N   UNL     1       6.295   4.527  16.371  0.00  0.00    +0.000 N 
ATOM     15  H   UNL     1       6.767   3.637  16.422  0.00  0.00    +0.000 HD
BRANCH  13  16
ATOM     16  C   UNL     1       6.952   4.328  13.989  0.00  0.00    +0.000 C 
ATOM     17  C   UNL     1       6.010   3.646  12.954  0.00  0.00    +0.000 C 
ATOM     18  C   UNL     1       7.057   3.950  11.872  0.00  0.00    +0.000 C 
ATOM     19  C   UNL     1       7.590   5.069  12.788  0.00  0.00    +0.000 C 
ENDBRANCH  13  16
ENDBRANCH   1  14
TORSDOF 3
ENDMDL
MODEL 3
REMARK VINA RESULT:      -7.2      2.757      3.370
REMARK  Name = 
REMARK  3 active torsions:
REMARK  status: ('A' for Active; 'I' for Inactive)
REMARK    1  A    between atoms: C_2  and  C_15
REMARK    2  A    between atoms: N_3  and  C_4
REMARK    3  A    between atoms: C_4  and  N_6
REMARK                            x       y       z     vdW  Elec       q    Type
REMARK                         _______ _______ _______ _____ _____    ______ ____
ROOT
ATOM      1  C   UNL     1       5.359   4.842  17.790  0.00  0.00    +0.000 C 
ATOM      2  S   UNL     1       6.380   5.378  19.018  0.00  0.00    +0.000 S 
ENDROOT
BRANCH   1   3
ATOM      3  N   UNL     1       4.238   4.044  18.045  0.00  0.00    +0.000 N 
ATOM      4  C   UNL     1       4.080   2.662  17.519  0.00  0.00    +0.000 C 
ATOM      5  C   UNL     1       2.646   2.222  17.812  0.00  0.00    +0.000 C 
ATOM      6  C   UNL     1       2.236   3.222  18.843  0.00  0.00    +0.000 A 
ATOM      7  C   UNL     1       1.078   3.195  19.607  0.00  0.00    +0.000 A 
ATOM      8  C   UNL     1       0.859   4.230  20.513  0.00  0.00    +0.000 A 
ATOM      9  C   UNL     1       1.802   5.255  20.655  0.00  0.00    +0.000 A 
ATOM     10  C   UNL     1       2.972   5.265  19.884  0.00  0.00    +0.000 A 
ATOM     11  C   UNL     1       3.166   4.261  18.948  0.00  0.00    +0.000 A 
ENDBRANCH   1   3
BRANCH   1  14
ATOM     12  O   UNL     1       7.788   4.435  16.102  0.00  0.00    +0.000 OA
ATOM     13  C   UNL     1       6.679   4.727  15.643  0.00  0.00    +0.000 C 
ATOM     14  N   UNL     1       5.592   5.092  16.437  0.00  0.00    +0.000 N 
ATOM     15  H   UNL     1       4.774   5.423  15.948  0.00  0.00    +0.000 HD
BRANCH  13  16
ATOM     16  C   UNL     1       6.445   4.874  14.120  0.00  0.00    +0.000 C 
ATOM     17  C   UNL     1       7.728   5.041  13.254  0.00  0.00    +0.000 C 
ATOM     18  C   UNL     1       7.038   4.217  12.157  0.00  0.00    +0.000 C 
ATOM     19  C   UNL     1       6.130   3.628  13.255  0.00  0.00    +0.000 C 
ENDBRANCH  13  16
ENDBRANCH   1  14
TORSDOF 3
ENDMDL
MODEL 4
REMARK VINA RESULT:      -7.1      2.791      3.507
REMARK  Name = 
REMARK  3 active torsions:
REMARK  status: ('A' for Active; 'I' for Inactive)
REMARK    1  A    between atoms: C_2  and  C_15
REMARK    2  A    between atoms: N_3  and  C_4
REMARK    3  A    between atoms: C_4  and  N_6
REMARK                            x       y       z     vdW  Elec       q    Type
REMARK                         _______ _______ _______ _____ _____    ______ ____
ROOT
ATOM      1  C   UNL     1       5.352   4.269  17.712  0.00  0.00    +0.000 C 
ATOM      2  S   UNL     1       6.252   5.232  18.762  0.00  0.00    +0.000 S 
ENDROOT
BRANCH   1   3
ATOM      3  N   UNL     1       4.155   3.655  18.102  0.00  0.00    +0.000 N 
ATOM      4  C   UNL     1       3.824   2.238  17.793  0.00  0.00    +0.000 C 
ATOM      5  C   UNL     1       2.360   2.018  18.171  0.00  0.00    +0.000 C 
ATOM      6  C   UNL     1       2.100   3.201  19.044  0.00  0.00    +0.000 A 
ATOM      7  C   UNL     1       0.971   3.423  19.821  0.00  0.00    +0.000 A 
ATOM      8  C   UNL     1       0.902   4.600  20.563  0.00  0.00    +0.000 A 
ATOM      9  C   UNL     1       1.959   5.517  20.535  0.00  0.00    +0.000 A 
ATOM     10  C   UNL     1       3.097   5.276  19.754  0.00  0.00    +0.000 A 
ATOM     11  C   UNL     1       3.145   4.128  18.978  0.00  0.00    +0.000 A 
ENDBRANCH   1   3
BRANCH   1  14
ATOM     12  O   UNL     1       5.559   5.958  15.260  0.00  0.00    +0.000 OA
ATOM     13  C   UNL     1       6.013   4.812  15.339  0.00  0.00    +0.000 C 
ATOM     14  N   UNL     1       5.761   3.960  16.415  0.00  0.00    +0.000 N 
ATOM     15  H   UNL     1       6.085   3.010  16.316  0.00  0.00    +0.000 HD
BRANCH  13  16
ATOM     16  C   UNL     1       6.774   4.157  14.161  0.00  0.00    +0.000 C 
ATOM     17  C   UNL     1       5.886   3.625  12.998  0.00  0.00    +0.000 C 
ATOM     18  C   UNL     1       6.990   4.053  12.022  0.00  0.00    +0.000 C 
ATOM     19  C   UNL     1       7.479   5.039  13.101  0.00  0.00    +0.000 C 
ENDBRANCH  13  16
ENDBRANCH   1  14
TORSDOF 3
ENDMDL
MODEL 5
REMARK VINA RESULT:      -7.0      2.742      3.817
REMARK  Name = 
REMARK  3 active torsions:
REMARK  status: ('A' for Active; 'I' for Inactive)
REMARK    1  A    between atoms: C_2  and  C_15
REMARK    2  A    between atoms: N_3  and  C_4
REMARK    3  A    between atoms: C_4  and  N_6
REMARK                            x       y       z     vdW  Elec       q    Type
REMARK                         _______ _______ _______ _____ _____    ______ ____
ROOT
ATOM      1  C   UNL     1       5.978   5.298  17.976  0.00  0.00    +0.000 C 
ATOM      2  S   UNL     1       7.360   5.715  18.844  0.00  0.00    +0.000 S 
ENDROOT
BRANCH   1   3
ATOM      3  N   UNL     1       4.688   5.561  18.453  0.00  0.00    +0.000 N 
ATOM      4  C   UNL     1       3.868   6.717  18.003  0.00  0.00    +0.000 C 
ATOM      5  C   UNL     1       2.644   6.793  18.915  0.00  0.00    +0.000 C 
ATOM      6  C   UNL     1       2.656   5.435  19.536  0.00  0.00    +0.000 A 
ATOM      7  C   UNL     1       1.658   4.876  20.322  0.00  0.00    +0.000 A 
ATOM      8  C   UNL     1       1.855   3.594  20.829  0.00  0.00    +0.000 A 
ATOM      9  C   UNL     1       3.026   2.888  20.528  0.00  0.00    +0.000 A 
ATOM     10  C   UNL     1       4.022   3.460  19.725  0.00  0.00    +0.000 A 
ATOM     11  C   UNL     1       3.846   4.754  19.260  0.00  0.00    +0.000 A 
ENDBRANCH   1   3
BRANCH   1  14
ATOM     12  O   UNL     1       5.724   6.254  15.159  0.00  0.00    +0.000 OA
ATOM     13  C   UNL     1       6.068   5.107  15.462  0.00  0.00    +0.000 C 
ATOM     14  N   UNL     1       6.013   4.608  16.764  0.00  0.00    +0.000 N 
ATOM     15  H   UNL     1       6.206   3.624  16.872  0.00  0.00    +0.000 HD
BRANCH  13  16
ATOM     16  C   UNL     1       6.438   4.059  14.384  0.00  0.00    +0.000 C 
ATOM     17  C   UNL     1       5.302   3.690  13.385  0.00  0.00    +0.000 C 
ATOM     18  C   UNL     1       6.370   3.561  12.291  0.00  0.00    +0.000 C 
ATOM     19  C   UNL     1       7.270   4.475  13.146  0.00  0.00    +0.000 C 
ENDBRANCH  13  16
ENDBRANCH   1  14
TORSDOF 3
ENDMDL
MODEL 6
REMARK VINA RESULT:      -7.0      2.913      4.107
REMARK  Name = 
REMARK  3 active torsions:
REMARK  status: ('A' for Active; 'I' for Inactive)
REMARK    1  A    between atoms: C_2  and  C_15
REMARK    2  A    between atoms: N_3  and  C_4
REMARK    3  A    between atoms: C_4  and  N_6
REMARK                            x       y       z     vdW  Elec       q    Type
REMARK                         _______ _______ _______ _____ _____    ______ ____
ROOT
ATOM      1  C   UNL     1       5.890   6.181  17.162  0.00  0.00    +0.000 C 
ATOM      2  S   UNL     1       7.143   6.443  18.258  0.00  0.00    +0.000 S 
ENDROOT
BRANCH   1   3
ATOM      3  N   UNL     1       4.556   6.059  17.569  0.00  0.00    +0.000 N 
ATOM      4  C   UNL     1       3.645   7.222  17.744  0.00  0.00    +0.000 C 
ATOM      5  C   UNL     1       2.371   6.709  18.415  0.00  0.00    +0.000 C 
ATOM      6  C   UNL     1       2.492   5.237  18.188  0.00  0.00    +0.000 A 
ATOM      7  C   UNL     1       1.516   4.281  18.432  0.00  0.00    +0.000 A 
ATOM      8  C   UNL     1       1.820   2.946  18.170  0.00  0.00    +0.000 A 
ATOM      9  C   UNL     1       3.073   2.595  17.655  0.00  0.00    +0.000 A 
ATOM     10  C   UNL     1       4.045   3.572  17.404  0.00  0.00    +0.000 A 
ATOM     11  C   UNL     1       3.760   4.894  17.710  0.00  0.00    +0.000 A 
ENDBRANCH   1   3
BRANCH   1  14
ATOM     12  O   UNL     1       7.700   4.333  15.673  0.00  0.00    +0.000 OA
ATOM     13  C   UNL     1       6.816   5.005  15.132  0.00  0.00    +0.000 C 
ATOM     14  N   UNL     1       6.094   5.998  15.795  0.00  0.00    +0.000 N 
ATOM     15  H   UNL     1       5.483   6.560  15.223  0.00  0.00    +0.000 HD
BRANCH  13  16
ATOM     16  C   UNL     1       6.546   4.916  13.610  0.00  0.00    +0.000 C 
ATOM     17  C   UNL     1       7.809   4.936  12.699  0.00  0.00    +0.000 C 
ATOM     18  C   UNL     1       7.089   3.958  11.761  0.00  0.00    +0.000 C 
ATOM     19  C   UNL     1       6.206   3.554  12.957  0.00  0.00    +0.000 C 
ENDBRANCH  13  16
ENDBRANCH   1  14
TORSDOF 3
ENDMDL
MODEL 7
REMARK VINA RESULT:      -6.9      2.607      3.478
REMARK  Name = 
REMARK  3 active torsions:
REMARK  status: ('A' for Active; 'I' for Inactive)
REMARK    1  A    between atoms: C_2  and  C_15
REMARK    2  A    between atoms: N_3  and  C_4
REMARK    3  A    between atoms: C_4  and  N_6
REMARK                            x       y       z     vdW  Elec       q    Type
REMARK                         _______ _______ _______ _____ _____    ______ ____
ROOT
ATOM      1  C   UNL     1       4.509   5.591  17.044  0.00  0.00    +0.000 C 
ATOM      2  S   UNL     1       4.161   7.214  17.337  0.00  0.00    +0.000 S 
ENDROOT
BRANCH   1   3
ATOM      3  N   UNL     1       4.224   4.586  17.977  0.00  0.00    +0.000 N 
ATOM      4  C   UNL     1       5.195   4.127  19.006  0.00  0.00    +0.000 C 
ATOM      5  C   UNL     1       4.608   2.878  19.663  0.00  0.00    +0.000 C 
ATOM      6  C   UNL     1       3.177   2.972  19.248  0.00  0.00    +0.000 A 
ATOM      7  C   UNL     1       2.129   2.189  19.711  0.00  0.00    +0.000 A 
ATOM      8  C   UNL     1       0.856   2.415  19.193  0.00  0.00    +0.000 A 
ATOM      9  C   UNL     1       0.648   3.424  18.245  0.00  0.00    +0.000 A 
ATOM     10  C   UNL     1       1.714   4.214  17.792  0.00  0.00    +0.000 A 
ATOM     11  C   UNL     1       2.989   3.957  18.273  0.00  0.00    +0.000 A 
ENDBRANCH   1   3
BRANCH   1  14
ATOM     12  O   UNL     1       7.299   6.014  16.073  0.00  0.00    +0.000 OA
ATOM     13  C   UNL     1       6.512   5.211  15.560  0.00  0.00    +0.000 C 
ATOM     14  N   UNL     1       5.160   5.142  15.896  0.00  0.00    +0.000 N 
ATOM     15  H   UNL     1       4.592   4.531  15.329  0.00  0.00    +0.000 HD
BRANCH  13  16
ATOM     16  C   UNL     1       6.929   4.315  14.369  0.00  0.00    +0.000 C 
ATOM     17  C   UNL     1       5.763   3.775  13.490  0.00  0.00    +0.000 C 
ATOM     18  C   UNL     1       6.679   3.919  12.268  0.00  0.00    +0.000 C 
ATOM     19  C   UNL     1       7.492   4.950  13.074  0.00  0.00    +0.000 C 
ENDBRANCH  13  16
ENDBRANCH   1  14
TORSDOF 3
ENDMDL
MODEL 8
REMARK VINA RESULT:      -6.9      3.400      4.768
REMARK  Name = 
REMARK  3 active torsions:
REMARK  status: ('A' for Active; 'I' for Inactive)
REMARK    1  A    between atoms: C_2  and  C_15
REMARK    2  A    between atoms: N_3  and  C_4
REMARK    3  A    between atoms: C_4  and  N_6
REMARK                            x       y       z     vdW  Elec       q    Type
REMARK                         _______ _______ _______ _____ _____    ______ ____
ROOT
ATOM      1  C   UNL     1       5.950   4.845  16.244  0.00  0.00    +0.000 C 
ATOM      2  S   UNL     1       7.409   4.583  17.045  0.00  0.00    +0.000 S 
ENDROOT
BRANCH   1   3
ATOM      3  N   UNL     1       4.782   5.214  16.921  0.00  0.00    +0.000 N 
ATOM      4  C   UNL     1       4.357   6.627  17.110  0.00  0.00    +0.000 C 
ATOM      5  C   UNL     1       3.181   6.625  18.086  0.00  0.00    +0.000 C 
ATOM      6  C   UNL     1       2.769   5.190  18.046  0.00  0.00    +0.000 A 
ATOM      7  C   UNL     1       1.625   4.642  18.610  0.00  0.00    +0.000 A 
ATOM      8  C   UNL     1       1.417   3.271  18.482  0.00  0.00    +0.000 A 
ATOM      9  C   UNL     1       2.334   2.479  17.781  0.00  0.00    +0.000 A 
ATOM     10  C   UNL     1       3.481   3.046  17.209  0.00  0.00    +0.000 A 
ATOM     11  C   UNL     1       3.713   4.403  17.378  0.00  0.00    +0.000 A 
ENDBRANCH   1   3
BRANCH   1  14
ATOM     12  O   UNL     1       7.765   5.407  13.941  0.00  0.00    +0.000 OA
ATOM     13  C   UNL     1       6.718   4.758  13.842  0.00  0.00    +0.000 C 
ATOM     14  N   UNL     1       5.784   4.649  14.873  0.00  0.00    +0.000 N 
ATOM     15  H   UNL     1       4.915   4.194  14.639  0.00  0.00    +0.000 HD
BRANCH  13  16
ATOM     16  C   UNL     1       6.270   4.141  12.495  0.00  0.00    +0.000 C 
ATOM     17  C   UNL     1       6.887   2.754  12.151  0.00  0.00    +0.000 C 
ATOM     18  C   UNL     1       5.550   2.373  11.501  0.00  0.00    +0.000 C 
ATOM     19  C   UNL     1       4.886   3.457  12.373  0.00  0.00    +0.000 C 
ENDBRANCH  13  16
ENDBRANCH   1  14
TORSDOF 3
ENDMDL
MODEL 9
REMARK VINA RESULT:      -6.9      2.040      5.926
REMARK  Name = 
REMARK  3 active torsions:
REMARK  status: ('A' for Active; 'I' for Inactive)
REMARK    1  A    between atoms: C_2  and  C_15
REMARK    2  A    between atoms: N_3  and  C_4
REMARK    3  A    between atoms: C_4  and  N_6
REMARK                            x       y       z     vdW  Elec       q    Type
REMARK                         _______ _______ _______ _____ _____    ______ ____
ROOT
ATOM      1  C   UNL     1       3.328   6.455  18.297  0.00  0.00    +0.000 C 
ATOM      2  S   UNL     1       2.890   7.926  17.602  0.00  0.00    +0.000 S 
ENDROOT
BRANCH   1   3
ATOM      3  N   UNL     1       4.613   5.916  18.158  0.00  0.00    +0.000 N 
ATOM      4  C   UNL     1       5.460   5.512  19.312  0.00  0.00    +0.000 C 
ATOM      5  C   UNL     1       6.855   5.202  18.770  0.00  0.00    +0.000 C 
ATOM      6  C   UNL     1       6.577   5.054  17.310  0.00  0.00    +0.000 A 
ATOM      7  C   UNL     1       7.458   4.589  16.344  0.00  0.00    +0.000 A 
ATOM      8  C   UNL     1       7.020   4.535  15.022  0.00  0.00    +0.000 A 
ATOM      9  C   UNL     1       5.715   4.922  14.693  0.00  0.00    +0.000 A 
ATOM     10  C   UNL     1       4.833   5.380  15.680  0.00  0.00    +0.000 A 
ATOM     11  C   UNL     1       5.284   5.480  16.988  0.00  0.00    +0.000 A 
ENDBRANCH   1   3
BRANCH   1  14
ATOM     12  O   UNL     1       1.625   4.176  17.394  0.00  0.00    +0.000 OA
ATOM     13  C   UNL     1       1.790   4.476  18.581  0.00  0.00    +0.000 C 
ATOM     14  N   UNL     1       2.436   5.642  18.995  0.00  0.00    +0.000 N 
ATOM     15  H   UNL     1       2.407   5.838  19.984  0.00  0.00    +0.000 HD
BRANCH  13  16
ATOM     16  C   UNL     1       1.143   3.655  19.723  0.00  0.00    +0.000 C 
ATOM     17  C   UNL     1       1.738   2.236  19.955  0.00  0.00    +0.000 C 
ATOM     18  C   UNL     1       1.500   2.432  21.458  0.00  0.00    +0.000 C 
ATOM     19  C   UNL     1       1.506   3.951  21.199  0.00  0.00    +0.000 C 
ENDBRANCH  13  16
ENDBRANCH   1  14
TORSDOF 3
ENDMDL
