MODEL 1
REMARK VINA RESULT:      -7.4      0.000      0.000
REMARK  Name = 
REMARK  7 active torsions:
REMARK  status: ('A' for Active; 'I' for Inactive)
REMARK    1  A    between atoms: C_1  and  N_2
REMARK    2  A    between atoms: C_4  and  O_5
REMARK    3  A    between atoms: O_5  and  C_6
REMARK    4  A    between atoms: C_15  and  C_16
REMARK    5  A    between atoms: N_18  and  O_19
REMARK    6  A    between atoms: C_20  and  C_21
REMARK    7  A    between atoms: N_26  and  C_27
REMARK                            x       y       z     vdW  Elec       q    Type
REMARK                         _______ _______ _______ _____ _____    ______ ____
ROOT
ATOM      1  C   UNL     1      -1.832  11.207  18.781  0.00  0.00    +0.000 C 
ATOM      2  N   UNL     1      -1.625  12.450  19.530  0.00  0.00    +0.000 NA
ATOM      3  C   UNL     1      -2.767  12.620  20.446  0.00  0.00    +0.000 C 
ATOM      4  C   UNL     1      -2.659  13.303  21.821  0.00  0.00    +0.000 C 
ATOM      5  C   UNL     1      -1.232  13.759  22.196  0.00  0.00    +0.000 C 
ATOM      6  C   UNL     1      -0.271  13.864  20.977  0.00  0.00    +0.000 C 
ATOM      7  C   UNL     1      -0.264  12.563  20.143  0.00  0.00    +0.000 C 
ENDROOT
BRANCH   7   8
ATOM      8  C   UNL     1       0.133  11.298  20.993  0.00  0.00    +0.000 C 
ATOM      9  O   UNL     1      -0.084  11.318  22.213  0.00  0.00    +0.000 OA
ATOM     10  N   UNL     1       0.637  10.112  20.415  0.00  0.00    +0.000 N 
ATOM     11  C   UNL     1       0.974   9.069  21.401  0.00  0.00    +0.000 C 
ATOM     12  C   UNL     1       1.144   7.647  20.844  0.00  0.00    +0.000 C 
ATOM     13  N   UNL     1       2.101   7.628  19.721  0.00  0.00    +0.000 N 
ATOM     14  C   UNL     1       1.777   8.599  18.652  0.00  0.00    +0.000 C 
ATOM     15  C   UNL     1       1.456  10.043  19.189  0.00  0.00    +0.000 C 
BRANCH  13  16
ATOM     16  C   UNL     1       2.628   6.362  19.397  0.00  0.00    +0.000 A 
ATOM     17  C   UNL     1       2.438   5.202  20.167  0.00  0.00    +0.000 A 
ATOM     18  C   UNL     1       2.911   3.941  19.747  0.00  0.00    +0.000 A 
ATOM     19  C   UNL     1       3.588   3.806  18.539  0.00  0.00    +0.000 A 
ATOM     20  C   UNL     1       3.814   4.936  17.765  0.00  0.00    +0.000 A 
ATOM     21  C   UNL     1       3.344   6.188  18.195  0.00  0.00    +0.000 A 
ENDBRANCH  13  16
ENDBRANCH   7   8
BRANCH   6  22
ATOM     22  C   UNL     1      -0.590  15.154  20.182  0.00  0.00    +0.000 C 
ATOM     23  O   UNL     1      -0.889  16.213  20.740  0.00  0.00    +0.000 OA
ATOM     24  N   UNL     1      -0.450  15.095  18.801  0.00  0.00    +0.000 N 
ATOM     25  H   UNL     1      -0.733  14.247  18.336  0.00  0.00    +0.000 HD
BRANCH  24  26
ATOM     26  O   UNL     1      -0.848  16.294  18.130  0.00  0.00    +0.000 OA
ATOM     27  H   UNL     1      -0.799  16.976  18.836  0.00  0.00    +0.000 HD
ENDBRANCH  24  26
ENDBRANCH   6  22
BRANCH   4  28
ATOM     28  O   UNL     1      -3.250  12.305  22.720  0.00  0.00    +0.000 OA
BRANCH  28  29
ATOM     29  C   UNL     1      -4.157  12.836  23.609  0.00  0.00    +0.000 C 
ATOM     30  O   UNL     1      -3.789  13.292  24.689  0.00  0.00    +0.000 OA
ATOM     31  N   UNL     1      -5.500  12.863  23.205  0.00  0.00    +0.000 N 
ATOM     32  C   UNL     1      -6.048  12.588  21.871  0.00  0.00    +0.000 C 
ATOM     33  C   UNL     1      -6.938  13.747  21.353  0.00  0.00    +0.000 C 
ATOM     34  C   UNL     1      -7.910  14.316  22.395  0.00  0.00    +0.000 C 
ATOM     35  C   UNL     1      -7.215  14.547  23.733  0.00  0.00    +0.000 C 
ATOM     36  C   UNL     1      -6.511  13.268  24.179  0.00  0.00    +0.000 C 
ENDBRANCH  28  29
ENDBRANCH   4  28
TORSDOF 6
ENDMDL
MODEL 2
REMARK VINA RESULT:      -7.4      0.844      1.067
REMARK  Name = 
REMARK  7 active torsions:
REMARK  status: ('A' for Active; 'I' for Inactive)
REMARK    1  A    between atoms: C_1  and  N_2
REMARK    2  A    between atoms: C_4  and  O_5
REMARK    3  A    between atoms: O_5  and  C_6
REMARK    4  A    between atoms: C_15  and  C_16
REMARK    5  A    between atoms: N_18  and  O_19
REMARK    6  A    between atoms: C_20  and  C_21
REMARK    7  A    between atoms: N_26  and  C_27
REMARK                            x       y       z     vdW  Elec       q    Type
REMARK                         _______ _______ _______ _____ _____    ______ ____
ROOT
ATOM      1  C   UNL     1      -1.613  11.603  18.275  0.00  0.00    +0.000 C 
ATOM      2  N   UNL     1      -1.401  12.771  19.134  0.00  0.00    +0.000 NA
ATOM      3  C   UNL     1      -2.508  12.823  20.106  0.00  0.00    +0.000 C 
ATOM      4  C   UNL     1      -2.359  13.370  21.537  0.00  0.00    +0.000 C 
ATOM      5  C   UNL     1      -0.927  13.822  21.900  0.00  0.00    +0.000 C 
ATOM      6  C   UNL     1      -0.019  14.071  20.661  0.00  0.00    +0.000 C 
ATOM      7  C   UNL     1      -0.019  12.857  19.703  0.00  0.00    +0.000 C 
ENDROOT
BRANCH   7   8
ATOM      8  C   UNL     1       0.439  11.526  20.408  0.00  0.00    +0.000 C 
ATOM      9  O   UNL     1       0.302  11.434  21.637  0.00  0.00    +0.000 OA
ATOM     10  N   UNL     1       0.909  10.401  19.694  0.00  0.00    +0.000 N 
ATOM     11  C   UNL     1       1.314   9.278  20.559  0.00  0.00    +0.000 C 
ATOM     12  C   UNL     1       1.453   7.913  19.865  0.00  0.00    +0.000 C 
ATOM     13  N   UNL     1       2.334   8.004  18.685  0.00  0.00    +0.000 N 
ATOM     14  C   UNL     1       1.936   9.063  17.732  0.00  0.00    +0.000 C 
ATOM     15  C   UNL     1       1.645  10.451  18.416  0.00  0.00    +0.000 C 
BRANCH  13  16
ATOM     16  C   UNL     1       2.843   6.778  18.215  0.00  0.00    +0.000 A 
ATOM     17  C   UNL     1       4.185   6.559  17.857  0.00  0.00    +0.000 A 
ATOM     18  C   UNL     1       4.659   5.286  17.480  0.00  0.00    +0.000 A 
ATOM     19  C   UNL     1       3.802   4.190  17.455  0.00  0.00    +0.000 A 
ATOM     20  C   UNL     1       2.465   4.375  17.780  0.00  0.00    +0.000 A 
ATOM     21  C   UNL     1       2.001   5.649  18.147  0.00  0.00    +0.000 A 
ENDBRANCH  13  16
ENDBRANCH   7   8
BRANCH   6  22
ATOM     22  C   UNL     1      -0.397  15.423  20.010  0.00  0.00    +0.000 C 
ATOM     23  O   UNL     1      -0.581  16.445  20.677  0.00  0.00    +0.000 OA
ATOM     24  N   UNL     1      -0.445  15.464  18.622  0.00  0.00    +0.000 N 
ATOM     25  H   UNL     1      -0.817  14.661  18.141  0.00  0.00    +0.000 HD
BRANCH  24  26
ATOM     26  O   UNL     1      -0.888  16.720  18.098  0.00  0.00    +0.000 OA
ATOM     27  H   UNL     1      -0.646  17.359  18.805  0.00  0.00    +0.000 HD
ENDBRANCH  24  26
ENDBRANCH   6  22
BRANCH   4  28
ATOM     28  O   UNL     1      -2.892  12.276  22.355  0.00  0.00    +0.000 OA
BRANCH  28  29
ATOM     29  C   UNL     1      -3.806  12.689  23.298  0.00  0.00    +0.000 C 
ATOM     30  O   UNL     1      -3.444  13.034  24.419  0.00  0.00    +0.000 OA
ATOM     31  N   UNL     1      -5.151  12.732  22.900  0.00  0.00    +0.000 N 
ATOM     32  C   UNL     1      -5.697  12.590  21.545  0.00  0.00    +0.000 C 
ATOM     33  C   UNL     1      -6.613  13.779  21.155  0.00  0.00    +0.000 C 
ATOM     34  C   UNL     1      -7.593  14.212  22.253  0.00  0.00    +0.000 C 
ATOM     35  C   UNL     1      -6.898  14.312  23.608  0.00  0.00    +0.000 C 
ATOM     36  C   UNL     1      -6.166  13.008  23.914  0.00  0.00    +0.000 C 
ENDBRANCH  28  29
ENDBRANCH   4  28
TORSDOF 6
ENDMDL
MODEL 3
REMARK VINA RESULT:      -7.1      5.022     12.181
REMARK  Name = 
REMARK  7 active torsions:
REMARK  status: ('A' for Active; 'I' for Inactive)
REMARK    1  A    between atoms: C_1  and  N_2
REMARK    2  A    between atoms: C_4  and  O_5
REMARK    3  A    between atoms: O_5  and  C_6
REMARK    4  A    between atoms: C_15  and  C_16
REMARK    5  A    between atoms: N_18  and  O_19
REMARK    6  A    between atoms: C_20  and  C_21
REMARK    7  A    between atoms: N_26  and  C_27
REMARK                            x       y       z     vdW  Elec       q    Type
REMARK                         _______ _______ _______ _____ _____    ______ ____
ROOT
ATOM      1  C   UNL     1       1.132   4.368  17.300  0.00  0.00    +0.000 C 
ATOM      2  N   UNL     1       2.378   4.044  18.002  0.00  0.00    +0.000 NA
ATOM      3  C   UNL     1       3.440   3.898  16.990  0.00  0.00    +0.000 C 
ATOM      4  C   UNL     1       4.914   4.257  17.247  0.00  0.00    +0.000 C 
ATOM      5  C   UNL     1       5.193   4.839  18.650  0.00  0.00    +0.000 C 
ATOM      6  C   UNL     1       4.068   4.543  19.683  0.00  0.00    +0.000 C 
ATOM      7  C   UNL     1       2.679   4.960  19.147  0.00  0.00    +0.000 C 
ENDROOT
BRANCH   7   8
ATOM      8  C   UNL     1       2.613   6.482  18.749  0.00  0.00    +0.000 C 
ATOM      9  O   UNL     1       3.168   6.840  17.699  0.00  0.00    +0.000 OA
ATOM     10  N   UNL     1       1.874   7.437  19.483  0.00  0.00    +0.000 N 
ATOM     11  C   UNL     1       1.983   8.807  18.950  0.00  0.00    +0.000 C 
ATOM     12  C   UNL     1       0.919   9.804  19.438  0.00  0.00    +0.000 C 
ATOM     13  N   UNL     1       0.848   9.824  20.912  0.00  0.00    +0.000 N 
ATOM     14  C   UNL     1       0.659   8.485  21.513  0.00  0.00    +0.000 C 
ATOM     15  C   UNL     1       1.637   7.393  20.939  0.00  0.00    +0.000 C 
BRANCH  13  16
ATOM     16  C   UNL     1       0.213  10.951  21.470  0.00  0.00    +0.000 A 
ATOM     17  C   UNL     1       0.408  12.272  21.031  0.00  0.00    +0.000 A 
ATOM     18  C   UNL     1      -0.324  13.352  21.567  0.00  0.00    +0.000 A 
ATOM     19  C   UNL     1      -1.276  13.140  22.559  0.00  0.00    +0.000 A 
ATOM     20  C   UNL     1      -1.476  11.851  23.033  0.00  0.00    +0.000 A 
ATOM     21  C   UNL     1      -0.738  10.782  22.498  0.00  0.00    +0.000 A 
ENDBRANCH  13  16
ENDBRANCH   7   8
BRANCH   6  22
ATOM     22  C   UNL     1       4.176   3.071  20.152  0.00  0.00    +0.000 C 
ATOM     23  O   UNL     1       3.309   2.539  20.850  0.00  0.00    +0.000 OA
ATOM     24  N   UNL     1       5.260   2.338  19.687  0.00  0.00    +0.000 N 
ATOM     25  H   UNL     1       6.148   2.809  19.611  0.00  0.00    +0.000 HD
BRANCH  24  26
ATOM     26  O   UNL     1       5.341   1.018  20.234  0.00  0.00    +0.000 OA
ATOM     27  H   UNL     1       5.287   0.441  19.440  0.00  0.00    +0.000 HD
ENDBRANCH  24  26
ENDBRANCH   6  22
BRANCH   4  28
ATOM     28  O   UNL     1       5.224   5.154  16.129  0.00  0.00    +0.000 OA
BRANCH  28  29
ATOM     29  C   UNL     1       6.300   4.743  15.376  0.00  0.00    +0.000 C 
ATOM     30  O   UNL     1       7.381   4.494  15.902  0.00  0.00    +0.000 OA
ATOM     31  N   UNL     1       6.087   4.587  13.997  0.00  0.00    +0.000 N 
ATOM     32  C   UNL     1       4.811   4.607  13.273  0.00  0.00    +0.000 C 
ATOM     33  C   UNL     1       4.610   3.339  12.404  0.00  0.00    +0.000 C 
ATOM     34  C   UNL     1       5.851   2.913  11.607  0.00  0.00    +0.000 C 
ATOM     35  C   UNL     1       7.105   2.944  12.476  0.00  0.00    +0.000 C 
ATOM     36  C   UNL     1       7.240   4.310  13.143  0.00  0.00    +0.000 C 
ENDBRANCH  28  29
ENDBRANCH   4  28
TORSDOF 6
ENDMDL
MODEL 4
REMARK VINA RESULT:      -6.9      0.717      1.122
REMARK  Name = 
REMARK  7 active torsions:
REMARK  status: ('A' for Active; 'I' for Inactive)
REMARK    1  A    between atoms: C_1  and  N_2
REMARK    2  A    between atoms: C_4  and  O_5
REMARK    3  A    between atoms: O_5  and  C_6
REMARK    4  A    between atoms: C_15  and  C_16
REMARK    5  A    between atoms: N_18  and  O_19
REMARK    6  A    between atoms: C_20  and  C_21
REMARK    7  A    between atoms: N_26  and  C_27
REMARK                            x       y       z     vdW  Elec       q    Type
REMARK                         _______ _______ _______ _____ _____    ______ ____
ROOT
ATOM      1  C   UNL     1      -1.510  11.002  18.476  0.00  0.00    +0.000 C 
ATOM      2  N   UNL     1      -1.445  12.319  19.116  0.00  0.00    +0.000 NA
ATOM      3  C   UNL     1      -2.641  12.467  19.965  0.00  0.00    +0.000 C 
ATOM      4  C   UNL     1      -2.659  13.275  21.275  0.00  0.00    +0.000 C 
ATOM      5  C   UNL     1      -1.296  13.886  21.665  0.00  0.00    +0.000 C 
ATOM      6  C   UNL     1      -0.288  13.969  20.483  0.00  0.00    +0.000 C 
ATOM      7  C   UNL     1      -0.130  12.606  19.772  0.00  0.00    +0.000 C 
ENDROOT
BRANCH   7   8
ATOM      8  C   UNL     1       0.330  11.460  20.750  0.00  0.00    +0.000 C 
ATOM      9  O   UNL     1       0.221  11.650  21.971  0.00  0.00    +0.000 OA
ATOM     10  N   UNL     1       0.771  10.196  20.299  0.00  0.00    +0.000 N 
ATOM     11  C   UNL     1       1.184   9.291  21.386  0.00  0.00    +0.000 C 
ATOM     12  C   UNL     1       1.292   7.802  21.017  0.00  0.00    +0.000 C 
ATOM     13  N   UNL     1       2.146   7.612  19.828  0.00  0.00    +0.000 N 
ATOM     14  C   UNL     1       1.738   8.435  18.669  0.00  0.00    +0.000 C 
ATOM     15  C   UNL     1       1.477   9.945  19.028  0.00  0.00    +0.000 C 
BRANCH  13  16
ATOM     16  C   UNL     1       2.632   6.303  19.637  0.00  0.00    +0.000 A 
ATOM     17  C   UNL     1       3.629   5.953  18.711  0.00  0.00    +0.000 A 
ATOM     18  C   UNL     1       4.142   4.642  18.627  0.00  0.00    +0.000 A 
ATOM     19  C   UNL     1       3.672   3.641  19.472  0.00  0.00    +0.000 A 
ATOM     20  C   UNL     1       2.670   3.947  20.382  0.00  0.00    +0.000 A 
ATOM     21  C   UNL     1       2.160   5.254  20.454  0.00  0.00    +0.000 A 
ENDBRANCH  13  16
ENDBRANCH   7   8
BRANCH   6  22
ATOM     22  C   UNL     1      -0.676  15.151  19.561  0.00  0.00    +0.000 C 
ATOM     23  O   UNL     1      -0.157  15.317  18.453  0.00  0.00    +0.000 OA
ATOM     24  N   UNL     1      -1.699  15.983  19.997  0.00  0.00    +0.000 N 
ATOM     25  H   UNL     1      -1.740  16.202  20.980  0.00  0.00    +0.000 HD
BRANCH  24  26
ATOM     26  O   UNL     1      -1.939  17.100  19.136  0.00  0.00    +0.000 OA
ATOM     27  H   UNL     1      -1.075  17.229  18.685  0.00  0.00    +0.000 HD
ENDBRANCH  24  26
ENDBRANCH   6  22
BRANCH   4  28
ATOM     28  O   UNL     1      -3.208  12.312  22.236  0.00  0.00    +0.000 OA
BRANCH  28  29
ATOM     29  C   UNL     1      -4.098  12.869  23.125  0.00  0.00    +0.000 C 
ATOM     30  O   UNL     1      -3.709  13.386  24.169  0.00  0.00    +0.000 OA
ATOM     31  N   UNL     1      -5.453  12.850  22.761  0.00  0.00    +0.000 N 
ATOM     32  C   UNL     1      -6.035  12.498  21.460  0.00  0.00    +0.000 C 
ATOM     33  C   UNL     1      -6.964  13.611  20.912  0.00  0.00    +0.000 C 
ATOM     34  C   UNL     1      -7.916  14.213  21.953  0.00  0.00    +0.000 C 
ATOM     35  C   UNL     1      -7.186  14.525  23.257  0.00  0.00    +0.000 C 
ATOM     36  C   UNL     1      -6.443  13.283  23.745  0.00  0.00    +0.000 C 
ENDBRANCH  28  29
ENDBRANCH   4  28
TORSDOF 6
ENDMDL
MODEL 5
REMARK VINA RESULT:      -6.9      1.811      2.463
REMARK  Name = 
REMARK  7 active torsions:
REMARK  status: ('A' for Active; 'I' for Inactive)
REMARK    1  A    between atoms: C_1  and  N_2
REMARK    2  A    between atoms: C_4  and  O_5
REMARK    3  A    between atoms: O_5  and  C_6
REMARK    4  A    between atoms: C_15  and  C_16
REMARK    5  A    between atoms: N_18  and  O_19
REMARK    6  A    between atoms: C_20  and  C_21
REMARK    7  A    between atoms: N_26  and  C_27
REMARK                            x       y       z     vdW  Elec       q    Type
REMARK                         _______ _______ _______ _____ _____    ______ ____
ROOT
ATOM      1  C   UNL     1      -1.332  10.848  18.834  0.00  0.00    +0.000 C 
ATOM      2  N   UNL     1      -0.408  11.928  19.191  0.00  0.00    +0.000 NA
ATOM      3  C   UNL     1      -0.985  12.654  20.337  0.00  0.00    +0.000 C 
ATOM      4  C   UNL     1      -0.136  13.326  21.431  0.00  0.00    +0.000 C 
ATOM      5  C   UNL     1       1.387  13.138  21.262  0.00  0.00    +0.000 C 
ATOM      6  C   UNL     1       1.808  12.715  19.825  0.00  0.00    +0.000 C 
ATOM      7  C   UNL     1       1.012  11.481  19.339  0.00  0.00    +0.000 C 
ENDROOT
BRANCH   7   8
ATOM      8  C   UNL     1       1.168  10.241  20.298  0.00  0.00    +0.000 C 
ATOM      9  O   UNL     1       0.999  10.414  21.515  0.00  0.00    +0.000 OA
ATOM     10  N   UNL     1       1.398   8.930  19.826  0.00  0.00    +0.000 N 
ATOM     11  C   UNL     1       1.545   7.931  20.901  0.00  0.00    +0.000 C 
ATOM     12  C   UNL     1       1.400   6.461  20.477  0.00  0.00    +0.000 C 
ATOM     13  N   UNL     1       2.296   6.145  19.347  0.00  0.00    +0.000 N 
ATOM     14  C   UNL     1       2.144   7.063  18.197  0.00  0.00    +0.000 C 
ATOM     15  C   UNL     1       2.145   8.585  18.602  0.00  0.00    +0.000 C 
BRANCH  13  16
ATOM     16  C   UNL     1       2.540   4.773  19.136  0.00  0.00    +0.000 A 
ATOM     17  C   UNL     1       2.392   4.121  17.900  0.00  0.00    +0.000 A 
ATOM     18  C   UNL     1       2.739   2.765  17.725  0.00  0.00    +0.000 A 
ATOM     19  C   UNL     1       3.249   2.022  18.786  0.00  0.00    +0.000 A 
ATOM     20  C   UNL     1       3.385   2.629  20.026  0.00  0.00    +0.000 A 
ATOM     21  C   UNL     1       3.030   3.978  20.192  0.00  0.00    +0.000 A 
ENDBRANCH  13  16
ENDBRANCH   7   8
BRANCH   6  22
ATOM     22  C   UNL     1       1.747  13.946  18.889  0.00  0.00    +0.000 C 
ATOM     23  O   UNL     1       1.782  13.840  17.660  0.00  0.00    +0.000 OA
ATOM     24  N   UNL     1       1.569  15.187  19.488  0.00  0.00    +0.000 N 
ATOM     25  H   UNL     1       2.043  15.360  20.361  0.00  0.00    +0.000 HD
BRANCH  24  26
ATOM     26  O   UNL     1       1.612  16.282  18.569  0.00  0.00    +0.000 OA
ATOM     27  H   UNL     1       1.495  15.850  17.695  0.00  0.00    +0.000 HD
ENDBRANCH  24  26
ENDBRANCH   6  22
BRANCH   4  28
ATOM     28  O   UNL     1      -0.700  12.764  22.663  0.00  0.00    +0.000 OA
BRANCH  28  29
ATOM     29  C   UNL     1      -1.306  13.702  23.469  0.00  0.00    +0.000 C 
ATOM     30  O   UNL     1      -0.683  14.675  23.882  0.00  0.00    +0.000 OA
ATOM     31  N   UNL     1      -2.666  13.507  23.755  0.00  0.00    +0.000 N 
ATOM     32  C   UNL     1      -3.589  12.544  23.144  0.00  0.00    +0.000 C 
ATOM     33  C   UNL     1      -4.862  13.229  22.583  0.00  0.00    +0.000 C 
ATOM     34  C   UNL     1      -5.478  14.282  23.512  0.00  0.00    +0.000 C 
ATOM     35  C   UNL     1      -4.410  15.210  24.083  0.00  0.00    +0.000 C 
ATOM     36  C   UNL     1      -3.301  14.386  24.734  0.00  0.00    +0.000 C 
ENDBRANCH  28  29
ENDBRANCH   4  28
TORSDOF 6
ENDMDL
MODEL 6
REMARK VINA RESULT:      -6.9      5.279     12.377
REMARK  Name = 
REMARK  7 active torsions:
REMARK  status: ('A' for Active; 'I' for Inactive)
REMARK    1  A    between atoms: C_1  and  N_2
REMARK    2  A    between atoms: C_4  and  O_5
REMARK    3  A    between atoms: O_5  and  C_6
REMARK    4  A    between atoms: C_15  and  C_16
REMARK    5  A    between atoms: N_18  and  O_19
REMARK    6  A    between atoms: C_20  and  C_21
REMARK    7  A    between atoms: N_26  and  C_27
REMARK                            x       y       z     vdW  Elec       q    Type
REMARK                         _______ _______ _______ _____ _____    ______ ____
ROOT
ATOM      1  C   UNL     1       1.302   4.262  17.456  0.00  0.00    +0.000 C 
ATOM      2  N   UNL     1       2.619   3.842  17.943  0.00  0.00    +0.000 NA
ATOM      3  C   UNL     1       3.515   3.726  16.778  0.00  0.00    +0.000 C 
ATOM      4  C   UNL     1       5.027   4.009  16.837  0.00  0.00    +0.000 C 
ATOM      5  C   UNL     1       5.534   4.479  18.218  0.00  0.00    +0.000 C 
ATOM      6  C   UNL     1       4.557   4.155  19.384  0.00  0.00    +0.000 C 
ATOM      7  C   UNL     1       3.127   4.662  19.088  0.00  0.00    +0.000 C 
ENDROOT
BRANCH   7   8
ATOM      8  C   UNL     1       3.079   6.210  18.802  0.00  0.00    +0.000 C 
ATOM      9  O   UNL     1       3.839   6.673  17.938  0.00  0.00    +0.000 OA
ATOM     10  N   UNL     1       2.146   7.076  19.416  0.00  0.00    +0.000 N 
ATOM     11  C   UNL     1       2.305   8.489  19.027  0.00  0.00    +0.000 C 
ATOM     12  C   UNL     1       1.111   9.408  19.331  0.00  0.00    +0.000 C 
ATOM     13  N   UNL     1       0.705   9.300  20.746  0.00  0.00    +0.000 N 
ATOM     14  C   UNL     1       0.451   7.910  21.184  0.00  0.00    +0.000 C 
ATOM     15  C   UNL     1       1.587   6.901  20.770  0.00  0.00    +0.000 C 
BRANCH  13  16
ATOM     16  C   UNL     1      -0.094  10.355  21.227  0.00  0.00    +0.000 A 
ATOM     17  C   UNL     1      -0.485  10.509  22.568  0.00  0.00    +0.000 A 
ATOM     18  C   UNL     1      -1.209  11.635  23.011  0.00  0.00    +0.000 A 
ATOM     19  C   UNL     1      -1.561  12.645  22.121  0.00  0.00    +0.000 A 
ATOM     20  C   UNL     1      -1.212  12.514  20.784  0.00  0.00    +0.000 A 
ATOM     21  C   UNL     1      -0.497  11.385  20.352  0.00  0.00    +0.000 A 
ENDBRANCH  13  16
ENDBRANCH   7   8
BRANCH   6  22
ATOM     22  C   UNL     1       4.661   2.651  19.737  0.00  0.00    +0.000 C 
ATOM     23  O   UNL     1       4.897   2.260  20.884  0.00  0.00    +0.000 OA
ATOM     24  N   UNL     1       4.397   1.743  18.720  0.00  0.00    +0.000 N 
ATOM     25  H   UNL     1       4.722   1.969  17.793  0.00  0.00    +0.000 HD
BRANCH  24  26
ATOM     26  O   UNL     1       4.599   0.379  19.098  0.00  0.00    +0.000 OA
ATOM     27  H   UNL     1       3.829   0.187  19.678  0.00  0.00    +0.000 HD
ENDBRANCH  24  26
ENDBRANCH   6  22
BRANCH   4  28
ATOM     28  O   UNL     1       5.214   4.970  15.745  0.00  0.00    +0.000 OA
BRANCH  28  29
ATOM     29  C   UNL     1       6.324   4.713  14.971  0.00  0.00    +0.000 C 
ATOM     30  O   UNL     1       7.445   4.671  15.470  0.00  0.00    +0.000 OA
ATOM     31  N   UNL     1       6.102   4.467  13.607  0.00  0.00    +0.000 N 
ATOM     32  C   UNL     1       4.822   4.243  12.926  0.00  0.00    +0.000 C 
ATOM     33  C   UNL     1       4.815   2.924  12.111  0.00  0.00    +0.000 C 
ATOM     34  C   UNL     1       6.087   2.679  11.289  0.00  0.00    +0.000 C 
ATOM     35  C   UNL     1       7.341   2.956  12.113  0.00  0.00    +0.000 C 
ATOM     36  C   UNL     1       7.262   4.352  12.726  0.00  0.00    +0.000 C 
ENDBRANCH  28  29
ENDBRANCH   4  28
TORSDOF 6
ENDMDL
MODEL 7
REMARK VINA RESULT:      -6.8      1.638      2.096
REMARK  Name = 
REMARK  7 active torsions:
REMARK  status: ('A' for Active; 'I' for Inactive)
REMARK    1  A    between atoms: C_1  and  N_2
REMARK    2  A    between atoms: C_4  and  O_5
REMARK    3  A    between atoms: O_5  and  C_6
REMARK    4  A    between atoms: C_15  and  C_16
REMARK    5  A    between atoms: N_18  and  O_19
REMARK    6  A    between atoms: C_20  and  C_21
REMARK    7  A    between atoms: N_26  and  C_27
REMARK                            x       y       z     vdW  Elec       q    Type
REMARK                         _______ _______ _______ _____ _____    ______ ____
ROOT
ATOM      1  C   UNL     1      -0.875  10.199  18.056  0.00  0.00    +0.000 C 
ATOM      2  N   UNL     1      -0.305  11.400  18.674  0.00  0.00    +0.000 NA
ATOM      3  C   UNL     1      -1.313  11.955  19.595  0.00  0.00    +0.000 C 
ATOM      4  C   UNL     1      -0.958  12.701  20.893  0.00  0.00    +0.000 C 
ATOM      5  C   UNL     1       0.555  12.783  21.188  0.00  0.00    +0.000 C 
ATOM      6  C   UNL     1       1.449  12.515  19.944  0.00  0.00    +0.000 C 
ATOM      7  C   UNL     1       1.065  11.192  19.241  0.00  0.00    +0.000 C 
ENDROOT
BRANCH   7   8
ATOM      8  C   UNL     1       1.148   9.947  20.202  0.00  0.00    +0.000 C 
ATOM      9  O   UNL     1       0.867  10.108  21.399  0.00  0.00    +0.000 OA
ATOM     10  N   UNL     1       1.437   8.642  19.745  0.00  0.00    +0.000 N 
ATOM     11  C   UNL     1       1.498   7.637  20.822  0.00  0.00    +0.000 C 
ATOM     12  C   UNL     1       1.411   6.169  20.377  0.00  0.00    +0.000 C 
ATOM     13  N   UNL     1       2.410   5.872  19.332  0.00  0.00    +0.000 N 
ATOM     14  C   UNL     1       2.352   6.797  18.179  0.00  0.00    +0.000 C 
ATOM     15  C   UNL     1       2.297   8.315  18.591  0.00  0.00    +0.000 C 
BRANCH  13  16
ATOM     16  C   UNL     1       2.690   4.505  19.135  0.00  0.00    +0.000 A 
ATOM     17  C   UNL     1       2.081   3.458  19.848  0.00  0.00    +0.000 A 
ATOM     18  C   UNL     1       2.332   2.104  19.545  0.00  0.00    +0.000 A 
ATOM     19  C   UNL     1       3.200   1.757  18.515  0.00  0.00    +0.000 A 
ATOM     20  C   UNL     1       3.837   2.767  17.806  0.00  0.00    +0.000 A 
ATOM     21  C   UNL     1       3.586   4.112  18.119  0.00  0.00    +0.000 A 
ENDBRANCH  13  16
ENDBRANCH   7   8
BRANCH   6  22
ATOM     22  C   UNL     1       1.449  13.766  19.033  0.00  0.00    +0.000 C 
ATOM     23  O   UNL     1       1.883  13.739  17.878  0.00  0.00    +0.000 OA
ATOM     24  N   UNL     1       0.863  14.918  19.542  0.00  0.00    +0.000 N 
ATOM     25  H   UNL     1       1.001  15.124  20.519  0.00  0.00    +0.000 HD
BRANCH  24  26
ATOM     26  O   UNL     1       0.980  16.054  18.680  0.00  0.00    +0.000 OA
ATOM     27  H   UNL     1       1.065  15.653  17.787  0.00  0.00    +0.000 HD
ENDBRANCH  24  26
ENDBRANCH   6  22
BRANCH   4  28
ATOM     28  O   UNL     1      -1.751  11.986  21.899  0.00  0.00    +0.000 OA
BRANCH  28  29
ATOM     29  C   UNL     1      -2.344  12.817  22.823  0.00  0.00    +0.000 C 
ATOM     30  O   UNL     1      -1.680  13.357  23.704  0.00  0.00    +0.000 OA
ATOM     31  N   UNL     1      -3.722  13.040  22.682  0.00  0.00    +0.000 N 
ATOM     32  C   UNL     1      -4.587  12.669  21.556  0.00  0.00    +0.000 C 
ATOM     33  C   UNL     1      -5.377  13.882  21.000  0.00  0.00    +0.000 C 
ATOM     34  C   UNL     1      -5.993  14.786  22.076  0.00  0.00    +0.000 C 
ATOM     35  C   UNL     1      -4.992  15.086  23.187  0.00  0.00    +0.000 C 
ATOM     36  C   UNL     1      -4.416  13.781  23.733  0.00  0.00    +0.000 C 
ENDBRANCH  28  29
ENDBRANCH   4  28
TORSDOF 6
ENDMDL
MODEL 8
REMARK VINA RESULT:      -6.8      2.349      4.046
REMARK  Name = 
REMARK  7 active torsions:
REMARK  status: ('A' for Active; 'I' for Inactive)
REMARK    1  A    between atoms: C_1  and  N_2
REMARK    2  A    between atoms: C_4  and  O_5
REMARK    3  A    between atoms: O_5  and  C_6
REMARK    4  A    between atoms: C_15  and  C_16
REMARK    5  A    between atoms: N_18  and  O_19
REMARK    6  A    between atoms: C_20  and  C_21
REMARK    7  A    between atoms: N_26  and  C_27
REMARK                            x       y       z     vdW  Elec       q    Type
REMARK                         _______ _______ _______ _____ _____    ______ ____
ROOT
ATOM      1  C   UNL     1       1.335  13.658  19.970  0.00  0.00    +0.000 C 
ATOM      2  N   UNL     1       0.282  12.834  20.569  0.00  0.00    +0.000 NA
ATOM      3  C   UNL     1      -0.986  13.162  19.893  0.00  0.00    +0.000 C 
ATOM      4  C   UNL     1      -2.120  12.145  19.672  0.00  0.00    +0.000 C 
ATOM      5  C   UNL     1      -1.804  10.720  20.176  0.00  0.00    +0.000 C 
ATOM      6  C   UNL     1      -0.630  10.664  21.195  0.00  0.00    +0.000 C 
ATOM      7  C   UNL     1       0.629  11.381  20.653  0.00  0.00    +0.000 C 
ENDROOT
BRANCH   7   8
ATOM      8  C   UNL     1       1.121  10.787  19.280  0.00  0.00    +0.000 C 
ATOM      9  O   UNL     1       1.093  11.519  18.279  0.00  0.00    +0.000 OA
ATOM     10  N   UNL     1       1.679   9.495  19.157  0.00  0.00    +0.000 N 
ATOM     11  C   UNL     1       2.039   9.135  17.774  0.00  0.00    +0.000 C 
ATOM     12  C   UNL     1       2.994   7.940  17.618  0.00  0.00    +0.000 C 
ATOM     13  N   UNL     1       2.490   6.761  18.348  0.00  0.00    +0.000 N 
ATOM     14  C   UNL     1       2.183   7.033  19.770  0.00  0.00    +0.000 C 
ATOM     15  C   UNL     1       1.321   8.332  19.991  0.00  0.00    +0.000 C 
BRANCH  13  16
ATOM     16  C   UNL     1       3.053   5.527  17.965  0.00  0.00    +0.000 A 
ATOM     17  C   UNL     1       4.428   5.306  17.772  0.00  0.00    +0.000 A 
ATOM     18  C   UNL     1       4.945   4.028  17.478  0.00  0.00    +0.000 A 
ATOM     19  C   UNL     1       4.098   2.929  17.371  0.00  0.00    +0.000 A 
ATOM     20  C   UNL     1       2.732   3.116  17.532  0.00  0.00    +0.000 A 
ATOM     21  C   UNL     1       2.226   4.395  17.817  0.00  0.00    +0.000 A 
ENDBRANCH  13  16
ENDBRANCH   7   8
BRANCH   6  22
ATOM     22  C   UNL     1      -1.124  11.160  22.576  0.00  0.00    +0.000 C 
ATOM     23  O   UNL     1      -0.486  10.960  23.613  0.00  0.00    +0.000 OA
ATOM     24  N   UNL     1      -2.288  11.917  22.595  0.00  0.00    +0.000 N 
ATOM     25  H   UNL     1      -3.030  11.655  21.966  0.00  0.00    +0.000 HD
BRANCH  24  26
ATOM     26  O   UNL     1      -2.730  12.262  23.912  0.00  0.00    +0.000 OA
ATOM     27  H   UNL     1      -2.233  13.087  24.108  0.00  0.00    +0.000 HD
ENDBRANCH  24  26
ENDBRANCH   6  22
BRANCH   4  28
ATOM     28  O   UNL     1      -2.371  12.254  18.231  0.00  0.00    +0.000 OA
BRANCH  28  29
ATOM     29  C   UNL     1      -3.452  11.516  17.804  0.00  0.00    +0.000 C 
ATOM     30  O   UNL     1      -3.306  10.570  17.035  0.00  0.00    +0.000 OA
ATOM     31  N   UNL     1      -4.707  11.874  18.320  0.00  0.00    +0.000 N 
ATOM     32  C   UNL     1      -5.001  12.804  19.417  0.00  0.00    +0.000 C 
ATOM     33  C   UNL     1      -5.881  12.153  20.516  0.00  0.00    +0.000 C 
ATOM     34  C   UNL     1      -7.054  11.322  19.981  0.00  0.00    +0.000 C 
ATOM     35  C   UNL     1      -6.612  10.408  18.843  0.00  0.00    +0.000 C 
ATOM     36  C   UNL     1      -5.894  11.224  17.771  0.00  0.00    +0.000 C 
ENDBRANCH  28  29
ENDBRANCH   4  28
TORSDOF 6
ENDMDL
MODEL 9
REMARK VINA RESULT:      -6.8      2.472      4.202
REMARK  Name = 
REMARK  7 active torsions:
REMARK  status: ('A' for Active; 'I' for Inactive)
REMARK    1  A    between atoms: C_1  and  N_2
REMARK    2  A    between atoms: C_4  and  O_5
REMARK    3  A    between atoms: O_5  and  C_6
REMARK    4  A    between atoms: C_15  and  C_16
REMARK    5  A    between atoms: N_18  and  O_19
REMARK    6  A    between atoms: C_20  and  C_21
REMARK    7  A    between atoms: N_26  and  C_27
REMARK                            x       y       z     vdW  Elec       q    Type
REMARK                         _______ _______ _______ _____ _____    ______ ____
ROOT
ATOM      1  C   UNL     1       2.030  12.809  19.661  0.00  0.00    +0.000 C 
ATOM      2  N   UNL     1       0.812  12.287  20.287  0.00  0.00    +0.000 NA
ATOM      3  C   UNL     1      -0.340  12.773  19.508  0.00  0.00    +0.000 C 
ATOM      4  C   UNL     1      -1.648  11.978  19.338  0.00  0.00    +0.000 C 
ATOM      5  C   UNL     1      -1.642  10.590  20.016  0.00  0.00    +0.000 C 
ATOM      6  C   UNL     1      -0.538  10.430  21.100  0.00  0.00    +0.000 C 
ATOM      7  C   UNL     1       0.856  10.814  20.553  0.00  0.00    +0.000 C 
ENDROOT
BRANCH   7   8
ATOM      8  C   UNL     1       1.265   9.974  19.285  0.00  0.00    +0.000 C 
ATOM      9  O   UNL     1       1.254  10.535  18.179  0.00  0.00    +0.000 OA
ATOM     10  N   UNL     1       1.731   8.643  19.363  0.00  0.00    +0.000 N 
ATOM     11  C   UNL     1       2.023   8.040  18.050  0.00  0.00    +0.000 C 
ATOM     12  C   UNL     1       2.891   6.771  18.072  0.00  0.00    +0.000 C 
ATOM     13  N   UNL     1       2.333   5.763  18.995  0.00  0.00    +0.000 N 
ATOM     14  C   UNL     1       2.089   6.282  20.359  0.00  0.00    +0.000 C 
ATOM     15  C   UNL     1       1.323   7.657  20.383  0.00  0.00    +0.000 C 
BRANCH  13  16
ATOM     16  C   UNL     1       2.801   4.448  18.806  0.00  0.00    +0.000 A 
ATOM     17  C   UNL     1       3.478   3.697  19.782  0.00  0.00    +0.000 A 
ATOM     18  C   UNL     1       3.842   2.351  19.570  0.00  0.00    +0.000 A 
ATOM     19  C   UNL     1       3.535   1.715  18.372  0.00  0.00    +0.000 A 
ATOM     20  C   UNL     1       2.887   2.434  17.376  0.00  0.00    +0.000 A 
ATOM     21  C   UNL     1       2.535   3.776  17.595  0.00  0.00    +0.000 A 
ENDBRANCH  13  16
ENDBRANCH   7   8
BRANCH   6  22
ATOM     22  C   UNL     1      -0.969  11.176  22.386  0.00  0.00    +0.000 C 
ATOM     23  O   UNL     1      -0.265  11.198  23.399  0.00  0.00    +0.000 OA
ATOM     24  N   UNL     1      -2.155  11.896  22.331  0.00  0.00    +0.000 N 
ATOM     25  H   UNL     1      -2.923  11.498  21.813  0.00  0.00    +0.000 HD
BRANCH  24  26
ATOM     26  O   UNL     1      -2.531  12.483  23.580  0.00  0.00    +0.000 OA
ATOM     27  H   UNL     1      -3.208  13.148  23.324  0.00  0.00    +0.000 HD
ENDBRANCH  24  26
ENDBRANCH   6  22
BRANCH   4  28
ATOM     28  O   UNL     1      -1.823  11.959  17.882  0.00  0.00    +0.000 OA
BRANCH  28  29
ATOM     29  C   UNL     1      -2.965  11.307  17.475  0.00  0.00    +0.000 C 
ATOM     30  O   UNL     1      -2.903  10.324  16.740  0.00  0.00    +0.000 OA
ATOM     31  N   UNL     1      -4.184  11.794  17.970  0.00  0.00    +0.000 N 
ATOM     32  C   UNL     1      -4.397  12.786  19.031  0.00  0.00    +0.000 C 
ATOM     33  C   UNL     1      -5.335  12.257  20.147  0.00  0.00    +0.000 C 
ATOM     34  C   UNL     1      -6.577  11.516  19.634  0.00  0.00    +0.000 C 
ATOM     35  C   UNL     1      -6.215  10.525  18.532  0.00  0.00    +0.000 C 
ATOM     36  C   UNL     1      -5.424  11.234  17.436  0.00  0.00    +0.000 C 
ENDBRANCH  28  29
ENDBRANCH   4  28
TORSDOF 6
ENDMDL
