MODEL 1
REMARK VINA RESULT:      -8.4      0.000      0.000
REMARK  Name = 
REMARK  8 active torsions:
REMARK  status: ('A' for Active; 'I' for Inactive)
REMARK    1  A    between atoms: C_1  and  C_2
REMARK    2  A    between atoms: C_4  and  O_5
REMARK    3  A    between atoms: O_5  and  C_6
REMARK    4  A    between atoms: C_6  and  C_7
REMARK    5  A    between atoms: C_11  and  O_12
REMARK    6  A    between atoms: O_12  and  C_13
REMARK    7  A    between atoms: C_20  and  N_21
REMARK    8  A    between atoms: C_26  and  C_27
REMARK                            x       y       z     vdW  Elec       q    Type
REMARK                         _______ _______ _______ _____ _____    ______ ____
ROOT
ATOM      1  C   UNL     1       1.402   3.762  20.621  0.00  0.00    +0.000 C 
ATOM      2  C   UNL     1       2.311   4.422  19.614  0.00  0.00    +0.000 A 
ATOM      3  N   UNL     1       2.215   5.810  19.571  0.00  0.00    +0.000 NA
ATOM      4  C   UNL     1       2.969   6.448  18.725  0.00  0.00    +0.000 A 
ATOM      5  C   UNL     1       3.891   5.780  17.849  0.00  0.00    +0.000 A 
ATOM      6  N   UNL     1       4.722   6.281  16.954  0.00  0.00    +0.000 NA
ATOM      7  C   UNL     1       5.346   5.171  16.422  0.00  0.00    +0.000 A 
ATOM      8  C   UNL     1       4.886   4.006  17.002  0.00  0.00    +0.000 A 
ATOM      9  N   UNL     1       3.952   4.406  17.921  0.00  0.00    +0.000 N 
ATOM     10  C   UNL     1       3.146   3.701  18.822  0.00  0.00    +0.000 A 
ATOM     11  C   UNL     1       3.227   2.200  18.886  0.00  0.00    +0.000 C 
ENDROOT
BRANCH   7  12
ATOM     12  N   UNL     1       6.352   5.283  15.389  0.00  0.00    +0.000 N 
ATOM     13  O   UNL     1       7.371   5.929  15.677  0.00  0.00    +0.000 OA
ATOM     14  O   UNL     1       6.127   4.735  14.303  0.00  0.00    +0.000 OA
ENDBRANCH   7  12
BRANCH   4  15
ATOM     15  O   UNL     1       2.973   7.795  18.574  0.00  0.00    +0.000 OA
BRANCH  15  16
ATOM     16  C   UNL     1       1.903   8.338  17.790  0.00  0.00    +0.000 C 
BRANCH  16  17
ATOM     17  C   UNL     1       1.039   9.247  18.640  0.00  0.00    +0.000 A 
ATOM     18  C   UNL     1       0.105  10.115  18.059  0.00  0.00    +0.000 A 
ATOM     19  C   UNL     1      -0.660  10.965  18.856  0.00  0.00    +0.000 A 
ATOM     20  C   UNL     1      -0.468  10.983  20.237  0.00  0.00    +0.000 A 
ATOM     21  C   UNL     1       0.496  10.166  20.833  0.00  0.00    +0.000 A 
ATOM     22  C   UNL     1       1.220   9.277  20.036  0.00  0.00    +0.000 A 
BRANCH  21  23
ATOM     23  O   UNL     1       0.592  10.298  22.183  0.00  0.00    +0.000 OA
BRANCH  23  24
ATOM     24  C   UNL     1      -0.361   9.666  23.027  0.00  0.00    +0.000 C 
ATOM     25  F   UNL     1      -1.406  10.446  23.374  0.00  0.00    +0.000 F 
ATOM     26  F   UNL     1      -0.856   8.586  22.379  0.00  0.00    +0.000 F 
ATOM     27  F   UNL     1       0.253   9.235  24.149  0.00  0.00    +0.000 F 
ENDBRANCH  23  24
ENDBRANCH  21  23
ENDBRANCH  16  17
ENDBRANCH  15  16
ENDBRANCH   4  15
TORSDOF 6
ENDMDL
MODEL 2
REMARK VINA RESULT:      -8.2      0.920      1.183
REMARK  Name = 
REMARK  8 active torsions:
REMARK  status: ('A' for Active; 'I' for Inactive)
REMARK    1  A    between atoms: C_1  and  C_2
REMARK    2  A    between atoms: C_4  and  O_5
REMARK    3  A    between atoms: O_5  and  C_6
REMARK    4  A    between atoms: C_6  and  C_7
REMARK    5  A    between atoms: C_11  and  O_12
REMARK    6  A    between atoms: O_12  and  C_13
REMARK    7  A    between atoms: C_20  and  N_21
REMARK    8  A    between atoms: C_26  and  C_27
REMARK                            x       y       z     vdW  Elec       q    Type
REMARK                         _______ _______ _______ _____ _____    ______ ____
ROOT
ATOM      1  C   UNL     1       0.984   3.493  19.959  0.00  0.00    +0.000 C 
ATOM      2  C   UNL     1       2.042   4.154  19.111  0.00  0.00    +0.000 A 
ATOM      3  N   UNL     1       2.053   5.544  19.182  0.00  0.00    +0.000 NA
ATOM      4  C   UNL     1       2.940   6.183  18.476  0.00  0.00    +0.000 A 
ATOM      5  C   UNL     1       3.899   5.514  17.642  0.00  0.00    +0.000 A 
ATOM      6  N   UNL     1       4.856   6.016  16.883  0.00  0.00    +0.000 NA
ATOM      7  C   UNL     1       5.450   4.904  16.321  0.00  0.00    +0.000 A 
ATOM      8  C   UNL     1       4.845   3.738  16.746  0.00  0.00    +0.000 A 
ATOM      9  N   UNL     1       3.850   4.139  17.598  0.00  0.00    +0.000 N 
ATOM     10  C   UNL     1       2.903   3.433  18.347  0.00  0.00    +0.000 A 
ATOM     11  C   UNL     1       2.865   1.929  18.285  0.00  0.00    +0.000 C 
ENDROOT
BRANCH   7  12
ATOM     12  N   UNL     1       6.567   5.015  15.409  0.00  0.00    +0.000 N 
ATOM     13  O   UNL     1       7.428   5.862  15.690  0.00  0.00    +0.000 OA
ATOM     14  O   UNL     1       6.582   4.268  14.423  0.00  0.00    +0.000 OA
ENDBRANCH   7  12
BRANCH   4  15
ATOM     15  O   UNL     1       3.059   7.533  18.447  0.00  0.00    +0.000 OA
BRANCH  15  16
ATOM     16  C   UNL     1       2.050   8.233  17.707  0.00  0.00    +0.000 C 
BRANCH  16  17
ATOM     17  C   UNL     1       1.612   9.472  18.460  0.00  0.00    +0.000 A 
ATOM     18  C   UNL     1       2.027  10.751  18.063  0.00  0.00    +0.000 A 
ATOM     19  C   UNL     1       1.638  11.876  18.787  0.00  0.00    +0.000 A 
ATOM     20  C   UNL     1       0.864  11.730  19.938  0.00  0.00    +0.000 A 
ATOM     21  C   UNL     1       0.484  10.461  20.383  0.00  0.00    +0.000 A 
ATOM     22  C   UNL     1       0.830   9.341  19.624  0.00  0.00    +0.000 A 
BRANCH  21  23
ATOM     23  O   UNL     1      -0.252  10.461  21.527  0.00  0.00    +0.000 OA
BRANCH  23  24
ATOM     24  C   UNL     1      -0.055   9.440  22.497  0.00  0.00    +0.000 C 
ATOM     25  F   UNL     1       1.227   9.046  22.642  0.00  0.00    +0.000 F 
ATOM     26  F   UNL     1      -0.478   9.902  23.696  0.00  0.00    +0.000 F 
ATOM     27  F   UNL     1      -0.807   8.367  22.172  0.00  0.00    +0.000 F 
ENDBRANCH  23  24
ENDBRANCH  21  23
ENDBRANCH  16  17
ENDBRANCH  15  16
ENDBRANCH   4  15
TORSDOF 6
ENDMDL
MODEL 3
REMARK VINA RESULT:      -8.1      2.491      3.083
REMARK  Name = 
REMARK  8 active torsions:
REMARK  status: ('A' for Active; 'I' for Inactive)
REMARK    1  A    between atoms: C_1  and  C_2
REMARK    2  A    between atoms: C_4  and  O_5
REMARK    3  A    between atoms: O_5  and  C_6
REMARK    4  A    between atoms: C_6  and  C_7
REMARK    5  A    between atoms: C_11  and  O_12
REMARK    6  A    between atoms: O_12  and  C_13
REMARK    7  A    between atoms: C_20  and  N_21
REMARK    8  A    between atoms: C_26  and  C_27
REMARK                            x       y       z     vdW  Elec       q    Type
REMARK                         _______ _______ _______ _____ _____    ______ ____
ROOT
ATOM      1  C   UNL     1       1.260   3.485  20.816  0.00  0.00    +0.000 C 
ATOM      2  C   UNL     1       2.246   4.116  19.865  0.00  0.00    +0.000 A 
ATOM      3  N   UNL     1       1.779   5.260  19.225  0.00  0.00    +0.000 NA
ATOM      4  C   UNL     1       2.576   5.860  18.389  0.00  0.00    +0.000 A 
ATOM      5  C   UNL     1       3.906   5.391  18.111  0.00  0.00    +0.000 A 
ATOM      6  N   UNL     1       4.827   5.889  17.307  0.00  0.00    +0.000 NA
ATOM      7  C   UNL     1       5.893   5.024  17.449  0.00  0.00    +0.000 A 
ATOM      8  C   UNL     1       5.606   4.009  18.339  0.00  0.00    +0.000 A 
ATOM      9  N   UNL     1       4.326   4.254  18.763  0.00  0.00    +0.000 N 
ATOM     10  C   UNL     1       3.484   3.593  19.664  0.00  0.00    +0.000 A 
ATOM     11  C   UNL     1       3.961   2.351  20.367  0.00  0.00    +0.000 C 
ENDROOT
BRANCH   7  12
ATOM     12  N   UNL     1       7.131   5.215  16.727  0.00  0.00    +0.000 N 
ATOM     13  O   UNL     1       8.031   4.390  16.946  0.00  0.00    +0.000 OA
ATOM     14  O   UNL     1       7.205   6.176  15.952  0.00  0.00    +0.000 OA
ENDBRANCH   7  12
BRANCH   4  15
ATOM     15  O   UNL     1       2.249   6.976  17.694  0.00  0.00    +0.000 OA
BRANCH  15  16
ATOM     16  C   UNL     1       2.667   8.218  18.275  0.00  0.00    +0.000 C 
BRANCH  16  17
ATOM     17  C   UNL     1       1.471   8.973  18.815  0.00  0.00    +0.000 A 
ATOM     18  C   UNL     1       1.174   8.985  20.184  0.00  0.00    +0.000 A 
ATOM     19  C   UNL     1       0.051   9.662  20.658  0.00  0.00    +0.000 A 
ATOM     20  C   UNL     1      -0.807  10.298  19.763  0.00  0.00    +0.000 A 
ATOM     21  C   UNL     1      -0.561  10.254  18.387  0.00  0.00    +0.000 A 
ATOM     22  C   UNL     1       0.594   9.622  17.923  0.00  0.00    +0.000 A 
BRANCH  21  23
ATOM     23  O   UNL     1      -1.487  10.898  17.627  0.00  0.00    +0.000 OA
BRANCH  23  24
ATOM     24  C   UNL     1      -2.614  10.190  17.130  0.00  0.00    +0.000 C 
ATOM     25  F   UNL     1      -3.701  10.956  16.901  0.00  0.00    +0.000 F 
ATOM     26  F   UNL     1      -2.270   9.608  15.957  0.00  0.00    +0.000 F 
ATOM     27  F   UNL     1      -2.945   9.212  18.001  0.00  0.00    +0.000 F 
ENDBRANCH  23  24
ENDBRANCH  21  23
ENDBRANCH  16  17
ENDBRANCH  15  16
ENDBRANCH   4  15
TORSDOF 6
ENDMDL
MODEL 4
REMARK VINA RESULT:      -8.0      2.366      3.063
REMARK  Name = 
REMARK  8 active torsions:
REMARK  status: ('A' for Active; 'I' for Inactive)
REMARK    1  A    between atoms: C_1  and  C_2
REMARK    2  A    between atoms: C_4  and  O_5
REMARK    3  A    between atoms: O_5  and  C_6
REMARK    4  A    between atoms: C_6  and  C_7
REMARK    5  A    between atoms: C_11  and  O_12
REMARK    6  A    between atoms: O_12  and  C_13
REMARK    7  A    between atoms: C_20  and  N_21
REMARK    8  A    between atoms: C_26  and  C_27
REMARK                            x       y       z     vdW  Elec       q    Type
REMARK                         _______ _______ _______ _____ _____    ______ ____
ROOT
ATOM      1  C   UNL     1       1.238   3.333  20.301  0.00  0.00    +0.000 C 
ATOM      2  C   UNL     1       2.216   4.041  19.398  0.00  0.00    +0.000 A 
ATOM      3  N   UNL     1       2.223   5.427  19.527  0.00  0.00    +0.000 NA
ATOM      4  C   UNL     1       3.043   6.105  18.778  0.00  0.00    +0.000 A 
ATOM      5  C   UNL     1       3.934   5.483  17.839  0.00  0.00    +0.000 A 
ATOM      6  N   UNL     1       4.821   6.026  17.027  0.00  0.00    +0.000 NA
ATOM      7  C   UNL     1       5.375   4.946  16.370  0.00  0.00    +0.000 A 
ATOM      8  C   UNL     1       4.817   3.756  16.793  0.00  0.00    +0.000 A 
ATOM      9  N   UNL     1       3.892   4.110  17.741  0.00  0.00    +0.000 N 
ATOM     10  C   UNL     1       3.016   3.362  18.535  0.00  0.00    +0.000 A 
ATOM     11  C   UNL     1       2.985   1.863  18.412  0.00  0.00    +0.000 C 
ENDROOT
BRANCH   7  12
ATOM     12  N   UNL     1       6.411   5.108  15.374  0.00  0.00    +0.000 N 
ATOM     13  O   UNL     1       6.320   4.398  14.361  0.00  0.00    +0.000 OA
ATOM     14  O   UNL     1       7.305   5.932  15.601  0.00  0.00    +0.000 OA
ENDBRANCH   7  12
BRANCH   4  15
ATOM     15  O   UNL     1       3.149   7.456  18.797  0.00  0.00    +0.000 OA
BRANCH  15  16
ATOM     16  C   UNL     1       2.311   8.162  17.873  0.00  0.00    +0.000 C 
BRANCH  16  17
ATOM     17  C   UNL     1       1.314   9.022  18.620  0.00  0.00    +0.000 A 
ATOM     18  C   UNL     1       1.178   8.938  20.013  0.00  0.00    +0.000 A 
ATOM     19  C   UNL     1       0.232   9.716  20.679  0.00  0.00    +0.000 A 
ATOM     20  C   UNL     1      -0.613  10.555  19.954  0.00  0.00    +0.000 A 
ATOM     21  C   UNL     1      -0.532  10.615  18.560  0.00  0.00    +0.000 A 
ATOM     22  C   UNL     1       0.453   9.875  17.903  0.00  0.00    +0.000 A 
BRANCH  21  23
ATOM     23  O   UNL     1      -1.427  11.458  17.978  0.00  0.00    +0.000 OA
BRANCH  23  24
ATOM     24  C   UNL     1      -2.536  10.931  17.262  0.00  0.00    +0.000 C 
ATOM     25  F   UNL     1      -2.843   9.653  17.567  0.00  0.00    +0.000 F 
ATOM     26  F   UNL     1      -3.623  11.689  17.538  0.00  0.00    +0.000 F 
ATOM     27  F   UNL     1      -2.291  11.017  15.937  0.00  0.00    +0.000 F 
ENDBRANCH  23  24
ENDBRANCH  21  23
ENDBRANCH  16  17
ENDBRANCH  15  16
ENDBRANCH   4  15
TORSDOF 6
ENDMDL
MODEL 5
REMARK VINA RESULT:      -8.0      2.421      3.100
REMARK  Name = 
REMARK  8 active torsions:
REMARK  status: ('A' for Active; 'I' for Inactive)
REMARK    1  A    between atoms: C_1  and  C_2
REMARK    2  A    between atoms: C_4  and  O_5
REMARK    3  A    between atoms: O_5  and  C_6
REMARK    4  A    between atoms: C_6  and  C_7
REMARK    5  A    between atoms: C_11  and  O_12
REMARK    6  A    between atoms: O_12  and  C_13
REMARK    7  A    between atoms: C_20  and  N_21
REMARK    8  A    between atoms: C_26  and  C_27
REMARK                            x       y       z     vdW  Elec       q    Type
REMARK                         _______ _______ _______ _____ _____    ______ ____
ROOT
ATOM      1  C   UNL     1       1.727   2.998  21.446  0.00  0.00    +0.000 C 
ATOM      2  C   UNL     1       2.332   4.028  20.524  0.00  0.00    +0.000 A 
ATOM      3  N   UNL     1       1.842   5.319  20.700  0.00  0.00    +0.000 NA
ATOM      4  C   UNL     1       2.318   6.261  19.939  0.00  0.00    +0.000 A 
ATOM      5  C   UNL     1       3.323   6.020  18.941  0.00  0.00    +0.000 A 
ATOM      6  N   UNL     1       3.907   6.862  18.109  0.00  0.00    +0.000 NA
ATOM      7  C   UNL     1       4.779   6.068  17.392  0.00  0.00    +0.000 A 
ATOM      8  C   UNL     1       4.715   4.750  17.799  0.00  0.00    +0.000 A 
ATOM      9  N   UNL     1       3.777   4.728  18.798  0.00  0.00    +0.000 N 
ATOM     10  C   UNL     1       3.276   3.700  19.604  0.00  0.00    +0.000 A 
ATOM     11  C   UNL     1       3.785   2.294  19.432  0.00  0.00    +0.000 C 
ENDROOT
BRANCH   7  12
ATOM     12  N   UNL     1       5.631   6.611  16.357  0.00  0.00    +0.000 N 
ATOM     13  O   UNL     1       6.735   7.043  16.720  0.00  0.00    +0.000 OA
ATOM     14  O   UNL     1       5.202   6.609  15.197  0.00  0.00    +0.000 OA
ENDBRANCH   7  12
BRANCH   4  15
ATOM     15  O   UNL     1       1.927   7.557  19.999  0.00  0.00    +0.000 OA
BRANCH  15  16
ATOM     16  C   UNL     1       1.265   7.954  21.206  0.00  0.00    +0.000 C 
BRANCH  16  17
ATOM     17  C   UNL     1       0.542   9.269  20.999  0.00  0.00    +0.000 A 
ATOM     18  C   UNL     1       0.127  10.051  22.086  0.00  0.00    +0.000 A 
ATOM     19  C   UNL     1      -0.563  11.243  21.876  0.00  0.00    +0.000 A 
ATOM     20  C   UNL     1      -0.881  11.644  20.579  0.00  0.00    +0.000 A 
ATOM     21  C   UNL     1      -0.526  10.853  19.482  0.00  0.00    +0.000 A 
ATOM     22  C   UNL     1       0.214   9.688  19.695  0.00  0.00    +0.000 A 
BRANCH  21  23
ATOM     23  O   UNL     1      -0.914  11.351  18.277  0.00  0.00    +0.000 OA
BRANCH  23  24
ATOM     24  C   UNL     1      -1.928  10.691  17.531  0.00  0.00    +0.000 C 
ATOM     25  F   UNL     1      -2.985  10.283  18.263  0.00  0.00    +0.000 F 
ATOM     26  F   UNL     1      -2.389  11.546  16.589  0.00  0.00    +0.000 F 
ATOM     27  F   UNL     1      -1.394   9.622  16.902  0.00  0.00    +0.000 F 
ENDBRANCH  23  24
ENDBRANCH  21  23
ENDBRANCH  16  17
ENDBRANCH  15  16
ENDBRANCH   4  15
TORSDOF 6
ENDMDL
MODEL 6
REMARK VINA RESULT:      -7.9      0.755      1.221
REMARK  Name = 
REMARK  8 active torsions:
REMARK  status: ('A' for Active; 'I' for Inactive)
REMARK    1  A    between atoms: C_1  and  C_2
REMARK    2  A    between atoms: C_4  and  O_5
REMARK    3  A    between atoms: O_5  and  C_6
REMARK    4  A    between atoms: C_6  and  C_7
REMARK    5  A    between atoms: C_11  and  O_12
REMARK    6  A    between atoms: O_12  and  C_13
REMARK    7  A    between atoms: C_20  and  N_21
REMARK    8  A    between atoms: C_26  and  C_27
REMARK                            x       y       z     vdW  Elec       q    Type
REMARK                         _______ _______ _______ _____ _____    ______ ____
ROOT
ATOM      1  C   UNL     1       1.417   2.639  20.129  0.00  0.00    +0.000 C 
ATOM      2  C   UNL     1       2.254   3.462  19.182  0.00  0.00    +0.000 A 
ATOM      3  N   UNL     1       1.804   4.767  19.000  0.00  0.00    +0.000 NA
ATOM      4  C   UNL     1       2.477   5.538  18.196  0.00  0.00    +0.000 A 
ATOM      5  C   UNL     1       3.656   5.097  17.503  0.00  0.00    +0.000 A 
ATOM      6  N   UNL     1       4.444   5.754  16.672  0.00  0.00    +0.000 NA
ATOM      7  C   UNL     1       5.406   4.827  16.325  0.00  0.00    +0.000 A 
ATOM      8  C   UNL     1       5.190   3.615  16.949  0.00  0.00    +0.000 A 
ATOM      9  N   UNL     1       4.063   3.798  17.708  0.00  0.00    +0.000 N 
ATOM     10  C   UNL     1       3.352   2.952  18.567  0.00  0.00    +0.000 A 
ATOM     11  C   UNL     1       3.813   1.535  18.778  0.00  0.00    +0.000 C 
ENDROOT
BRANCH   7  12
ATOM     12  N   UNL     1       6.482   5.150  15.415  0.00  0.00    +0.000 N 
ATOM     13  O   UNL     1       6.368   4.731  14.253  0.00  0.00    +0.000 OA
ATOM     14  O   UNL     1       7.431   5.811  15.855  0.00  0.00    +0.000 OA
ENDBRANCH   7  12
BRANCH   4  15
ATOM     15  O   UNL     1       2.149   6.824  17.924  0.00  0.00    +0.000 OA
BRANCH  15  16
ATOM     16  C   UNL     1       2.660   7.805  18.835  0.00  0.00    +0.000 C 
BRANCH  16  17
ATOM     17  C   UNL     1       1.591   8.829  19.156  0.00  0.00    +0.000 A 
ATOM     18  C   UNL     1       0.870   9.473  18.141  0.00  0.00    +0.000 A 
ATOM     19  C   UNL     1      -0.088  10.435  18.456  0.00  0.00    +0.000 A 
ATOM     20  C   UNL     1      -0.305  10.790  19.787  0.00  0.00    +0.000 A 
ATOM     21  C   UNL     1       0.440  10.201  20.812  0.00  0.00    +0.000 A 
ATOM     22  C   UNL     1       1.359   9.199  20.495  0.00  0.00    +0.000 A 
BRANCH  21  23
ATOM     23  O   UNL     1       0.140  10.653  22.060  0.00  0.00    +0.000 OA
BRANCH  23  24
ATOM     24  C   UNL     1      -0.510   9.795  22.987  0.00  0.00    +0.000 C 
ATOM     25  F   UNL     1      -0.965   8.639  22.458  0.00  0.00    +0.000 F 
ATOM     26  F   UNL     1       0.368   9.478  23.966  0.00  0.00    +0.000 F 
ATOM     27  F   UNL     1      -1.546  10.452  23.551  0.00  0.00    +0.000 F 
ENDBRANCH  23  24
ENDBRANCH  21  23
ENDBRANCH  16  17
ENDBRANCH  15  16
ENDBRANCH   4  15
TORSDOF 6
ENDMDL
MODEL 7
REMARK VINA RESULT:      -7.9      1.963      3.540
REMARK  Name = 
REMARK  8 active torsions:
REMARK  status: ('A' for Active; 'I' for Inactive)
REMARK    1  A    between atoms: C_1  and  C_2
REMARK    2  A    between atoms: C_4  and  O_5
REMARK    3  A    between atoms: O_5  and  C_6
REMARK    4  A    between atoms: C_6  and  C_7
REMARK    5  A    between atoms: C_11  and  O_12
REMARK    6  A    between atoms: O_12  and  C_13
REMARK    7  A    between atoms: C_20  and  N_21
REMARK    8  A    between atoms: C_26  and  C_27
REMARK                            x       y       z     vdW  Elec       q    Type
REMARK                         _______ _______ _______ _____ _____    ______ ____
ROOT
ATOM      1  C   UNL     1       6.284   6.590  15.923  0.00  0.00    +0.000 C 
ATOM      2  C   UNL     1       5.094   6.090  16.703  0.00  0.00    +0.000 A 
ATOM      3  N   UNL     1       4.344   7.089  17.318  0.00  0.00    +0.000 NA
ATOM      4  C   UNL     1       3.301   6.732  18.009  0.00  0.00    +0.000 A 
ATOM      5  C   UNL     1       2.897   5.361  18.153  0.00  0.00    +0.000 A 
ATOM      6  N   UNL     1       1.871   4.846  18.804  0.00  0.00    +0.000 NA
ATOM      7  C   UNL     1       1.991   3.488  18.592  0.00  0.00    +0.000 A 
ATOM      8  C   UNL     1       3.092   3.193  17.813  0.00  0.00    +0.000 A 
ATOM      9  N   UNL     1       3.668   4.405  17.532  0.00  0.00    +0.000 N 
ATOM     10  C   UNL     1       4.795   4.767  16.787  0.00  0.00    +0.000 A 
ATOM     11  C   UNL     1       5.626   3.707  16.116  0.00  0.00    +0.000 C 
ENDROOT
BRANCH   7  12
ATOM     12  N   UNL     1       1.046   2.543  19.144  0.00  0.00    +0.000 N 
ATOM     13  O   UNL     1       0.237   2.041  18.348  0.00  0.00    +0.000 OA
ATOM     14  O   UNL     1       1.108   2.306  20.356  0.00  0.00    +0.000 OA
ENDBRANCH   7  12
BRANCH   4  15
ATOM     15  O   UNL     1       2.489   7.598  18.662  0.00  0.00    +0.000 OA
BRANCH  15  16
ATOM     16  C   UNL     1       1.817   8.563  17.843  0.00  0.00    +0.000 C 
BRANCH  16  17
ATOM     17  C   UNL     1       0.918   9.437  18.692  0.00  0.00    +0.000 A 
ATOM     18  C   UNL     1      -0.064  10.253  18.113  0.00  0.00    +0.000 A 
ATOM     19  C   UNL     1      -0.861  11.073  18.909  0.00  0.00    +0.000 A 
ATOM     20  C   UNL     1      -0.656  11.116  20.287  0.00  0.00    +0.000 A 
ATOM     21  C   UNL     1       0.353  10.352  20.881  0.00  0.00    +0.000 A 
ATOM     22  C   UNL     1       1.112   9.491  20.086  0.00  0.00    +0.000 A 
BRANCH  21  23
ATOM     23  O   UNL     1       0.456  10.503  22.229  0.00  0.00    +0.000 OA
BRANCH  23  24
ATOM     24  C   UNL     1      -0.394   9.761  23.093  0.00  0.00    +0.000 C 
ATOM     25  F   UNL     1      -1.514  10.411  23.471  0.00  0.00    +0.000 F 
ATOM     26  F   UNL     1      -0.775   8.632  22.451  0.00  0.00    +0.000 F 
ATOM     27  F   UNL     1       0.296   9.403  24.197  0.00  0.00    +0.000 F 
ENDBRANCH  23  24
ENDBRANCH  21  23
ENDBRANCH  16  17
ENDBRANCH  15  16
ENDBRANCH   4  15
TORSDOF 6
ENDMDL
MODEL 8
REMARK VINA RESULT:      -7.9      1.141      1.748
REMARK  Name = 
REMARK  8 active torsions:
REMARK  status: ('A' for Active; 'I' for Inactive)
REMARK    1  A    between atoms: C_1  and  C_2
REMARK    2  A    between atoms: C_4  and  O_5
REMARK    3  A    between atoms: O_5  and  C_6
REMARK    4  A    between atoms: C_6  and  C_7
REMARK    5  A    between atoms: C_11  and  O_12
REMARK    6  A    between atoms: O_12  and  C_13
REMARK    7  A    between atoms: C_20  and  N_21
REMARK    8  A    between atoms: C_26  and  C_27
REMARK                            x       y       z     vdW  Elec       q    Type
REMARK                         _______ _______ _______ _____ _____    ______ ____
ROOT
ATOM      1  C   UNL     1       1.164   2.735  20.105  0.00  0.00    +0.000 C 
ATOM      2  C   UNL     1       2.100   3.676  19.388  0.00  0.00    +0.000 A 
ATOM      3  N   UNL     1       1.886   5.024  19.663  0.00  0.00    +0.000 NA
ATOM      4  C   UNL     1       2.657   5.895  19.080  0.00  0.00    +0.000 A 
ATOM      5  C   UNL     1       3.711   5.521  18.180  0.00  0.00    +0.000 A 
ATOM      6  N   UNL     1       4.574   6.277  17.527  0.00  0.00    +0.000 NA
ATOM      7  C   UNL     1       5.341   5.371  16.822  0.00  0.00    +0.000 A 
ATOM      8  C   UNL     1       4.934   4.073  17.056  0.00  0.00    +0.000 A 
ATOM      9  N   UNL     1       3.886   4.177  17.933  0.00  0.00    +0.000 N 
ATOM     10  C   UNL     1       3.067   3.224  18.547  0.00  0.00    +0.000 A 
ATOM     11  C   UNL     1       3.274   1.761  18.265  0.00  0.00    +0.000 C 
ENDROOT
BRANCH   7  12
ATOM     12  N   UNL     1       6.424   5.795  15.963  0.00  0.00    +0.000 N 
ATOM     13  O   UNL     1       6.313   5.523  14.758  0.00  0.00    +0.000 OA
ATOM     14  O   UNL     1       7.375   6.389  16.485  0.00  0.00    +0.000 OA
ENDBRANCH   7  12
BRANCH   4  15
ATOM     15  O   UNL     1       2.555   7.236  19.252  0.00  0.00    +0.000 OA
BRANCH  15  16
ATOM     16  C   UNL     1       1.862   7.663  20.432  0.00  0.00    +0.000 C 
BRANCH  16  17
ATOM     17  C   UNL     1       1.193   9.000  20.192  0.00  0.00    +0.000 A 
ATOM     18  C   UNL     1       0.917   9.455  18.896  0.00  0.00    +0.000 A 
ATOM     19  C   UNL     1       0.328  10.703  18.695  0.00  0.00    +0.000 A 
ATOM     20  C   UNL     1       0.048  11.523  19.786  0.00  0.00    +0.000 A 
ATOM     21  C   UNL     1       0.365  11.114  21.085  0.00  0.00    +0.000 A 
ATOM     22  C   UNL     1       0.903   9.841  21.284  0.00  0.00    +0.000 A 
BRANCH  21  23
ATOM     23  O   UNL     1       0.056  12.018  22.053  0.00  0.00    +0.000 OA
BRANCH  23  24
ATOM     24  C   UNL     1      -1.161  11.895  22.776  0.00  0.00    +0.000 C 
ATOM     25  F   UNL     1      -1.286  10.746  23.472  0.00  0.00    +0.000 F 
ATOM     26  F   UNL     1      -1.241  12.918  23.658  0.00  0.00    +0.000 F 
ATOM     27  F   UNL     1      -2.200  11.999  21.919  0.00  0.00    +0.000 F 
ENDBRANCH  23  24
ENDBRANCH  21  23
ENDBRANCH  16  17
ENDBRANCH  15  16
ENDBRANCH   4  15
TORSDOF 6
ENDMDL
MODEL 9
REMARK VINA RESULT:      -7.8      2.316      3.035
REMARK  Name = 
REMARK  8 active torsions:
REMARK  status: ('A' for Active; 'I' for Inactive)
REMARK    1  A    between atoms: C_1  and  C_2
REMARK    2  A    between atoms: C_4  and  O_5
REMARK    3  A    between atoms: O_5  and  C_6
REMARK    4  A    between atoms: C_6  and  C_7
REMARK    5  A    between atoms: C_11  and  O_12
REMARK    6  A    between atoms: O_12  and  C_13
REMARK    7  A    between atoms: C_20  and  N_21
REMARK    8  A    between atoms: C_26  and  C_27
REMARK                            x       y       z     vdW  Elec       q    Type
REMARK                         _______ _______ _______ _____ _____    ______ ____
ROOT
ATOM      1  C   UNL     1       0.828   2.522  19.298  0.00  0.00    +0.000 C 
ATOM      2  C   UNL     1       1.870   3.531  18.890  0.00  0.00    +0.000 A 
ATOM      3  N   UNL     1       1.527   4.855  19.153  0.00  0.00    +0.000 NA
ATOM      4  C   UNL     1       2.379   5.782  18.827  0.00  0.00    +0.000 A 
ATOM      5  C   UNL     1       3.649   5.493  18.220  0.00  0.00    +0.000 A 
ATOM      6  N   UNL     1       4.614   6.313  17.847  0.00  0.00    +0.000 NA
ATOM      7  C   UNL     1       5.580   5.473  17.331  0.00  0.00    +0.000 A 
ATOM      8  C   UNL     1       5.190   4.150  17.398  0.00  0.00    +0.000 A 
ATOM      9  N   UNL     1       3.947   4.172  17.975  0.00  0.00    +0.000 N 
ATOM     10  C   UNL     1       3.043   3.159  18.314  0.00  0.00    +0.000 A 
ATOM     11  C   UNL     1       3.387   1.721  18.037  0.00  0.00    +0.000 C 
ENDROOT
BRANCH   7  12
ATOM     12  N   UNL     1       6.828   5.980  16.804  0.00  0.00    +0.000 N 
ATOM     13  O   UNL     1       7.662   5.133  16.447  0.00  0.00    +0.000 OA
ATOM     14  O   UNL     1       6.975   7.207  16.748  0.00  0.00    +0.000 OA
ENDBRANCH   7  12
BRANCH   4  15
ATOM     15  O   UNL     1       2.171   7.107  19.020  0.00  0.00    +0.000 OA
BRANCH  15  16
ATOM     16  C   UNL     1       2.130   7.541  20.386  0.00  0.00    +0.000 C 
BRANCH  16  17
ATOM     17  C   UNL     1       1.179   8.710  20.537  0.00  0.00    +0.000 A 
ATOM     18  C   UNL     1       0.681   9.086  21.792  0.00  0.00    +0.000 A 
ATOM     19  C   UNL     1      -0.217  10.146  21.907  0.00  0.00    +0.000 A 
ATOM     20  C   UNL     1      -0.656  10.812  20.764  0.00  0.00    +0.000 A 
ATOM     21  C   UNL     1      -0.215  10.420  19.497  0.00  0.00    +0.000 A 
ATOM     22  C   UNL     1       0.727   9.394  19.393  0.00  0.00    +0.000 A 
BRANCH  21  23
ATOM     23  O   UNL     1      -0.737  11.141  18.469  0.00  0.00    +0.000 OA
BRANCH  23  24
ATOM     24  C   UNL     1      -1.694  10.549  17.601  0.00  0.00    +0.000 C 
ATOM     25  F   UNL     1      -1.221   9.526  16.860  0.00  0.00    +0.000 F 
ATOM     26  F   UNL     1      -2.714  10.073  18.352  0.00  0.00    +0.000 F 
ATOM     27  F   UNL     1      -2.189  11.494  16.773  0.00  0.00    +0.000 F 
ENDBRANCH  23  24
ENDBRANCH  21  23
ENDBRANCH  16  17
ENDBRANCH  15  16
ENDBRANCH   4  15
TORSDOF 6
ENDMDL
