MODEL 1
REMARK VINA RESULT:      -7.3      0.000      0.000
REMARK  Name = 
REMARK  6 active torsions:
REMARK  status: ('A' for Active; 'I' for Inactive)
REMARK    1  A    between atoms: C_1  and  S_2
REMARK    2  A    between atoms: S_2  and  N_5
REMARK    3  A    between atoms: N_5  and  C_6
REMARK    4  A    between atoms: C_9  and  C_10
REMARK    5  A    between atoms: N_12  and  C_13
REMARK    6  A    between atoms: C_17  and  N_18
REMARK                            x       y       z     vdW  Elec       q    Type
REMARK                         _______ _______ _______ _____ _____    ______ ____
ROOT
ATOM      1  C   UNL     1       3.184   6.768  18.438  0.00  0.00    +0.000 C 
ATOM      2  O   UNL     1       2.807   5.625  18.670  0.00  0.00    +0.000 OA
ATOM      3  N   UNL     1       4.406   7.121  17.884  0.00  0.00    +0.000 N 
ATOM      4  H   UNL     1       4.690   8.092  17.953  0.00  0.00    +0.000 HD
ENDROOT
BRANCH   1   8
ATOM      5  C   UNL     1       0.410   9.749  19.754  0.00  0.00    +0.000 A 
ATOM      6  C   UNL     1       0.866   8.765  20.625  0.00  0.00    +0.000 A 
ATOM      7  C   UNL     1       1.790   7.823  20.175  0.00  0.00    +0.000 A 
ATOM      8  C   UNL     1       2.276   7.868  18.860  0.00  0.00    +0.000 A 
ATOM      9  C   UNL     1       1.826   8.866  17.988  0.00  0.00    +0.000 A 
ATOM     10  C   UNL     1       0.889   9.809  18.442  0.00  0.00    +0.000 A 
BRANCH   5  11
ATOM     11  N   UNL     1      -0.511  10.717  20.245  0.00  0.00    +0.000 N 
ATOM     12  H   UNL     1      -1.026  11.245  19.537  0.00  0.00    +0.000 HD
BRANCH  11  14
ATOM     13  C   UNL     1      -0.963  13.209  21.158  0.00  0.00    +0.000 C 
ATOM     14  S   UNL     1       0.048  11.771  21.446  0.00  0.00    +0.000 S 
ATOM     15  O   UNL     1       1.404  12.103  21.064  0.00  0.00    +0.000 OA
ATOM     16  O   UNL     1      -0.252  11.233  22.753  0.00  0.00    +0.000 OA
ENDBRANCH  11  14
ENDBRANCH   5  11
ENDBRANCH   1   8
BRANCH   3  17
ATOM     17  C   UNL     1       5.383   6.195  17.430  0.00  0.00    +0.000 A 
ATOM     18  C   UNL     1       6.280   5.560  18.299  0.00  0.00    +0.000 A 
ATOM     19  C   UNL     1       7.262   4.686  17.826  0.00  0.00    +0.000 A 
ATOM     20  C   UNL     1       7.362   4.425  16.465  0.00  0.00    +0.000 A 
ATOM     21  C   UNL     1       6.459   5.036  15.588  0.00  0.00    +0.000 A 
ATOM     22  C   UNL     1       5.459   5.907  16.063  0.00  0.00    +0.000 A 
BRANCH  21  23
ATOM     23  N   UNL     1       6.577   4.773  14.148  0.00  0.00    +0.000 N 
ATOM     24  O   UNL     1       7.470   5.364  13.523  0.00  0.00    +0.000 OA
ATOM     25  O   UNL     1       5.775   3.976  13.641  0.00  0.00    +0.000 OA
ENDBRANCH  21  23
ENDBRANCH   3  17
TORSDOF 5
ENDMDL
MODEL 2
REMARK VINA RESULT:      -7.3      3.192      8.805
REMARK  Name = 
REMARK  6 active torsions:
REMARK  status: ('A' for Active; 'I' for Inactive)
REMARK    1  A    between atoms: C_1  and  S_2
REMARK    2  A    between atoms: S_2  and  N_5
REMARK    3  A    between atoms: N_5  and  C_6
REMARK    4  A    between atoms: C_9  and  C_10
REMARK    5  A    between atoms: N_12  and  C_13
REMARK    6  A    between atoms: C_17  and  N_18
REMARK                            x       y       z     vdW  Elec       q    Type
REMARK                         _______ _______ _______ _____ _____    ______ ____
ROOT
ATOM      1  C   UNL     1       1.984   6.468  20.032  0.00  0.00    +0.000 C 
ATOM      2  O   UNL     1       1.319   5.835  20.844  0.00  0.00    +0.000 OA
ATOM      3  N   UNL     1       1.942   7.843  19.846  0.00  0.00    +0.000 N 
ATOM      4  H   UNL     1       2.361   8.215  19.001  0.00  0.00    +0.000 HD
ENDROOT
BRANCH   1   8
ATOM      5  C   UNL     1       4.638   4.407  17.382  0.00  0.00    +0.000 A 
ATOM      6  C   UNL     1       5.128   5.111  18.477  0.00  0.00    +0.000 A 
ATOM      7  C   UNL     1       4.238   5.751  19.337  0.00  0.00    +0.000 A 
ATOM      8  C   UNL     1       2.853   5.677  19.121  0.00  0.00    +0.000 A 
ATOM      9  C   UNL     1       2.361   4.958  18.025  0.00  0.00    +0.000 A 
ATOM     10  C   UNL     1       3.261   4.321  17.156  0.00  0.00    +0.000 A 
BRANCH   5  11
ATOM     11  N   UNL     1       5.566   3.738  16.534  0.00  0.00    +0.000 N 
ATOM     12  H   UNL     1       6.185   3.066  16.991  0.00  0.00    +0.000 HD
BRANCH  11  14
ATOM     13  C   UNL     1       6.292   3.782  13.942  0.00  0.00    +0.000 C 
ATOM     14  S   UNL     1       6.458   4.697  15.462  0.00  0.00    +0.000 S 
ATOM     15  O   UNL     1       7.834   4.579  15.897  0.00  0.00    +0.000 OA
ATOM     16  O   UNL     1       5.827   5.987  15.312  0.00  0.00    +0.000 OA
ENDBRANCH  11  14
ENDBRANCH   5  11
ENDBRANCH   1   8
BRANCH   3  17
ATOM     17  C   UNL     1       1.167   8.738  20.630  0.00  0.00    +0.000 A 
ATOM     18  C   UNL     1       1.116   8.665  22.028  0.00  0.00    +0.000 A 
ATOM     19  C   UNL     1       0.312   9.528  22.778  0.00  0.00    +0.000 A 
ATOM     20  C   UNL     1      -0.457  10.491  22.138  0.00  0.00    +0.000 A 
ATOM     21  C   UNL     1      -0.400  10.590  20.743  0.00  0.00    +0.000 A 
ATOM     22  C   UNL     1       0.420   9.730  19.985  0.00  0.00    +0.000 A 
BRANCH  21  23
ATOM     23  N   UNL     1      -1.227  11.597  20.066  0.00  0.00    +0.000 N 
ATOM     24  O   UNL     1      -1.974  11.214  19.155  0.00  0.00    +0.000 OA
ATOM     25  O   UNL     1      -1.127  12.773  20.445  0.00  0.00    +0.000 OA
ENDBRANCH  21  23
ENDBRANCH   3  17
TORSDOF 5
ENDMDL
MODEL 3
REMARK VINA RESULT:      -7.2      1.573      1.969
REMARK  Name = 
REMARK  6 active torsions:
REMARK  status: ('A' for Active; 'I' for Inactive)
REMARK    1  A    between atoms: C_1  and  S_2
REMARK    2  A    between atoms: S_2  and  N_5
REMARK    3  A    between atoms: N_5  and  C_6
REMARK    4  A    between atoms: C_9  and  C_10
REMARK    5  A    between atoms: N_12  and  C_13
REMARK    6  A    between atoms: C_17  and  N_18
REMARK                            x       y       z     vdW  Elec       q    Type
REMARK                         _______ _______ _______ _____ _____    ______ ____
ROOT
ATOM      1  C   UNL     1       3.178   6.797  18.344  0.00  0.00    +0.000 C 
ATOM      2  O   UNL     1       2.797   5.658  18.593  0.00  0.00    +0.000 OA
ATOM      3  N   UNL     1       4.405   7.138  17.794  0.00  0.00    +0.000 N 
ATOM      4  H   UNL     1       4.691   8.110  17.849  0.00  0.00    +0.000 HD
ENDROOT
BRANCH   1   8
ATOM      5  C   UNL     1       0.746  10.158  19.395  0.00  0.00    +0.000 A 
ATOM      6  C   UNL     1       1.317  10.058  18.131  0.00  0.00    +0.000 A 
ATOM      7  C   UNL     1       2.083   8.939  17.808  0.00  0.00    +0.000 A 
ATOM      8  C   UNL     1       2.269   7.905  18.739  0.00  0.00    +0.000 A 
ATOM      9  C   UNL     1       1.684   8.002  20.007  0.00  0.00    +0.000 A 
ATOM     10  C   UNL     1       0.918   9.134  20.331  0.00  0.00    +0.000 A 
BRANCH   5  11
ATOM     11  N   UNL     1      -0.056  11.296  19.690  0.00  0.00    +0.000 N 
ATOM     12  H   UNL     1      -0.273  11.447  20.677  0.00  0.00    +0.000 HD
BRANCH  11  14
ATOM     13  C   UNL     1      -2.554  12.267  19.942  0.00  0.00    +0.000 C 
ATOM     14  S   UNL     1      -1.454  11.515  18.761  0.00  0.00    +0.000 S 
ATOM     15  O   UNL     1      -1.946  10.181  18.488  0.00  0.00    +0.000 OA
ATOM     16  O   UNL     1      -1.193  12.450  17.691  0.00  0.00    +0.000 OA
ENDBRANCH  11  14
ENDBRANCH   5  11
ENDBRANCH   1   8
BRANCH   3  17
ATOM     17  C   UNL     1       5.384   6.203  17.364  0.00  0.00    +0.000 A 
ATOM     18  C   UNL     1       6.262   5.570  18.254  0.00  0.00    +0.000 A 
ATOM     19  C   UNL     1       7.247   4.686  17.805  0.00  0.00    +0.000 A 
ATOM     20  C   UNL     1       7.369   4.413  16.449  0.00  0.00    +0.000 A 
ATOM     21  C   UNL     1       6.486   5.022  15.551  0.00  0.00    +0.000 A 
ATOM     22  C   UNL     1       5.483   5.904  16.001  0.00  0.00    +0.000 A 
BRANCH  21  23
ATOM     23  N   UNL     1       6.627   4.747  14.115  0.00  0.00    +0.000 N 
ATOM     24  O   UNL     1       7.515   5.350  13.495  0.00  0.00    +0.000 OA
ATOM     25  O   UNL     1       5.847   3.929  13.607  0.00  0.00    +0.000 OA
ENDBRANCH  21  23
ENDBRANCH   3  17
TORSDOF 5
ENDMDL
MODEL 4
REMARK VINA RESULT:      -7.1      1.858      2.473
REMARK  Name = 
REMARK  6 active torsions:
REMARK  status: ('A' for Active; 'I' for Inactive)
REMARK    1  A    between atoms: C_1  and  S_2
REMARK    2  A    between atoms: S_2  and  N_5
REMARK    3  A    between atoms: N_5  and  C_6
REMARK    4  A    between atoms: C_9  and  C_10
REMARK    5  A    between atoms: N_12  and  C_13
REMARK    6  A    between atoms: C_17  and  N_18
REMARK                            x       y       z     vdW  Elec       q    Type
REMARK                         _______ _______ _______ _____ _____    ______ ____
ROOT
ATOM      1  C   UNL     1       2.232   7.044  19.664  0.00  0.00    +0.000 C 
ATOM      2  O   UNL     1       2.212   6.069  20.407  0.00  0.00    +0.000 OA
ATOM      3  N   UNL     1       2.912   7.131  18.458  0.00  0.00    +0.000 N 
ATOM      4  H   UNL     1       3.037   8.053  18.055  0.00  0.00    +0.000 HD
ENDROOT
BRANCH   1   8
ATOM      5  C   UNL     1       0.366  10.690  20.906  0.00  0.00    +0.000 A 
ATOM      6  C   UNL     1       0.642  10.451  19.564  0.00  0.00    +0.000 A 
ATOM      7  C   UNL     1       1.227   9.244  19.186  0.00  0.00    +0.000 A 
ATOM      8  C   UNL     1       1.522   8.261  20.143  0.00  0.00    +0.000 A 
ATOM      9  C   UNL     1       1.232   8.498  21.491  0.00  0.00    +0.000 A 
ATOM     10  C   UNL     1       0.650   9.718  21.870  0.00  0.00    +0.000 A 
BRANCH   5  11
ATOM     11  N   UNL     1      -0.258  11.919  21.263  0.00  0.00    +0.000 N 
ATOM     12  H   UNL     1      -1.204  12.062  20.904  0.00  0.00    +0.000 HD
BRANCH  11  14
ATOM     13  C   UNL     1      -0.053  14.397  22.296  0.00  0.00    +0.000 C 
ATOM     14  S   UNL     1       0.649  13.333  21.052  0.00  0.00    +0.000 S 
ATOM     15  O   UNL     1       0.257  13.851  19.758  0.00  0.00    +0.000 OA
ATOM     16  O   UNL     1       2.036  13.080  21.369  0.00  0.00    +0.000 OA
ENDBRANCH  11  14
ENDBRANCH   5  11
ENDBRANCH   1   8
BRANCH   3  17
ATOM     17  C   UNL     1       3.635   6.064  17.862  0.00  0.00    +0.000 A 
ATOM     18  C   UNL     1       3.053   4.818  17.593  0.00  0.00    +0.000 A 
ATOM     19  C   UNL     1       3.794   3.767  17.047  0.00  0.00    +0.000 A 
ATOM     20  C   UNL     1       5.140   3.946  16.753  0.00  0.00    +0.000 A 
ATOM     21  C   UNL     1       5.729   5.191  16.997  0.00  0.00    +0.000 A 
ATOM     22  C   UNL     1       4.982   6.258  17.535  0.00  0.00    +0.000 A 
BRANCH  21  23
ATOM     23  N   UNL     1       7.156   5.374  16.703  0.00  0.00    +0.000 N 
ATOM     24  O   UNL     1       7.526   6.485  16.295  0.00  0.00    +0.000 OA
ATOM     25  O   UNL     1       7.909   4.404  16.877  0.00  0.00    +0.000 OA
ENDBRANCH  21  23
ENDBRANCH   3  17
TORSDOF 5
ENDMDL
MODEL 5
REMARK VINA RESULT:      -7.1      0.705      1.470
REMARK  Name = 
REMARK  6 active torsions:
REMARK  status: ('A' for Active; 'I' for Inactive)
REMARK    1  A    between atoms: C_1  and  S_2
REMARK    2  A    between atoms: S_2  and  N_5
REMARK    3  A    between atoms: N_5  and  C_6
REMARK    4  A    between atoms: C_9  and  C_10
REMARK    5  A    between atoms: N_12  and  C_13
REMARK    6  A    between atoms: C_17  and  N_18
REMARK                            x       y       z     vdW  Elec       q    Type
REMARK                         _______ _______ _______ _____ _____    ______ ____
ROOT
ATOM      1  C   UNL     1       3.241   6.664  18.641  0.00  0.00    +0.000 C 
ATOM      2  O   UNL     1       3.057   5.550  19.119  0.00  0.00    +0.000 OA
ATOM      3  N   UNL     1       4.326   7.044  17.865  0.00  0.00    +0.000 N 
ATOM      4  H   UNL     1       4.478   8.036  17.723  0.00  0.00    +0.000 HD
ENDROOT
BRANCH   1   8
ATOM      5  C   UNL     1       0.540   9.859  19.542  0.00  0.00    +0.000 A 
ATOM      6  C   UNL     1       1.078   9.718  18.267  0.00  0.00    +0.000 A 
ATOM      7  C   UNL     1       1.935   8.652  17.996  0.00  0.00    +0.000 A 
ATOM      8  C   UNL     1       2.245   7.712  18.990  0.00  0.00    +0.000 A 
ATOM      9  C   UNL     1       1.692   7.848  20.269  0.00  0.00    +0.000 A 
ATOM     10  C   UNL     1       0.836   8.927  20.541  0.00  0.00    +0.000 A 
BRANCH   5  11
ATOM     11  N   UNL     1      -0.355  10.939  19.786  0.00  0.00    +0.000 N 
ATOM     12  H   UNL     1      -0.871  11.285  18.974  0.00  0.00    +0.000 HD
BRANCH  11  14
ATOM     13  C   UNL     1      -0.729  12.136  22.168  0.00  0.00    +0.000 C 
ATOM     14  S   UNL     1       0.242  12.247  20.679  0.00  0.00    +0.000 S 
ATOM     15  O   UNL     1      -0.187  13.429  19.962  0.00  0.00    +0.000 OA
ATOM     16  O   UNL     1       1.633  12.030  21.001  0.00  0.00    +0.000 OA
ENDBRANCH  11  14
ENDBRANCH   5  11
ENDBRANCH   1   8
BRANCH   3  17
ATOM     17  C   UNL     1       5.361   6.168  17.443  0.00  0.00    +0.000 A 
ATOM     18  C   UNL     1       6.286   5.610  18.337  0.00  0.00    +0.000 A 
ATOM     19  C   UNL     1       7.324   4.785  17.896  0.00  0.00    +0.000 A 
ATOM     20  C   UNL     1       7.454   4.496  16.544  0.00  0.00    +0.000 A 
ATOM     21  C   UNL     1       6.526   5.029  15.642  0.00  0.00    +0.000 A 
ATOM     22  C   UNL     1       5.470   5.850  16.085  0.00  0.00    +0.000 A 
BRANCH  21  23
ATOM     23  N   UNL     1       6.675   4.737  14.211  0.00  0.00    +0.000 N 
ATOM     24  O   UNL     1       5.946   3.864  13.719  0.00  0.00    +0.000 OA
ATOM     25  O   UNL     1       7.524   5.381  13.578  0.00  0.00    +0.000 OA
ENDBRANCH  21  23
ENDBRANCH   3  17
TORSDOF 5
ENDMDL
MODEL 6
REMARK VINA RESULT:      -7.1      2.013      2.373
REMARK  Name = 
REMARK  6 active torsions:
REMARK  status: ('A' for Active; 'I' for Inactive)
REMARK    1  A    between atoms: C_1  and  S_2
REMARK    2  A    between atoms: S_2  and  N_5
REMARK    3  A    between atoms: N_5  and  C_6
REMARK    4  A    between atoms: C_9  and  C_10
REMARK    5  A    between atoms: N_12  and  C_13
REMARK    6  A    between atoms: C_17  and  N_18
REMARK                            x       y       z     vdW  Elec       q    Type
REMARK                         _______ _______ _______ _____ _____    ______ ____
ROOT
ATOM      1  C   UNL     1       2.412   8.037  18.102  0.00  0.00    +0.000 C 
ATOM      2  O   UNL     1       2.699   8.422  16.974  0.00  0.00    +0.000 OA
ATOM      3  N   UNL     1       2.749   6.807  18.650  0.00  0.00    +0.000 N 
ATOM      4  H   UNL     1       2.266   6.520  19.493  0.00  0.00    +0.000 HD
ENDROOT
BRANCH   1   8
ATOM      5  C   UNL     1      -0.133  10.436  20.569  0.00  0.00    +0.000 A 
ATOM      6  C   UNL     1       0.636   9.415  21.118  0.00  0.00    +0.000 A 
ATOM      7  C   UNL     1       1.476   8.667  20.294  0.00  0.00    +0.000 A 
ATOM      8  C   UNL     1       1.566   8.945  18.921  0.00  0.00    +0.000 A 
ATOM      9  C   UNL     1       0.801   9.981  18.373  0.00  0.00    +0.000 A 
ATOM     10  C   UNL     1      -0.049  10.728  19.205  0.00  0.00    +0.000 A 
BRANCH   5  11
ATOM     11  N   UNL     1      -0.960  11.204  21.436  0.00  0.00    +0.000 N 
ATOM     12  H   UNL     1      -1.968  11.106  21.297  0.00  0.00    +0.000 HD
BRANCH  11  14
ATOM     13  C   UNL     1      -1.291  13.201  23.211  0.00  0.00    +0.000 C 
ATOM     14  S   UNL     1      -0.569  12.841  21.624  0.00  0.00    +0.000 S 
ATOM     15  O   UNL     1      -1.345  13.538  20.619  0.00  0.00    +0.000 OA
ATOM     16  O   UNL     1       0.864  12.999  21.706  0.00  0.00    +0.000 OA
ENDBRANCH  11  14
ENDBRANCH   5  11
ENDBRANCH   1   8
BRANCH   3  17
ATOM     17  C   UNL     1       3.549   5.829  18.001  0.00  0.00    +0.000 A 
ATOM     18  C   UNL     1       3.046   4.579  17.617  0.00  0.00    +0.000 A 
ATOM     19  C   UNL     1       3.862   3.614  17.020  0.00  0.00    +0.000 A 
ATOM     20  C   UNL     1       5.204   3.886  16.790  0.00  0.00    +0.000 A 
ATOM     21  C   UNL     1       5.716   5.138  17.149  0.00  0.00    +0.000 A 
ATOM     22  C   UNL     1       4.893   6.118  17.739  0.00  0.00    +0.000 A 
BRANCH  21  23
ATOM     23  N   UNL     1       7.139   5.417  16.922  0.00  0.00    +0.000 N 
ATOM     24  O   UNL     1       7.940   4.480  17.048  0.00  0.00    +0.000 OA
ATOM     25  O   UNL     1       7.457   6.577  16.619  0.00  0.00    +0.000 OA
ENDBRANCH  21  23
ENDBRANCH   3  17
TORSDOF 5
ENDMDL
MODEL 7
REMARK VINA RESULT:      -7.1      6.303      8.610
REMARK  Name = 
REMARK  6 active torsions:
REMARK  status: ('A' for Active; 'I' for Inactive)
REMARK    1  A    between atoms: C_1  and  S_2
REMARK    2  A    between atoms: S_2  and  N_5
REMARK    3  A    between atoms: N_5  and  C_6
REMARK    4  A    between atoms: C_9  and  C_10
REMARK    5  A    between atoms: N_12  and  C_13
REMARK    6  A    between atoms: C_17  and  N_18
REMARK                            x       y       z     vdW  Elec       q    Type
REMARK                         _______ _______ _______ _____ _____    ______ ____
ROOT
ATOM      1  C   UNL     1       8.272   9.165  18.252  0.00  0.00    +0.000 C 
ATOM      2  O   UNL     1       7.904  10.018  17.452  0.00  0.00    +0.000 OA
ATOM      3  N   UNL     1       9.153   9.367  19.304  0.00  0.00    +0.000 N 
ATOM      4  H   UNL     1       9.551   8.547  19.747  0.00  0.00    +0.000 HD
ENDROOT
BRANCH   1   8
ATOM      5  C   UNL     1       6.615   5.275  17.588  0.00  0.00    +0.000 A 
ATOM      6  C   UNL     1       6.240   6.355  16.796  0.00  0.00    +0.000 A 
ATOM      7  C   UNL     1       6.815   7.605  17.019  0.00  0.00    +0.000 A 
ATOM      8  C   UNL     1       7.782   7.780  18.021  0.00  0.00    +0.000 A 
ATOM      9  C   UNL     1       8.168   6.690  18.809  0.00  0.00    +0.000 A 
ATOM     10  C   UNL     1       7.581   5.433  18.587  0.00  0.00    +0.000 A 
BRANCH   5  11
ATOM     11  N   UNL     1       6.035   4.003  17.322  0.00  0.00    +0.000 N 
ATOM     12  H   UNL     1       5.853   3.791  16.339  0.00  0.00    +0.000 HD
BRANCH  11  14
ATOM     13  C   UNL     1       3.729   5.053  18.233  0.00  0.00    +0.000 C 
ATOM     14  S   UNL     1       4.696   3.557  18.258  0.00  0.00    +0.000 S 
ATOM     15  O   UNL     1       5.207   3.387  19.601  0.00  0.00    +0.000 OA
ATOM     16  O   UNL     1       3.961   2.504  17.596  0.00  0.00    +0.000 OA
ENDBRANCH  11  14
ENDBRANCH   5  11
ENDBRANCH   1   8
BRANCH   3  17
ATOM     17  C   UNL     1       9.710  10.625  19.658  0.00  0.00    +0.000 A 
ATOM     18  C   UNL     1       9.475  11.230  20.901  0.00  0.00    +0.000 A 
ATOM     19  C   UNL     1       9.996  12.487  21.212  0.00  0.00    +0.000 A 
ATOM     20  C   UNL     1      10.773  13.168  20.283  0.00  0.00    +0.000 A 
ATOM     21  C   UNL     1      11.033  12.567  19.046  0.00  0.00    +0.000 A 
ATOM     22  C   UNL     1      10.520  11.292  18.733  0.00  0.00    +0.000 A 
BRANCH  21  23
ATOM     23  N   UNL     1      11.838  13.294  18.057  0.00  0.00    +0.000 N 
ATOM     24  O   UNL     1      11.980  12.782  16.937  0.00  0.00    +0.000 OA
ATOM     25  O   UNL     1      12.332  14.378  18.401  0.00  0.00    +0.000 OA
ENDBRANCH  21  23
ENDBRANCH   3  17
TORSDOF 5
ENDMDL
MODEL 8
REMARK VINA RESULT:      -7.1      5.852      8.728
REMARK  Name = 
REMARK  6 active torsions:
REMARK  status: ('A' for Active; 'I' for Inactive)
REMARK    1  A    between atoms: C_1  and  S_2
REMARK    2  A    between atoms: S_2  and  N_5
REMARK    3  A    between atoms: N_5  and  C_6
REMARK    4  A    between atoms: C_9  and  C_10
REMARK    5  A    between atoms: N_12  and  C_13
REMARK    6  A    between atoms: C_17  and  N_18
REMARK                            x       y       z     vdW  Elec       q    Type
REMARK                         _______ _______ _______ _____ _____    ______ ____
ROOT
ATOM      1  C   UNL     1       8.129   8.772  18.055  0.00  0.00    +0.000 C 
ATOM      2  O   UNL     1       7.849   9.507  17.114  0.00  0.00    +0.000 OA
ATOM      3  N   UNL     1       8.972   9.090  19.109  0.00  0.00    +0.000 N 
ATOM      4  H   UNL     1       9.300   8.330  19.694  0.00  0.00    +0.000 HD
ENDROOT
BRANCH   1   8
ATOM      5  C   UNL     1       6.272   4.917  17.941  0.00  0.00    +0.000 A 
ATOM      6  C   UNL     1       5.896   5.917  17.050  0.00  0.00    +0.000 A 
ATOM      7  C   UNL     1       6.536   7.155  17.094  0.00  0.00    +0.000 A 
ATOM      8  C   UNL     1       7.568   7.395  18.014  0.00  0.00    +0.000 A 
ATOM      9  C   UNL     1       7.954   6.384  18.901  0.00  0.00    +0.000 A 
ATOM     10  C   UNL     1       7.301   5.141  18.860  0.00  0.00    +0.000 A 
BRANCH   5  11
ATOM     11  N   UNL     1       5.623   3.653  17.857  0.00  0.00    +0.000 N 
ATOM     12  H   UNL     1       5.253   3.400  16.939  0.00  0.00    +0.000 HD
BRANCH  11  14
ATOM     13  C   UNL     1       3.286   2.345  18.129  0.00  0.00    +0.000 C 
ATOM     14  S   UNL     1       4.477   3.296  19.050  0.00  0.00    +0.000 S 
ATOM     15  O   UNL     1       3.863   4.564  19.384  0.00  0.00    +0.000 OA
ATOM     16  O   UNL     1       5.069   2.460  20.068  0.00  0.00    +0.000 OA
ENDBRANCH  11  14
ENDBRANCH   5  11
ENDBRANCH   1   8
BRANCH   3  17
ATOM     17  C   UNL     1       9.587  10.357  19.295  0.00  0.00    +0.000 A 
ATOM     18  C   UNL     1      10.491  10.898  18.371  0.00  0.00    +0.000 A 
ATOM     19  C   UNL     1      11.118  12.127  18.595  0.00  0.00    +0.000 A 
ATOM     20  C   UNL     1      10.847  12.845  19.752  0.00  0.00    +0.000 A 
ATOM     21  C   UNL     1       9.930  12.326  20.674  0.00  0.00    +0.000 A 
ATOM     22  C   UNL     1       9.285  11.094  20.445  0.00  0.00    +0.000 A 
BRANCH  21  23
ATOM     23  N   UNL     1       9.657  13.077  21.906  0.00  0.00    +0.000 N 
ATOM     24  O   UNL     1      10.077  14.241  21.979  0.00  0.00    +0.000 OA
ATOM     25  O   UNL     1       9.024  12.501  22.803  0.00  0.00    +0.000 OA
ENDBRANCH  21  23
ENDBRANCH   3  17
TORSDOF 5
ENDMDL
MODEL 9
REMARK VINA RESULT:      -7.1      3.191      8.718
REMARK  Name = 
REMARK  6 active torsions:
REMARK  status: ('A' for Active; 'I' for Inactive)
REMARK    1  A    between atoms: C_1  and  S_2
REMARK    2  A    between atoms: S_2  and  N_5
REMARK    3  A    between atoms: N_5  and  C_6
REMARK    4  A    between atoms: C_9  and  C_10
REMARK    5  A    between atoms: N_12  and  C_13
REMARK    6  A    between atoms: C_17  and  N_18
REMARK                            x       y       z     vdW  Elec       q    Type
REMARK                         _______ _______ _______ _____ _____    ______ ____
ROOT
ATOM      1  C   UNL     1       2.018   6.306  20.034  0.00  0.00    +0.000 C 
ATOM      2  O   UNL     1       1.294   5.705  20.821  0.00  0.00    +0.000 OA
ATOM      3  N   UNL     1       2.049   7.680  19.848  0.00  0.00    +0.000 N 
ATOM      4  H   UNL     1       2.516   8.032  19.020  0.00  0.00    +0.000 HD
ENDROOT
BRANCH   1   8
ATOM      5  C   UNL     1       4.659   4.123  17.469  0.00  0.00    +0.000 A 
ATOM      6  C   UNL     1       5.153   4.865  18.537  0.00  0.00    +0.000 A 
ATOM      7  C   UNL     1       4.267   5.545  19.371  0.00  0.00    +0.000 A 
ATOM      8  C   UNL     1       2.882   5.473  19.155  0.00  0.00    +0.000 A 
ATOM      9  C   UNL     1       2.386   4.716  18.088  0.00  0.00    +0.000 A 
ATOM     10  C   UNL     1       3.282   4.039  17.245  0.00  0.00    +0.000 A 
BRANCH   5  11
ATOM     11  N   UNL     1       5.582   3.415  16.649  0.00  0.00    +0.000 N 
ATOM     12  H   UNL     1       6.189   2.749  17.131  0.00  0.00    +0.000 HD
BRANCH  11  14
ATOM     13  C   UNL     1       5.514   5.807  15.416  0.00  0.00    +0.000 C 
ATOM     14  S   UNL     1       6.495   4.326  15.553  0.00  0.00    +0.000 S 
ATOM     15  O   UNL     1       6.400   3.619  14.293  0.00  0.00    +0.000 OA
ATOM     16  O   UNL     1       7.776   4.655  16.132  0.00  0.00    +0.000 OA
ENDBRANCH  11  14
ENDBRANCH   5  11
ENDBRANCH   1   8
BRANCH   3  17
ATOM     17  C   UNL     1       1.288   8.612  20.603  0.00  0.00    +0.000 A 
ATOM     18  C   UNL     1       1.267   8.608  22.005  0.00  0.00    +0.000 A 
ATOM     19  C   UNL     1       0.478   9.506  22.728  0.00  0.00    +0.000 A 
ATOM     20  C   UNL     1      -0.307  10.436  22.058  0.00  0.00    +0.000 A 
ATOM     21  C   UNL     1      -0.280  10.466  20.659  0.00  0.00    +0.000 A 
ATOM     22  C   UNL     1       0.526   9.571  19.927  0.00  0.00    +0.000 A 
BRANCH  21  23
ATOM     23  N   UNL     1      -1.123  11.437  19.951  0.00  0.00    +0.000 N 
ATOM     24  O   UNL     1      -1.025  12.631  20.271  0.00  0.00    +0.000 OA
ATOM     25  O   UNL     1      -1.888  11.006  19.076  0.00  0.00    +0.000 OA
ENDBRANCH  21  23
ENDBRANCH   3  17
TORSDOF 5
ENDMDL
