MODEL 1
REMARK VINA RESULT:      -8.5      0.000      0.000
REMARK  Name = 
REMARK  9 active torsions:
REMARK  status: ('A' for Active; 'I' for Inactive)
REMARK    1  A    between atoms: C_1  and  N_2
REMARK    2  A    between atoms: C_3  and  C_5
REMARK    3  A    between atoms: C_5  and  N_6
REMARK    4  A    between atoms: C_5  and  C_17
REMARK    5  A    between atoms: C_7  and  O_9
REMARK    6  A    between atoms: O_9  and  C_10
REMARK    7  A    between atoms: C_10  and  C_11
REMARK    8  A    between atoms: C_21  and  N_22
REMARK    9  A    between atoms: C_23  and  C_25
REMARK                            x       y       z     vdW  Elec       q    Type
REMARK                         _______ _______ _______ _____ _____    ______ ____
ROOT
ATOM      1  C   UNL     1       6.531   6.024  16.988  0.00  0.00    +0.000 C 
ENDROOT
BRANCH   1   2
ATOM      2  C   UNL     1       5.069   6.168  17.390  0.00  0.00    +0.000 A 
ATOM      3  C   UNL     1       4.350   7.331  17.080  0.00  0.00    +0.000 A 
ATOM      4  C   UNL     1       3.052   7.503  17.552  0.00  0.00    +0.000 A 
ATOM      5  C   UNL     1       2.456   6.521  18.345  0.00  0.00    +0.000 A 
ATOM      6  C   UNL     1       3.141   5.349  18.662  0.00  0.00    +0.000 A 
ATOM      7  C   UNL     1       4.446   5.175  18.172  0.00  0.00    +0.000 A 
BRANCH   6   8
ATOM      8  N   UNL     1       2.604   4.325  19.472  0.00  0.00    +0.000 N 
ATOM      9  C   UNL     1       1.729   3.319  19.095  0.00  0.00    +0.000 C 
ATOM     10  O   UNL     1       1.249   3.166  17.973  0.00  0.00    +0.000 OA
ATOM     11  H   UNL     1       2.896   4.313  20.444  0.00  0.00    +0.000 HD
BRANCH   9  12
ATOM     12  C   UNL     1       1.269   2.416  20.227  0.00  0.00    +0.000 C 
ATOM     13 CL   UNL     1       2.188   2.693  21.724  0.00  0.00    +0.000 Cl
ENDBRANCH   9  12
ENDBRANCH   6   8
ENDBRANCH   1   2
BRANCH   1  16
ATOM     14  C   UNL     1       5.581   3.938  13.917  0.00  0.00    +0.000 C 
ATOM     15  N   UNL     1       5.603   4.594  15.199  0.00  0.00    +0.000 N 
ATOM     16  C   UNL     1       6.691   5.352  15.597  0.00  0.00    +0.000 C 
ATOM     17  O   UNL     1       7.678   5.517  14.881  0.00  0.00    +0.000 OA
ATOM     18  H   UNL     1       4.839   4.430  15.843  0.00  0.00    +0.000 HD
ENDBRANCH   1  16
BRANCH   1  19
ATOM     19  N   UNL     1       7.150   7.338  16.986  0.00  0.00    +0.000 N 
ATOM     20  C   UNL     1       7.999   7.751  17.958  0.00  0.00    +0.000 C 
ATOM     21  O   UNL     1       8.308   7.085  18.933  0.00  0.00    +0.000 OA
ATOM     22  H   UNL     1       7.073   7.925  16.166  0.00  0.00    +0.000 HD
BRANCH  20  23
ATOM     23  O   UNL     1       8.383   9.023  17.709  0.00  0.00    +0.000 OA
BRANCH  23  24
ATOM     24  C   UNL     1       8.969   9.720  18.819  0.00  0.00    +0.000 C 
BRANCH  24  25
ATOM     25  C   UNL     1       9.591  11.030  18.402  0.00  0.00    +0.000 A 
ATOM     26  C   UNL     1      10.986  11.170  18.347  0.00  0.00    +0.000 A 
ATOM     27  C   UNL     1      11.564  12.356  17.889  0.00  0.00    +0.000 A 
ATOM     28  C   UNL     1      10.755  13.413  17.481  0.00  0.00    +0.000 A 
ATOM     29  C   UNL     1       9.368  13.288  17.534  0.00  0.00    +0.000 A 
ATOM     30  C   UNL     1       8.788  12.102  17.992  0.00  0.00    +0.000 A 
ENDBRANCH  24  25
ENDBRANCH  23  24
ENDBRANCH  20  23
ENDBRANCH   1  19
TORSDOF 8
ENDMDL
MODEL 2
REMARK VINA RESULT:      -8.3      4.551      6.291
REMARK  Name = 
REMARK  9 active torsions:
REMARK  status: ('A' for Active; 'I' for Inactive)
REMARK    1  A    between atoms: C_1  and  N_2
REMARK    2  A    between atoms: C_3  and  C_5
REMARK    3  A    between atoms: C_5  and  N_6
REMARK    4  A    between atoms: C_5  and  C_17
REMARK    5  A    between atoms: C_7  and  O_9
REMARK    6  A    between atoms: O_9  and  C_10
REMARK    7  A    between atoms: C_10  and  C_11
REMARK    8  A    between atoms: C_21  and  N_22
REMARK    9  A    between atoms: C_23  and  C_25
REMARK                            x       y       z     vdW  Elec       q    Type
REMARK                         _______ _______ _______ _____ _____    ______ ____
ROOT
ATOM      1  C   UNL     1       4.997   4.667  19.038  0.00  0.00    +0.000 C 
ENDROOT
BRANCH   1   2
ATOM      2  C   UNL     1       3.972   5.777  18.847  0.00  0.00    +0.000 A 
ATOM      3  C   UNL     1       3.913   6.502  17.648  0.00  0.00    +0.000 A 
ATOM      4  C   UNL     1       3.054   7.589  17.524  0.00  0.00    +0.000 A 
ATOM      5  C   UNL     1       2.247   7.974  18.596  0.00  0.00    +0.000 A 
ATOM      6  C   UNL     1       2.275   7.268  19.798  0.00  0.00    +0.000 A 
ATOM      7  C   UNL     1       3.134   6.163  19.913  0.00  0.00    +0.000 A 
BRANCH   6   8
ATOM      8  N   UNL     1       1.499   7.613  20.925  0.00  0.00    +0.000 N 
ATOM      9  C   UNL     1       0.953   8.849  21.230  0.00  0.00    +0.000 C 
ATOM     10  O   UNL     1       1.080   9.876  20.565  0.00  0.00    +0.000 OA
ATOM     11  H   UNL     1       1.306   6.871  21.590  0.00  0.00    +0.000 HD
BRANCH   9  12
ATOM     12  C   UNL     1       0.235   8.917  22.567  0.00  0.00    +0.000 C 
ATOM     13 CL   UNL     1      -0.707  10.414  22.750  0.00  0.00    +0.000 Cl
ENDBRANCH   9  12
ENDBRANCH   6   8
ENDBRANCH   1   2
BRANCH   1  16
ATOM     14  C   UNL     1       2.482   1.796  18.695  0.00  0.00    +0.000 C 
ATOM     15  N   UNL     1       3.195   3.041  18.571  0.00  0.00    +0.000 N 
ATOM     16  C   UNL     1       4.326   3.297  19.327  0.00  0.00    +0.000 C 
ATOM     17  O   UNL     1       4.788   2.478  20.123  0.00  0.00    +0.000 OA
ATOM     18  H   UNL     1       2.812   3.765  17.976  0.00  0.00    +0.000 HD
ENDBRANCH   1  16
BRANCH   1  19
ATOM     19  N   UNL     1       5.826   4.581  17.848  0.00  0.00    +0.000 N 
ATOM     20  C   UNL     1       7.178   4.658  17.889  0.00  0.00    +0.000 C 
ATOM     21  O   UNL     1       7.829   4.829  18.907  0.00  0.00    +0.000 OA
ATOM     22  H   UNL     1       5.409   4.310  16.968  0.00  0.00    +0.000 HD
BRANCH  20  23
ATOM     23  O   UNL     1       7.670   4.586  16.632  0.00  0.00    +0.000 OA
BRANCH  23  24
ATOM     24  C   UNL     1       7.119   5.526  15.698  0.00  0.00    +0.000 C 
BRANCH  24  25
ATOM     25  C   UNL     1       6.810   4.888  14.366  0.00  0.00    +0.000 A 
ATOM     26  C   UNL     1       7.662   5.083  13.269  0.00  0.00    +0.000 A 
ATOM     27  C   UNL     1       7.420   4.433  12.056  0.00  0.00    +0.000 A 
ATOM     28  C   UNL     1       6.325   3.582  11.928  0.00  0.00    +0.000 A 
ATOM     29  C   UNL     1       5.469   3.384  13.009  0.00  0.00    +0.000 A 
ATOM     30  C   UNL     1       5.710   4.033  14.223  0.00  0.00    +0.000 A 
ENDBRANCH  24  25
ENDBRANCH  23  24
ENDBRANCH  20  23
ENDBRANCH   1  19
TORSDOF 8
ENDMDL
MODEL 3
REMARK VINA RESULT:      -8.2      1.180      1.476
REMARK  Name = 
REMARK  9 active torsions:
REMARK  status: ('A' for Active; 'I' for Inactive)
REMARK    1  A    between atoms: C_1  and  N_2
REMARK    2  A    between atoms: C_3  and  C_5
REMARK    3  A    between atoms: C_5  and  N_6
REMARK    4  A    between atoms: C_5  and  C_17
REMARK    5  A    between atoms: C_7  and  O_9
REMARK    6  A    between atoms: O_9  and  C_10
REMARK    7  A    between atoms: C_10  and  C_11
REMARK    8  A    between atoms: C_21  and  N_22
REMARK    9  A    between atoms: C_23  and  C_25
REMARK                            x       y       z     vdW  Elec       q    Type
REMARK                         _______ _______ _______ _____ _____    ______ ____
ROOT
ATOM      1  C   UNL     1       6.652   5.394  16.878  0.00  0.00    +0.000 C 
ENDROOT
BRANCH   1   2
ATOM      2  C   UNL     1       5.218   5.831  17.144  0.00  0.00    +0.000 A 
ATOM      3  C   UNL     1       4.820   7.159  16.931  0.00  0.00    +0.000 A 
ATOM      4  C   UNL     1       3.541   7.576  17.286  0.00  0.00    +0.000 A 
ATOM      5  C   UNL     1       2.642   6.678  17.863  0.00  0.00    +0.000 A 
ATOM      6  C   UNL     1       3.004   5.349  18.078  0.00  0.00    +0.000 A 
ATOM      7  C   UNL     1       4.292   4.930  17.706  0.00  0.00    +0.000 A 
BRANCH   6   8
ATOM      8  N   UNL     1       2.151   4.394  18.673  0.00  0.00    +0.000 N 
ATOM      9  C   UNL     1       2.147   3.967  19.991  0.00  0.00    +0.000 C 
ATOM     10  O   UNL     1       2.919   4.344  20.872  0.00  0.00    +0.000 OA
ATOM     11  H   UNL     1       1.451   3.972  18.072  0.00  0.00    +0.000 HD
BRANCH   9  12
ATOM     12  C   UNL     1       1.154   2.860  20.301  0.00  0.00    +0.000 C 
ATOM     13 CL   UNL     1       1.187   2.386  22.014  0.00  0.00    +0.000 Cl
ENDBRANCH   9  12
ENDBRANCH   6   8
ENDBRANCH   1   2
BRANCH   1  16
ATOM     14  C   UNL     1       6.107   3.814  13.430  0.00  0.00    +0.000 C 
ATOM     15  N   UNL     1       6.029   4.171  14.823  0.00  0.00    +0.000 N 
ATOM     16  C   UNL     1       6.902   5.092  15.376  0.00  0.00    +0.000 C 
ATOM     17  O   UNL     1       7.770   5.661  14.712  0.00  0.00    +0.000 OA
ATOM     18  H   UNL     1       5.373   3.679  15.417  0.00  0.00    +0.000 HD
ENDBRANCH   1  16
BRANCH   1  19
ATOM     19  N   UNL     1       7.554   6.435  17.340  0.00  0.00    +0.000 N 
ATOM     20  C   UNL     1       7.888   6.591  18.644  0.00  0.00    +0.000 C 
ATOM     21  O   UNL     1       7.454   5.903  19.555  0.00  0.00    +0.000 OA
ATOM     22  H   UNL     1       8.075   6.979  16.665  0.00  0.00    +0.000 HD
BRANCH  20  23
ATOM     23  O   UNL     1       8.708   7.658  18.773  0.00  0.00    +0.000 OA
BRANCH  23  24
ATOM     24  C   UNL     1       8.243   8.872  18.165  0.00  0.00    +0.000 C 
BRANCH  24  25
ATOM     25  C   UNL     1       9.019  10.077  18.636  0.00  0.00    +0.000 A 
ATOM     26  C   UNL     1       9.189  10.322  20.007  0.00  0.00    +0.000 A 
ATOM     27  C   UNL     1       9.970  11.393  20.447  0.00  0.00    +0.000 A 
ATOM     28  C   UNL     1      10.590  12.229  19.522  0.00  0.00    +0.000 A 
ATOM     29  C   UNL     1      10.425  11.999  18.157  0.00  0.00    +0.000 A 
ATOM     30  C   UNL     1       9.645  10.927  17.715  0.00  0.00    +0.000 A 
ENDBRANCH  24  25
ENDBRANCH  23  24
ENDBRANCH  20  23
ENDBRANCH   1  19
TORSDOF 8
ENDMDL
MODEL 4
REMARK VINA RESULT:      -8.2      5.016      6.763
REMARK  Name = 
REMARK  9 active torsions:
REMARK  status: ('A' for Active; 'I' for Inactive)
REMARK    1  A    between atoms: C_1  and  N_2
REMARK    2  A    between atoms: C_3  and  C_5
REMARK    3  A    between atoms: C_5  and  N_6
REMARK    4  A    between atoms: C_5  and  C_17
REMARK    5  A    between atoms: C_7  and  O_9
REMARK    6  A    between atoms: O_9  and  C_10
REMARK    7  A    between atoms: C_10  and  C_11
REMARK    8  A    between atoms: C_21  and  N_22
REMARK    9  A    between atoms: C_23  and  C_25
REMARK                            x       y       z     vdW  Elec       q    Type
REMARK                         _______ _______ _______ _____ _____    ______ ____
ROOT
ATOM      1  C   UNL     1       3.416   5.558  19.466  0.00  0.00    +0.000 C 
ENDROOT
BRANCH   1   2
ATOM      2  C   UNL     1       2.639   6.844  19.212  0.00  0.00    +0.000 A 
ATOM      3  C   UNL     1       2.590   7.411  17.930  0.00  0.00    +0.000 A 
ATOM      4  C   UNL     1       1.978   8.645  17.730  0.00  0.00    +0.000 A 
ATOM      5  C   UNL     1       1.411   9.332  18.804  0.00  0.00    +0.000 A 
ATOM      6  C   UNL     1       1.435   8.790  20.088  0.00  0.00    +0.000 A 
ATOM      7  C   UNL     1       2.042   7.539  20.283  0.00  0.00    +0.000 A 
BRANCH   6   8
ATOM      8  N   UNL     1       0.896   9.439  21.220  0.00  0.00    +0.000 N 
ATOM      9  C   UNL     1      -0.187   9.043  21.988  0.00  0.00    +0.000 C 
ATOM     10  O   UNL     1      -0.886   8.051  21.789  0.00  0.00    +0.000 OA
ATOM     11  H   UNL     1       1.358  10.292  21.518  0.00  0.00    +0.000 HD
BRANCH   9  12
ATOM     12  C   UNL     1      -0.570  10.009  23.097  0.00  0.00    +0.000 C 
ATOM     13 CL   UNL     1      -0.693  11.685  22.517  0.00  0.00    +0.000 Cl
ENDBRANCH   9  12
ENDBRANCH   6   8
ENDBRANCH   1   2
BRANCH   1  16
ATOM     14  C   UNL     1       1.222   2.494  18.774  0.00  0.00    +0.000 C 
ATOM     15  N   UNL     1       2.064   3.656  18.654  0.00  0.00    +0.000 N 
ATOM     16  C   UNL     1       2.477   4.360  19.771  0.00  0.00    +0.000 C 
ATOM     17  O   UNL     1       2.163   4.026  20.915  0.00  0.00    +0.000 OA
ATOM     18  H   UNL     1       2.290   4.000  17.729  0.00  0.00    +0.000 HD
ENDBRANCH   1  16
BRANCH   1  19
ATOM     19  N   UNL     1       4.241   5.269  18.307  0.00  0.00    +0.000 N 
ATOM     20  C   UNL     1       5.511   4.808  18.407  0.00  0.00    +0.000 C 
ATOM     21  O   UNL     1       6.094   4.614  19.463  0.00  0.00    +0.000 OA
ATOM     22  H   UNL     1       3.824   5.267  17.386  0.00  0.00    +0.000 HD
BRANCH  20  23
ATOM     23  O   UNL     1       6.038   4.669  17.170  0.00  0.00    +0.000 OA
BRANCH  23  24
ATOM     24  C   UNL     1       5.086   4.503  16.109  0.00  0.00    +0.000 C 
BRANCH  24  25
ATOM     25  C   UNL     1       5.750   4.433  14.756  0.00  0.00    +0.000 A 
ATOM     26  C   UNL     1       6.986   5.059  14.537  0.00  0.00    +0.000 A 
ATOM     27  C   UNL     1       7.639   4.932  13.309  0.00  0.00    +0.000 A 
ATOM     28  C   UNL     1       7.066   4.178  12.289  0.00  0.00    +0.000 A 
ATOM     29  C   UNL     1       5.837   3.554  12.493  0.00  0.00    +0.000 A 
ATOM     30  C   UNL     1       5.181   3.679  13.721  0.00  0.00    +0.000 A 
ENDBRANCH  24  25
ENDBRANCH  23  24
ENDBRANCH  20  23
ENDBRANCH   1  19
TORSDOF 8
ENDMDL
MODEL 5
REMARK VINA RESULT:      -8.1      2.520      3.316
REMARK  Name = 
REMARK  9 active torsions:
REMARK  status: ('A' for Active; 'I' for Inactive)
REMARK    1  A    between atoms: C_1  and  N_2
REMARK    2  A    between atoms: C_3  and  C_5
REMARK    3  A    between atoms: C_5  and  N_6
REMARK    4  A    between atoms: C_5  and  C_17
REMARK    5  A    between atoms: C_7  and  O_9
REMARK    6  A    between atoms: O_9  and  C_10
REMARK    7  A    between atoms: C_10  and  C_11
REMARK    8  A    between atoms: C_21  and  N_22
REMARK    9  A    between atoms: C_23  and  C_25
REMARK                            x       y       z     vdW  Elec       q    Type
REMARK                         _______ _______ _______ _____ _____    ______ ____
ROOT
ATOM      1  C   UNL     1       6.351   4.857  16.738  0.00  0.00    +0.000 C 
ENDROOT
BRANCH   1   2
ATOM      2  C   UNL     1       4.913   4.886  17.240  0.00  0.00    +0.000 A 
ATOM      3  C   UNL     1       4.154   3.710  17.313  0.00  0.00    +0.000 A 
ATOM      4  C   UNL     1       2.807   3.761  17.660  0.00  0.00    +0.000 A 
ATOM      5  C   UNL     1       2.197   4.986  17.934  0.00  0.00    +0.000 A 
ATOM      6  C   UNL     1       2.928   6.173  17.880  0.00  0.00    +0.000 A 
ATOM      7  C   UNL     1       4.290   6.114  17.542  0.00  0.00    +0.000 A 
BRANCH   6   8
ATOM      8  N   UNL     1       2.370   7.446  18.128  0.00  0.00    +0.000 N 
ATOM      9  C   UNL     1       1.906   7.946  19.334  0.00  0.00    +0.000 C 
ATOM     10  O   UNL     1       1.883   7.340  20.404  0.00  0.00    +0.000 OA
ATOM     11  H   UNL     1       2.306   8.077  17.336  0.00  0.00    +0.000 HD
BRANCH   9  12
ATOM     12  C   UNL     1       1.283   9.330  19.253  0.00  0.00    +0.000 C 
ATOM     13 CL   UNL     1       2.001  10.317  17.960  0.00  0.00    +0.000 Cl
ENDBRANCH   9  12
ENDBRANCH   6   8
ENDBRANCH   1   2
BRANCH   1  16
ATOM     14  C   UNL     1       7.877   5.310  13.252  0.00  0.00    +0.000 C 
ATOM     15  N   UNL     1       7.635   5.292  14.672  0.00  0.00    +0.000 N 
ATOM     16  C   UNL     1       6.428   4.852  15.187  0.00  0.00    +0.000 C 
ATOM     17  O   UNL     1       5.514   4.443  14.471  0.00  0.00    +0.000 OA
ATOM     18  H   UNL     1       8.336   5.681  15.291  0.00  0.00    +0.000 HD
ENDBRANCH   1  16
BRANCH   1  19
ATOM     19  N   UNL     1       7.060   6.006  17.275  0.00  0.00    +0.000 N 
ATOM     20  C   UNL     1       7.758   5.960  18.435  0.00  0.00    +0.000 C 
ATOM     21  O   UNL     1       7.843   4.976  19.152  0.00  0.00    +0.000 OA
ATOM     22  H   UNL     1       7.169   6.834  16.706  0.00  0.00    +0.000 HD
BRANCH  20  23
ATOM     23  O   UNL     1       8.275   7.182  18.696  0.00  0.00    +0.000 OA
BRANCH  23  24
ATOM     24  C   UNL     1       7.889   8.223  17.787  0.00  0.00    +0.000 C 
BRANCH  24  25
ATOM     25  C   UNL     1       8.464   9.562  18.179  0.00  0.00    +0.000 A 
ATOM     26  C   UNL     1       8.169  10.710  17.430  0.00  0.00    +0.000 A 
ATOM     27  C   UNL     1       8.637  11.963  17.833  0.00  0.00    +0.000 A 
ATOM     28  C   UNL     1       9.405  12.080  18.989  0.00  0.00    +0.000 A 
ATOM     29  C   UNL     1       9.709  10.946  19.740  0.00  0.00    +0.000 A 
ATOM     30  C   UNL     1       9.240   9.693  19.338  0.00  0.00    +0.000 A 
ENDBRANCH  24  25
ENDBRANCH  23  24
ENDBRANCH  20  23
ENDBRANCH   1  19
TORSDOF 8
ENDMDL
MODEL 6
REMARK VINA RESULT:      -8.1      2.482      3.196
REMARK  Name = 
REMARK  9 active torsions:
REMARK  status: ('A' for Active; 'I' for Inactive)
REMARK    1  A    between atoms: C_1  and  N_2
REMARK    2  A    between atoms: C_3  and  C_5
REMARK    3  A    between atoms: C_5  and  N_6
REMARK    4  A    between atoms: C_5  and  C_17
REMARK    5  A    between atoms: C_7  and  O_9
REMARK    6  A    between atoms: O_9  and  C_10
REMARK    7  A    between atoms: C_10  and  C_11
REMARK    8  A    between atoms: C_21  and  N_22
REMARK    9  A    between atoms: C_23  and  C_25
REMARK                            x       y       z     vdW  Elec       q    Type
REMARK                         _______ _______ _______ _____ _____    ______ ____
ROOT
ATOM      1  C   UNL     1       6.770   5.016  17.055  0.00  0.00    +0.000 C 
ENDROOT
BRANCH   1   2
ATOM      2  C   UNL     1       5.320   5.111  17.513  0.00  0.00    +0.000 A 
ATOM      3  C   UNL     1       4.631   3.974  17.958  0.00  0.00    +0.000 A 
ATOM      4  C   UNL     1       3.275   4.047  18.263  0.00  0.00    +0.000 A 
ATOM      5  C   UNL     1       2.586   5.252  18.123  0.00  0.00    +0.000 A 
ATOM      6  C   UNL     1       3.246   6.403  17.693  0.00  0.00    +0.000 A 
ATOM      7  C   UNL     1       4.617   6.327  17.399  0.00  0.00    +0.000 A 
BRANCH   6   8
ATOM      8  N   UNL     1       2.606   7.649  17.514  0.00  0.00    +0.000 N 
ATOM      9  C   UNL     1       1.973   8.421  18.474  0.00  0.00    +0.000 C 
ATOM     10  O   UNL     1       1.842   8.129  19.662  0.00  0.00    +0.000 OA
ATOM     11  H   UNL     1       2.614   8.034  16.575  0.00  0.00    +0.000 HD
BRANCH   9  12
ATOM     12  C   UNL     1       1.305   9.679  17.943  0.00  0.00    +0.000 C 
ATOM     13 CL   UNL     1       1.749  11.123  18.881  0.00  0.00    +0.000 Cl
ENDBRANCH   9  12
ENDBRANCH   6   8
ENDBRANCH   1   2
BRANCH   1  16
ATOM     14  C   UNL     1       5.977   3.721  13.536  0.00  0.00    +0.000 C 
ATOM     15  N   UNL     1       6.018   3.945  14.959  0.00  0.00    +0.000 N 
ATOM     16  C   UNL     1       6.887   4.869  15.514  0.00  0.00    +0.000 C 
ATOM     17  O   UNL     1       7.650   5.552  14.830  0.00  0.00    +0.000 OA
ATOM     18  H   UNL     1       5.453   3.359  15.560  0.00  0.00    +0.000 HD
ENDBRANCH   1  16
BRANCH   1  19
ATOM     19  N   UNL     1       7.484   6.198  17.504  0.00  0.00    +0.000 N 
ATOM     20  C   UNL     1       7.995   6.316  18.753  0.00  0.00    +0.000 C 
ATOM     21  O   UNL     1       7.891   5.468  19.625  0.00  0.00    +0.000 OA
ATOM     22  H   UNL     1       7.745   6.908  16.833  0.00  0.00    +0.000 HD
BRANCH  20  23
ATOM     23  O   UNL     1       8.567   7.533  18.891  0.00  0.00    +0.000 OA
BRANCH  23  24
ATOM     24  C   UNL     1       8.094   8.545  17.989  0.00  0.00    +0.000 C 
BRANCH  24  25
ATOM     25  C   UNL     1       8.601   9.917  18.357  0.00  0.00    +0.000 A 
ATOM     26  C   UNL     1       9.446  10.090  19.463  0.00  0.00    +0.000 A 
ATOM     27  C   UNL     1       9.979  11.346  19.761  0.00  0.00    +0.000 A 
ATOM     28  C   UNL     1       9.672  12.442  18.958  0.00  0.00    +0.000 A 
ATOM     29  C   UNL     1       8.830  12.283  17.859  0.00  0.00    +0.000 A 
ATOM     30  C   UNL     1       8.297  11.027  17.558  0.00  0.00    +0.000 A 
ENDBRANCH  24  25
ENDBRANCH  23  24
ENDBRANCH  20  23
ENDBRANCH   1  19
TORSDOF 8
ENDMDL
MODEL 7
REMARK VINA RESULT:      -8.1      4.750      7.720
REMARK  Name = 
REMARK  9 active torsions:
REMARK  status: ('A' for Active; 'I' for Inactive)
REMARK    1  A    between atoms: C_1  and  N_2
REMARK    2  A    between atoms: C_3  and  C_5
REMARK    3  A    between atoms: C_5  and  N_6
REMARK    4  A    between atoms: C_5  and  C_17
REMARK    5  A    between atoms: C_7  and  O_9
REMARK    6  A    between atoms: O_9  and  C_10
REMARK    7  A    between atoms: C_10  and  C_11
REMARK    8  A    between atoms: C_21  and  N_22
REMARK    9  A    between atoms: C_23  and  C_25
REMARK                            x       y       z     vdW  Elec       q    Type
REMARK                         _______ _______ _______ _____ _____    ______ ____
ROOT
ATOM      1  C   UNL     1       3.171   4.598  19.050  0.00  0.00    +0.000 C 
ENDROOT
BRANCH   1   2
ATOM      2  C   UNL     1       4.564   4.612  18.435  0.00  0.00    +0.000 A 
ATOM      3  C   UNL     1       5.644   5.191  19.116  0.00  0.00    +0.000 A 
ATOM      4  C   UNL     1       6.886   5.304  18.499  0.00  0.00    +0.000 A 
ATOM      5  C   UNL     1       7.068   4.848  17.192  0.00  0.00    +0.000 A 
ATOM      6  C   UNL     1       6.015   4.258  16.492  0.00  0.00    +0.000 A 
ATOM      7  C   UNL     1       4.767   4.135  17.124  0.00  0.00    +0.000 A 
BRANCH   6   8
ATOM      8  N   UNL     1       6.125   3.792  15.164  0.00  0.00    +0.000 N 
ATOM      9  C   UNL     1       6.658   4.460  14.074  0.00  0.00    +0.000 C 
ATOM     10  O   UNL     1       7.110   5.604  14.082  0.00  0.00    +0.000 OA
ATOM     11  H   UNL     1       5.784   2.854  14.981  0.00  0.00    +0.000 HD
BRANCH   9  12
ATOM     12  C   UNL     1       6.554   3.714  12.754  0.00  0.00    +0.000 C 
ATOM     13 CL   UNL     1       4.868   3.510  12.228  0.00  0.00    +0.000 Cl
ENDBRANCH   9  12
ENDBRANCH   6   8
ENDBRANCH   1   2
BRANCH   1  16
ATOM     14  C   UNL     1       1.616   2.541  21.885  0.00  0.00    +0.000 C 
ATOM     15  N   UNL     1       1.948   3.574  20.938  0.00  0.00    +0.000 N 
ATOM     16  C   UNL     1       2.976   3.406  20.026  0.00  0.00    +0.000 C 
ATOM     17  O   UNL     1       3.643   2.372  19.965  0.00  0.00    +0.000 OA
ATOM     18  H   UNL     1       1.467   4.462  20.998  0.00  0.00    +0.000 HD
ENDBRANCH   1  16
BRANCH   1  19
ATOM     19  N   UNL     1       2.948   5.856  19.741  0.00  0.00    +0.000 N 
ATOM     20  C   UNL     1       2.377   6.930  19.143  0.00  0.00    +0.000 C 
ATOM     21  O   UNL     1       2.019   6.962  17.977  0.00  0.00    +0.000 OA
ATOM     22  H   UNL     1       3.084   5.907  20.741  0.00  0.00    +0.000 HD
BRANCH  20  23
ATOM     23  O   UNL     1       2.337   7.961  20.017  0.00  0.00    +0.000 OA
BRANCH  23  24
ATOM     24  C   UNL     1       1.415   7.811  21.107  0.00  0.00    +0.000 C 
BRANCH  24  25
ATOM     25  C   UNL     1       0.636   9.076  21.370  0.00  0.00    +0.000 A 
ATOM     26  C   UNL     1       0.299   9.937  20.315  0.00  0.00    +0.000 A 
ATOM     27  C   UNL     1      -0.487  11.068  20.543  0.00  0.00    +0.000 A 
ATOM     28  C   UNL     1      -0.945  11.351  21.828  0.00  0.00    +0.000 A 
ATOM     29  C   UNL     1      -0.615  10.505  22.885  0.00  0.00    +0.000 A 
ATOM     30  C   UNL     1       0.171   9.372  22.658  0.00  0.00    +0.000 A 
ENDBRANCH  24  25
ENDBRANCH  23  24
ENDBRANCH  20  23
ENDBRANCH   1  19
TORSDOF 8
ENDMDL
MODEL 8
REMARK VINA RESULT:      -8.1      5.053      7.039
REMARK  Name = 
REMARK  9 active torsions:
REMARK  status: ('A' for Active; 'I' for Inactive)
REMARK    1  A    between atoms: C_1  and  N_2
REMARK    2  A    between atoms: C_3  and  C_5
REMARK    3  A    between atoms: C_5  and  N_6
REMARK    4  A    between atoms: C_5  and  C_17
REMARK    5  A    between atoms: C_7  and  O_9
REMARK    6  A    between atoms: O_9  and  C_10
REMARK    7  A    between atoms: C_10  and  C_11
REMARK    8  A    between atoms: C_21  and  N_22
REMARK    9  A    between atoms: C_23  and  C_25
REMARK                            x       y       z     vdW  Elec       q    Type
REMARK                         _______ _______ _______ _____ _____    ______ ____
ROOT
ATOM      1  C   UNL     1       3.225   5.400  19.451  0.00  0.00    +0.000 C 
ENDROOT
BRANCH   1   2
ATOM      2  C   UNL     1       2.564   6.746  19.183  0.00  0.00    +0.000 A 
ATOM      3  C   UNL     1       2.879   7.484  18.033  0.00  0.00    +0.000 A 
ATOM      4  C   UNL     1       2.361   8.763  17.853  0.00  0.00    +0.000 A 
ATOM      5  C   UNL     1       1.526   9.327  18.820  0.00  0.00    +0.000 A 
ATOM      6  C   UNL     1       1.186   8.614  19.969  0.00  0.00    +0.000 A 
ATOM      7  C   UNL     1       1.702   7.319  20.139  0.00  0.00    +0.000 A 
BRANCH   6   8
ATOM      8  N   UNL     1       0.362   9.130  20.993  0.00  0.00    +0.000 N 
ATOM      9  C   UNL     1       0.738   9.507  22.272  0.00  0.00    +0.000 C 
ATOM     10  O   UNL     1       1.872   9.430  22.741  0.00  0.00    +0.000 OA
ATOM     11  H   UNL     1      -0.620   9.250  20.770  0.00  0.00    +0.000 HD
BRANCH   9  12
ATOM     12  C   UNL     1      -0.406   9.949  23.169  0.00  0.00    +0.000 C 
ATOM     13 CL   UNL     1      -1.292  11.336  22.497  0.00  0.00    +0.000 Cl
ENDBRANCH   9  12
ENDBRANCH   6   8
ENDBRANCH   1   2
BRANCH   1  16
ATOM     14  C   UNL     1       1.834   2.680  21.765  0.00  0.00    +0.000 C 
ATOM     15  N   UNL     1       2.668   3.657  21.111  0.00  0.00    +0.000 N 
ATOM     16  C   UNL     1       2.218   4.356  20.005  0.00  0.00    +0.000 C 
ATOM     17  O   UNL     1       1.091   4.196  19.535  0.00  0.00    +0.000 OA
ATOM     18  H   UNL     1       3.623   3.771  21.426  0.00  0.00    +0.000 HD
ENDBRANCH   1  16
BRANCH   1  19
ATOM     19  N   UNL     1       3.826   4.917  18.220  0.00  0.00    +0.000 N 
ATOM     20  C   UNL     1       4.896   4.086  18.204  0.00  0.00    +0.000 C 
ATOM     21  O   UNL     1       5.473   3.684  19.201  0.00  0.00    +0.000 OA
ATOM     22  H   UNL     1       3.356   5.078  17.340  0.00  0.00    +0.000 HD
BRANCH  20  23
ATOM     23  O   UNL     1       5.254   3.840  16.924  0.00  0.00    +0.000 OA
BRANCH  23  24
ATOM     24  C   UNL     1       5.443   5.001  16.101  0.00  0.00    +0.000 C 
BRANCH  24  25
ATOM     25  C   UNL     1       6.011   4.652  14.747  0.00  0.00    +0.000 A 
ATOM     26  C   UNL     1       5.317   3.790  13.885  0.00  0.00    +0.000 A 
ATOM     27  C   UNL     1       5.802   3.525  12.603  0.00  0.00    +0.000 A 
ATOM     28  C   UNL     1       6.985   4.118  12.168  0.00  0.00    +0.000 A 
ATOM     29  C   UNL     1       7.685   4.973  13.017  0.00  0.00    +0.000 A 
ATOM     30  C   UNL     1       7.201   5.240  14.300  0.00  0.00    +0.000 A 
ENDBRANCH  24  25
ENDBRANCH  23  24
ENDBRANCH  20  23
ENDBRANCH   1  19
TORSDOF 8
ENDMDL
MODEL 9
REMARK VINA RESULT:      -8.1      1.197      1.197
REMARK  Name = 
REMARK  9 active torsions:
REMARK  status: ('A' for Active; 'I' for Inactive)
REMARK    1  A    between atoms: C_1  and  N_2
REMARK    2  A    between atoms: C_3  and  C_5
REMARK    3  A    between atoms: C_5  and  N_6
REMARK    4  A    between atoms: C_5  and  C_17
REMARK    5  A    between atoms: C_7  and  O_9
REMARK    6  A    between atoms: O_9  and  C_10
REMARK    7  A    between atoms: C_10  and  C_11
REMARK    8  A    between atoms: C_21  and  N_22
REMARK    9  A    between atoms: C_23  and  C_25
REMARK                            x       y       z     vdW  Elec       q    Type
REMARK                         _______ _______ _______ _____ _____    ______ ____
ROOT
ATOM      1  C   UNL     1       6.535   6.242  17.480  0.00  0.00    +0.000 C 
ENDROOT
BRANCH   1   2
ATOM      2  C   UNL     1       5.024   6.383  17.602  0.00  0.00    +0.000 A 
ATOM      3  C   UNL     1       4.391   7.604  17.329  0.00  0.00    +0.000 A 
ATOM      4  C   UNL     1       3.026   7.756  17.556  0.00  0.00    +0.000 A 
ATOM      5  C   UNL     1       2.274   6.695  18.062  0.00  0.00    +0.000 A 
ATOM      6  C   UNL     1       2.872   5.465  18.334  0.00  0.00    +0.000 A 
ATOM      7  C   UNL     1       4.247   5.313  18.092  0.00  0.00    +0.000 A 
BRANCH   6   8
ATOM      8  N   UNL     1       2.174   4.358  18.863  0.00  0.00    +0.000 N 
ATOM      9  C   UNL     1       1.896   4.090  20.194  0.00  0.00    +0.000 C 
ATOM     10  O   UNL     1       2.239   4.778  21.153  0.00  0.00    +0.000 OA
ATOM     11  H   UNL     1       1.826   3.678  18.195  0.00  0.00    +0.000 HD
BRANCH   9  12
ATOM     12  C   UNL     1       1.195   2.766  20.445  0.00  0.00    +0.000 C 
ATOM     13 CL   UNL     1       0.570   2.040  18.948  0.00  0.00    +0.000 Cl
ENDBRANCH   9  12
ENDBRANCH   6   8
ENDBRANCH   1   2
BRANCH   1  16
ATOM     14  C   UNL     1       6.622   4.623  14.008  0.00  0.00    +0.000 C 
ATOM     15  N   UNL     1       6.322   5.449  15.150  0.00  0.00    +0.000 N 
ATOM     16  C   UNL     1       6.940   5.236  16.369  0.00  0.00    +0.000 C 
ATOM     17  O   UNL     1       7.781   4.352  16.538  0.00  0.00    +0.000 OA
ATOM     18  H   UNL     1       5.590   6.144  15.070  0.00  0.00    +0.000 HD
ENDBRANCH   1  16
BRANCH   1  19
ATOM     19  N   UNL     1       7.109   7.549  17.210  0.00  0.00    +0.000 N 
ATOM     20  C   UNL     1       8.111   8.078  17.953  0.00  0.00    +0.000 C 
ATOM     21  O   UNL     1       8.612   7.534  18.924  0.00  0.00    +0.000 OA
ATOM     22  H   UNL     1       6.866   8.033  16.356  0.00  0.00    +0.000 HD
BRANCH  20  23
ATOM     23  O   UNL     1       8.409   9.312  17.490  0.00  0.00    +0.000 OA
BRANCH  23  24
ATOM     24  C   UNL     1       8.379  10.363  18.468  0.00  0.00    +0.000 C 
BRANCH  24  25
ATOM     25  C   UNL     1       9.366  11.459  18.155  0.00  0.00    +0.000 A 
ATOM     26  C   UNL     1      10.739  11.180  18.078  0.00  0.00    +0.000 A 
ATOM     27  C   UNL     1      11.648  12.176  17.713  0.00  0.00    +0.000 A 
ATOM     28  C   UNL     1      11.195  13.460  17.423  0.00  0.00    +0.000 A 
ATOM     29  C   UNL     1       9.835  13.751  17.500  0.00  0.00    +0.000 A 
ATOM     30  C   UNL     1       8.924  12.756  17.864  0.00  0.00    +0.000 A 
ENDBRANCH  24  25
ENDBRANCH  23  24
ENDBRANCH  20  23
ENDBRANCH   1  19
TORSDOF 8
ENDMDL
