MODEL 1
REMARK VINA RESULT:      -6.9      0.000      0.000
REMARK  Name = 
REMARK  11 active torsions:
REMARK  status: ('A' for Active; 'I' for Inactive)
REMARK    1  A    between atoms: C_1  and  C_2
REMARK    2  A    between atoms: C_2  and  C_3
REMARK    3  A    between atoms: C_2  and  S_12
REMARK    4  A    between atoms: C_5  and  C_6
REMARK    5  A    between atoms: C_6  and  C_7
REMARK    6  A    between atoms: C_6  and  C_8
REMARK    7  A    between atoms: C_6  and  C_9
REMARK    8  A    between atoms: S_12  and  C_15
REMARK    9  A    between atoms: C_15  and  C_16
REMARK   10  A    between atoms: N_18  and  C_19
REMARK   11  A    between atoms: N_18  and  C_20
REMARK                            x       y       z     vdW  Elec       q    Type
REMARK                         _______ _______ _______ _____ _____    ______ ____
ROOT
ATOM      1  C   UNL     1       4.797   6.644  17.280  0.00  0.00    +0.000 C 
ATOM      2  C   UNL     1       5.589   5.472  17.848  0.00  0.00    +0.000 C 
ENDROOT
BRANCH   2   3
ATOM      3  C   UNL     1       4.699   4.555  18.597  0.00  0.00    +0.000 A 
ATOM      4  N   UNL     1       3.401   4.605  18.782  0.00  0.00    +0.000 NA
ATOM      5  C   UNL     1       3.187   3.608  19.701  0.00  0.00    +0.000 A 
ATOM      6  N   UNL     1       4.300   2.972  20.094  0.00  0.00    +0.000 NA
ATOM      7  O   UNL     1       5.310   3.605  19.367  0.00  0.00    +0.000 OA
BRANCH   5   8
ATOM      8  C   UNL     1       1.807   3.282  20.212  0.00  0.00    +0.000 C 
ATOM      9  C   UNL     1       1.911   2.493  21.528  0.00  0.00    +0.000 C 
ATOM     10  C   UNL     1       0.976   4.558  20.456  0.00  0.00    +0.000 C 
ATOM     11  C   UNL     1       1.053   2.418  19.179  0.00  0.00    +0.000 C 
ENDBRANCH   5   8
ENDBRANCH   2   3
BRANCH   2  12
ATOM     12  S   UNL     1       6.371   4.511  16.539  0.00  0.00    +0.000 S 
ATOM     13  O   UNL     1       7.807   4.452  16.745  0.00  0.00    +0.000 OA
ATOM     14  O   UNL     1       5.631   3.267  16.373  0.00  0.00    +0.000 OA
BRANCH  12  15
ATOM     15  C   UNL     1       6.067   5.427  15.041  0.00  0.00    +0.000 C 
BRANCH  15  16
ATOM     16  C   UNL     1       6.951   4.994  13.911  0.00  0.00    +0.000 C 
ATOM     17  O   UNL     1       8.095   5.436  13.774  0.00  0.00    +0.000 OA
ATOM     18  N   UNL     1       6.426   4.105  12.978  0.00  0.00    +0.000 N 
ATOM     19  C   UNL     1       5.077   3.555  12.991  0.00  0.00    +0.000 C 
ATOM     20  C   UNL     1       7.280   3.649  11.888  0.00  0.00    +0.000 C 
ENDBRANCH  15  16
ENDBRANCH  12  15
ENDBRANCH   2  12
TORSDOF 5
ENDMDL
MODEL 2
REMARK VINA RESULT:      -6.8      1.648      2.232
REMARK  Name = 
REMARK  11 active torsions:
REMARK  status: ('A' for Active; 'I' for Inactive)
REMARK    1  A    between atoms: C_1  and  C_2
REMARK    2  A    between atoms: C_2  and  C_3
REMARK    3  A    between atoms: C_2  and  S_12
REMARK    4  A    between atoms: C_5  and  C_6
REMARK    5  A    between atoms: C_6  and  C_7
REMARK    6  A    between atoms: C_6  and  C_8
REMARK    7  A    between atoms: C_6  and  C_9
REMARK    8  A    between atoms: S_12  and  C_15
REMARK    9  A    between atoms: C_15  and  C_16
REMARK   10  A    between atoms: N_18  and  C_19
REMARK   11  A    between atoms: N_18  and  C_20
REMARK                            x       y       z     vdW  Elec       q    Type
REMARK                         _______ _______ _______ _____ _____    ______ ____
ROOT
ATOM      1  C   UNL     1       7.732   5.552  19.174  0.00  0.00    +0.000 C 
ATOM      2  C   UNL     1       6.814   4.909  18.140  0.00  0.00    +0.000 C 
ENDROOT
BRANCH   2   3
ATOM      3  C   UNL     1       5.459   4.703  18.700  0.00  0.00    +0.000 A 
ATOM      4  N   UNL     1       4.564   3.784  18.425  0.00  0.00    +0.000 NA
ATOM      5  C   UNL     1       3.459   4.222  19.111  0.00  0.00    +0.000 A 
ATOM      6  N   UNL     1       3.641   5.374  19.773  0.00  0.00    +0.000 NA
ATOM      7  O   UNL     1       4.970   5.702  19.496  0.00  0.00    +0.000 OA
BRANCH   5   8
ATOM      8  C   UNL     1       2.162   3.455  19.100  0.00  0.00    +0.000 C 
ATOM      9  C   UNL     1       2.447   1.950  18.955  0.00  0.00    +0.000 C 
ATOM     10  C   UNL     1       1.352   3.690  20.391  0.00  0.00    +0.000 C 
ATOM     11  C   UNL     1       1.292   3.906  17.907  0.00  0.00    +0.000 C 
ENDBRANCH   5   8
ENDBRANCH   2   3
BRANCH   2  12
ATOM     12  S   UNL     1       6.639   5.950  16.679  0.00  0.00    +0.000 S 
ATOM     13  O   UNL     1       5.241   6.062  16.303  0.00  0.00    +0.000 OA
ATOM     14  O   UNL     1       7.414   7.167  16.882  0.00  0.00    +0.000 OA
BRANCH  12  15
ATOM     15  C   UNL     1       7.490   5.077  15.379  0.00  0.00    +0.000 C 
BRANCH  15  16
ATOM     16  C   UNL     1       6.586   4.161  14.611  0.00  0.00    +0.000 C 
ATOM     17  O   UNL     1       5.824   3.374  15.179  0.00  0.00    +0.000 OA
ATOM     18  N   UNL     1       6.663   4.184  13.222  0.00  0.00    +0.000 N 
ATOM     19  C   UNL     1       7.557   5.020  12.432  0.00  0.00    +0.000 C 
ATOM     20  C   UNL     1       5.770   3.321  12.458  0.00  0.00    +0.000 C 
ENDBRANCH  15  16
ENDBRANCH  12  15
ENDBRANCH   2  12
TORSDOF 5
ENDMDL
MODEL 3
REMARK VINA RESULT:      -6.6      1.588      2.312
REMARK  Name = 
REMARK  11 active torsions:
REMARK  status: ('A' for Active; 'I' for Inactive)
REMARK    1  A    between atoms: C_1  and  C_2
REMARK    2  A    between atoms: C_2  and  C_3
REMARK    3  A    between atoms: C_2  and  S_12
REMARK    4  A    between atoms: C_5  and  C_6
REMARK    5  A    between atoms: C_6  and  C_7
REMARK    6  A    between atoms: C_6  and  C_8
REMARK    7  A    between atoms: C_6  and  C_9
REMARK    8  A    between atoms: S_12  and  C_15
REMARK    9  A    between atoms: C_15  and  C_16
REMARK   10  A    between atoms: N_18  and  C_19
REMARK   11  A    between atoms: N_18  and  C_20
REMARK                            x       y       z     vdW  Elec       q    Type
REMARK                         _______ _______ _______ _____ _____    ______ ____
ROOT
ATOM      1  C   UNL     1       7.756   5.439  18.844  0.00  0.00    +0.000 C 
ATOM      2  C   UNL     1       6.654   4.823  17.990  0.00  0.00    +0.000 C 
ENDROOT
BRANCH   2   3
ATOM      3  C   UNL     1       5.411   4.664  18.777  0.00  0.00    +0.000 A 
ATOM      4  N   UNL     1       4.650   3.608  18.947  0.00  0.00    +0.000 NA
ATOM      5  C   UNL     1       3.562   4.121  19.607  0.00  0.00    +0.000 A 
ATOM      6  N   UNL     1       3.623   5.442  19.827  0.00  0.00    +0.000 NA
ATOM      7  O   UNL     1       4.849   5.809  19.269  0.00  0.00    +0.000 OA
BRANCH   5   8
ATOM      8  C   UNL     1       2.409   3.250  20.034  0.00  0.00    +0.000 C 
ATOM      9  C   UNL     1       1.123   4.089  20.116  0.00  0.00    +0.000 C 
ATOM     10  C   UNL     1       2.185   2.083  19.050  0.00  0.00    +0.000 C 
ATOM     11  C   UNL     1       2.690   2.645  21.426  0.00  0.00    +0.000 C 
ENDBRANCH   5   8
ENDBRANCH   2   3
BRANCH   2  12
ATOM     12  S   UNL     1       6.263   5.864  16.571  0.00  0.00    +0.000 S 
ATOM     13  O   UNL     1       4.857   5.743  16.228  0.00  0.00    +0.000 OA
ATOM     14  O   UNL     1       6.820   7.190  16.801  0.00  0.00    +0.000 OA
BRANCH  12  15
ATOM     15  C   UNL     1       7.217   5.195  15.222  0.00  0.00    +0.000 C 
BRANCH  15  16
ATOM     16  C   UNL     1       6.470   4.150  14.450  0.00  0.00    +0.000 C 
ATOM     17  O   UNL     1       5.746   3.322  15.009  0.00  0.00    +0.000 OA
ATOM     18  N   UNL     1       6.655   4.103  13.071  0.00  0.00    +0.000 N 
ATOM     19  C   UNL     1       7.523   4.982  12.299  0.00  0.00    +0.000 C 
ATOM     20  C   UNL     1       5.914   3.113  12.300  0.00  0.00    +0.000 C 
ENDBRANCH  15  16
ENDBRANCH  12  15
ENDBRANCH   2  12
TORSDOF 5
ENDMDL
MODEL 4
REMARK VINA RESULT:      -6.6      1.279      1.850
REMARK  Name = 
REMARK  11 active torsions:
REMARK  status: ('A' for Active; 'I' for Inactive)
REMARK    1  A    between atoms: C_1  and  C_2
REMARK    2  A    between atoms: C_2  and  C_3
REMARK    3  A    between atoms: C_2  and  S_12
REMARK    4  A    between atoms: C_5  and  C_6
REMARK    5  A    between atoms: C_6  and  C_7
REMARK    6  A    between atoms: C_6  and  C_8
REMARK    7  A    between atoms: C_6  and  C_9
REMARK    8  A    between atoms: S_12  and  C_15
REMARK    9  A    between atoms: C_15  and  C_16
REMARK   10  A    between atoms: N_18  and  C_19
REMARK   11  A    between atoms: N_18  and  C_20
REMARK                            x       y       z     vdW  Elec       q    Type
REMARK                         _______ _______ _______ _____ _____    ______ ____
ROOT
ATOM      1  C   UNL     1       6.893   5.551  19.240  0.00  0.00    +0.000 C 
ATOM      2  C   UNL     1       6.313   4.660  18.147  0.00  0.00    +0.000 C 
ENDROOT
BRANCH   2   3
ATOM      3  C   UNL     1       4.928   4.258  18.481  0.00  0.00    +0.000 A 
ATOM      4  N   UNL     1       4.163   4.623  19.483  0.00  0.00    +0.000 NA
ATOM      5  C   UNL     1       3.084   3.784  19.361  0.00  0.00    +0.000 A 
ATOM      6  N   UNL     1       3.172   2.916  18.343  0.00  0.00    +0.000 NA
ATOM      7  O   UNL     1       4.402   3.223  17.759  0.00  0.00    +0.000 OA
BRANCH   5   8
ATOM      8  C   UNL     1       1.915   3.851  20.310  0.00  0.00    +0.000 C 
ATOM      9  C   UNL     1       1.555   5.321  20.591  0.00  0.00    +0.000 C 
ATOM     10  C   UNL     1       0.677   3.132  19.738  0.00  0.00    +0.000 C 
ATOM     11  C   UNL     1       2.280   3.172  21.647  0.00  0.00    +0.000 C 
ENDBRANCH   5   8
ENDBRANCH   2   3
BRANCH   2  12
ATOM     12  S   UNL     1       6.256   5.517  16.562  0.00  0.00    +0.000 S 
ATOM     13  O   UNL     1       4.962   6.149  16.375  0.00  0.00    +0.000 OA
ATOM     14  O   UNL     1       7.460   6.327  16.430  0.00  0.00    +0.000 OA
BRANCH  12  15
ATOM     15  C   UNL     1       6.428   4.239  15.332  0.00  0.00    +0.000 C 
BRANCH  15  16
ATOM     16  C   UNL     1       7.096   4.727  14.083  0.00  0.00    +0.000 C 
ATOM     17  O   UNL     1       7.980   5.587  14.112  0.00  0.00    +0.000 OA
ATOM     18  N   UNL     1       6.655   4.215  12.866  0.00  0.00    +0.000 N 
ATOM     19  C   UNL     1       5.585   3.241  12.690  0.00  0.00    +0.000 C 
ATOM     20  C   UNL     1       7.313   4.655  11.642  0.00  0.00    +0.000 C 
ENDBRANCH  15  16
ENDBRANCH  12  15
ENDBRANCH   2  12
TORSDOF 5
ENDMDL
MODEL 5
REMARK VINA RESULT:      -6.5      1.480      1.872
REMARK  Name = 
REMARK  11 active torsions:
REMARK  status: ('A' for Active; 'I' for Inactive)
REMARK    1  A    between atoms: C_1  and  C_2
REMARK    2  A    between atoms: C_2  and  C_3
REMARK    3  A    between atoms: C_2  and  S_12
REMARK    4  A    between atoms: C_5  and  C_6
REMARK    5  A    between atoms: C_6  and  C_7
REMARK    6  A    between atoms: C_6  and  C_8
REMARK    7  A    between atoms: C_6  and  C_9
REMARK    8  A    between atoms: S_12  and  C_15
REMARK    9  A    between atoms: C_15  and  C_16
REMARK   10  A    between atoms: N_18  and  C_19
REMARK   11  A    between atoms: N_18  and  C_20
REMARK                            x       y       z     vdW  Elec       q    Type
REMARK                         _______ _______ _______ _____ _____    ______ ____
ROOT
ATOM      1  C   UNL     1       7.620   5.623  19.091  0.00  0.00    +0.000 C 
ATOM      2  C   UNL     1       6.741   4.820  18.139  0.00  0.00    +0.000 C 
ENDROOT
BRANCH   2   3
ATOM      3  C   UNL     1       5.379   4.659  18.695  0.00  0.00    +0.000 A 
ATOM      4  N   UNL     1       4.440   3.796  18.388  0.00  0.00    +0.000 NA
ATOM      5  C   UNL     1       3.358   4.260  19.095  0.00  0.00    +0.000 A 
ATOM      6  N   UNL     1       3.597   5.375  19.800  0.00  0.00    +0.000 NA
ATOM      7  O   UNL     1       4.940   5.649  19.531  0.00  0.00    +0.000 OA
BRANCH   5   8
ATOM      8  C   UNL     1       2.026   3.557  19.059  0.00  0.00    +0.000 C 
ATOM      9  C   UNL     1       2.240   2.033  19.037  0.00  0.00    +0.000 C 
ATOM     10  C   UNL     1       1.157   3.924  20.279  0.00  0.00    +0.000 C 
ATOM     11  C   UNL     1       1.249   3.962  17.788  0.00  0.00    +0.000 C 
ENDBRANCH   5   8
ENDBRANCH   2   3
BRANCH   2  12
ATOM     12  S   UNL     1       6.576   5.645  16.544  0.00  0.00    +0.000 S 
ATOM     13  O   UNL     1       5.278   6.288  16.440  0.00  0.00    +0.000 OA
ATOM     14  O   UNL     1       7.775   6.436  16.305  0.00  0.00    +0.000 OA
BRANCH  12  15
ATOM     15  C   UNL     1       6.641   4.338  15.333  0.00  0.00    +0.000 C 
BRANCH  15  16
ATOM     16  C   UNL     1       7.226   4.790  14.029  0.00  0.00    +0.000 C 
ATOM     17  O   UNL     1       8.117   5.641  13.976  0.00  0.00    +0.000 OA
ATOM     18  N   UNL     1       6.696   4.255  12.859  0.00  0.00    +0.000 N 
ATOM     19  C   UNL     1       5.608   3.289  12.780  0.00  0.00    +0.000 C 
ATOM     20  C   UNL     1       7.272   4.660  11.582  0.00  0.00    +0.000 C 
ENDBRANCH  15  16
ENDBRANCH  12  15
ENDBRANCH   2  12
TORSDOF 5
ENDMDL
MODEL 6
REMARK VINA RESULT:      -6.5      3.023      6.478
REMARK  Name = 
REMARK  11 active torsions:
REMARK  status: ('A' for Active; 'I' for Inactive)
REMARK    1  A    between atoms: C_1  and  C_2
REMARK    2  A    between atoms: C_2  and  C_3
REMARK    3  A    between atoms: C_2  and  S_12
REMARK    4  A    between atoms: C_5  and  C_6
REMARK    5  A    between atoms: C_6  and  C_7
REMARK    6  A    between atoms: C_6  and  C_8
REMARK    7  A    between atoms: C_6  and  C_9
REMARK    8  A    between atoms: S_12  and  C_15
REMARK    9  A    between atoms: C_15  and  C_16
REMARK   10  A    between atoms: N_18  and  C_19
REMARK   11  A    between atoms: N_18  and  C_20
REMARK                            x       y       z     vdW  Elec       q    Type
REMARK                         _______ _______ _______ _____ _____    ______ ____
ROOT
ATOM      1  C   UNL     1       3.004   1.772  18.280  0.00  0.00    +0.000 C 
ATOM      2  C   UNL     1       3.310   2.920  19.235  0.00  0.00    +0.000 C 
ENDROOT
BRANCH   2   3
ATOM      3  C   UNL     1       4.415   3.755  18.711  0.00  0.00    +0.000 A 
ATOM      4  N   UNL     1       4.540   4.355  17.551  0.00  0.00    +0.000 NA
ATOM      5  C   UNL     1       5.837   4.804  17.581  0.00  0.00    +0.000 A 
ATOM      6  N   UNL     1       6.505   4.486  18.699  0.00  0.00    +0.000 NA
ATOM      7  O   UNL     1       5.565   3.781  19.451  0.00  0.00    +0.000 OA
BRANCH   5   8
ATOM      8  C   UNL     1       6.433   5.583  16.437  0.00  0.00    +0.000 C 
ATOM      9  C   UNL     1       7.398   6.652  16.980  0.00  0.00    +0.000 C 
ATOM     10  C   UNL     1       7.197   4.665  15.462  0.00  0.00    +0.000 C 
ATOM     11  C   UNL     1       5.315   6.291  15.640  0.00  0.00    +0.000 C 
ENDBRANCH   5   8
ENDBRANCH   2   3
BRANCH   2  12
ATOM     12  S   UNL     1       1.880   3.995  19.451  0.00  0.00    +0.000 S 
ATOM     13  O   UNL     1       1.332   4.373  18.160  0.00  0.00    +0.000 OA
ATOM     14  O   UNL     1       0.996   3.397  20.443  0.00  0.00    +0.000 OA
BRANCH  12  15
ATOM     15  C   UNL     1       2.514   5.466  20.232  0.00  0.00    +0.000 C 
BRANCH  15  16
ATOM     16  C   UNL     1       2.360   6.686  19.375  0.00  0.00    +0.000 C 
ATOM     17  O   UNL     1       2.821   6.739  18.231  0.00  0.00    +0.000 OA
ATOM     18  N   UNL     1       1.719   7.792  19.925  0.00  0.00    +0.000 N 
ATOM     19  C   UNL     1       1.183   7.880  21.277  0.00  0.00    +0.000 C 
ATOM     20  C   UNL     1       1.534   8.977  19.096  0.00  0.00    +0.000 C 
ENDBRANCH  15  16
ENDBRANCH  12  15
ENDBRANCH   2  12
TORSDOF 5
ENDMDL
MODEL 7
REMARK VINA RESULT:      -6.5      1.338      1.960
REMARK  Name = 
REMARK  11 active torsions:
REMARK  status: ('A' for Active; 'I' for Inactive)
REMARK    1  A    between atoms: C_1  and  C_2
REMARK    2  A    between atoms: C_2  and  C_3
REMARK    3  A    between atoms: C_2  and  S_12
REMARK    4  A    between atoms: C_5  and  C_6
REMARK    5  A    between atoms: C_6  and  C_7
REMARK    6  A    between atoms: C_6  and  C_8
REMARK    7  A    between atoms: C_6  and  C_9
REMARK    8  A    between atoms: S_12  and  C_15
REMARK    9  A    between atoms: C_15  and  C_16
REMARK   10  A    between atoms: N_18  and  C_19
REMARK   11  A    between atoms: N_18  and  C_20
REMARK                            x       y       z     vdW  Elec       q    Type
REMARK                         _______ _______ _______ _____ _____    ______ ____
ROOT
ATOM      1  C   UNL     1       7.344   5.743  18.861  0.00  0.00    +0.000 C 
ATOM      2  C   UNL     1       6.410   4.732  18.206  0.00  0.00    +0.000 C 
ENDROOT
BRANCH   2   3
ATOM      3  C   UNL     1       5.157   4.599  18.984  0.00  0.00    +0.000 A 
ATOM      4  N   UNL     1       4.389   3.552  19.173  0.00  0.00    +0.000 NA
ATOM      5  C   UNL     1       3.297   4.087  19.810  0.00  0.00    +0.000 A 
ATOM      6  N   UNL     1       3.363   5.413  19.997  0.00  0.00    +0.000 NA
ATOM      7  O   UNL     1       4.597   5.759  19.442  0.00  0.00    +0.000 OA
BRANCH   5   8
ATOM      8  C   UNL     1       2.135   3.233  20.246  0.00  0.00    +0.000 C 
ATOM      9  C   UNL     1       0.849   4.077  20.276  0.00  0.00    +0.000 C 
ATOM     10  C   UNL     1       1.926   2.033  19.299  0.00  0.00    +0.000 C 
ATOM     11  C   UNL     1       2.391   2.676  21.663  0.00  0.00    +0.000 C 
ENDBRANCH   5   8
ENDBRANCH   2   3
BRANCH   2  12
ATOM     12  S   UNL     1       5.954   5.242  16.538  0.00  0.00    +0.000 S 
ATOM     13  O   UNL     1       4.522   5.105  16.341  0.00  0.00    +0.000 OA
ATOM     14  O   UNL     1       6.584   6.525  16.258  0.00  0.00    +0.000 OA
BRANCH  12  15
ATOM     15  C   UNL     1       6.771   4.085  15.456  0.00  0.00    +0.000 C 
BRANCH  15  16
ATOM     16  C   UNL     1       7.290   4.731  14.207  0.00  0.00    +0.000 C 
ATOM     17  O   UNL     1       8.128   5.635  14.243  0.00  0.00    +0.000 OA
ATOM     18  N   UNL     1       6.758   4.315  12.990  0.00  0.00    +0.000 N 
ATOM     19  C   UNL     1       5.726   3.301  12.814  0.00  0.00    +0.000 C 
ATOM     20  C   UNL     1       7.271   4.911  11.763  0.00  0.00    +0.000 C 
ENDBRANCH  15  16
ENDBRANCH  12  15
ENDBRANCH   2  12
TORSDOF 5
ENDMDL
MODEL 8
REMARK VINA RESULT:      -6.4      1.005      1.547
REMARK  Name = 
REMARK  11 active torsions:
REMARK  status: ('A' for Active; 'I' for Inactive)
REMARK    1  A    between atoms: C_1  and  C_2
REMARK    2  A    between atoms: C_2  and  C_3
REMARK    3  A    between atoms: C_2  and  S_12
REMARK    4  A    between atoms: C_5  and  C_6
REMARK    5  A    between atoms: C_6  and  C_7
REMARK    6  A    between atoms: C_6  and  C_8
REMARK    7  A    between atoms: C_6  and  C_9
REMARK    8  A    between atoms: S_12  and  C_15
REMARK    9  A    between atoms: C_15  and  C_16
REMARK   10  A    between atoms: N_18  and  C_19
REMARK   11  A    between atoms: N_18  and  C_20
REMARK                            x       y       z     vdW  Elec       q    Type
REMARK                         _______ _______ _______ _____ _____    ______ ____
ROOT
ATOM      1  C   UNL     1       6.288   7.057  17.679  0.00  0.00    +0.000 C 
ATOM      2  C   UNL     1       6.139   5.585  18.042  0.00  0.00    +0.000 C 
ENDROOT
BRANCH   2   3
ATOM      3  C   UNL     1       4.736   5.275  18.401  0.00  0.00    +0.000 A 
ATOM      4  N   UNL     1       4.255   4.358  19.207  0.00  0.00    +0.000 NA
ATOM      5  C   UNL     1       2.903   4.437  18.983  0.00  0.00    +0.000 A 
ATOM      6  N   UNL     1       2.548   5.346  18.064  0.00  0.00    +0.000 NA
ATOM      7  O   UNL     1       3.766   5.901  17.668  0.00  0.00    +0.000 OA
BRANCH   5   8
ATOM      8  C   UNL     1       1.925   3.559  19.720  0.00  0.00    +0.000 C 
ATOM      9  C   UNL     1       0.876   4.430  20.433  0.00  0.00    +0.000 C 
ATOM     10  C   UNL     1       1.204   2.586  18.765  0.00  0.00    +0.000 C 
ATOM     11  C   UNL     1       2.666   2.717  20.781  0.00  0.00    +0.000 C 
ENDBRANCH   5   8
ENDBRANCH   2   3
BRANCH   2  12
ATOM     12  S   UNL     1       6.588   4.518  16.660  0.00  0.00    +0.000 S 
ATOM     13  O   UNL     1       8.015   4.251  16.670  0.00  0.00    +0.000 OA
ATOM     14  O   UNL     1       5.662   3.394  16.622  0.00  0.00    +0.000 OA
BRANCH  12  15
ATOM     15  C   UNL     1       6.216   5.466  15.197  0.00  0.00    +0.000 C 
BRANCH  15  16
ATOM     16  C   UNL     1       7.012   5.025  14.007  0.00  0.00    +0.000 C 
ATOM     17  O   UNL     1       8.145   5.461  13.785  0.00  0.00    +0.000 OA
ATOM     18  N   UNL     1       6.416   4.137  13.117  0.00  0.00    +0.000 N 
ATOM     19  C   UNL     1       5.069   3.593  13.231  0.00  0.00    +0.000 C 
ATOM     20  C   UNL     1       7.186   3.674  11.969  0.00  0.00    +0.000 C 
ENDBRANCH  15  16
ENDBRANCH  12  15
ENDBRANCH   2  12
TORSDOF 5
ENDMDL
MODEL 9
REMARK VINA RESULT:      -6.3      2.980      6.508
REMARK  Name = 
REMARK  11 active torsions:
REMARK  status: ('A' for Active; 'I' for Inactive)
REMARK    1  A    between atoms: C_1  and  C_2
REMARK    2  A    between atoms: C_2  and  C_3
REMARK    3  A    between atoms: C_2  and  S_12
REMARK    4  A    between atoms: C_5  and  C_6
REMARK    5  A    between atoms: C_6  and  C_7
REMARK    6  A    between atoms: C_6  and  C_8
REMARK    7  A    between atoms: C_6  and  C_9
REMARK    8  A    between atoms: S_12  and  C_15
REMARK    9  A    between atoms: C_15  and  C_16
REMARK   10  A    between atoms: N_18  and  C_19
REMARK   11  A    between atoms: N_18  and  C_20
REMARK                            x       y       z     vdW  Elec       q    Type
REMARK                         _______ _______ _______ _____ _____    ______ ____
ROOT
ATOM      1  C   UNL     1       2.061   2.286  18.474  0.00  0.00    +0.000 C 
ATOM      2  C   UNL     1       3.003   3.016  19.425  0.00  0.00    +0.000 C 
ENDROOT
BRANCH   2   3
ATOM      3  C   UNL     1       4.092   3.680  18.674  0.00  0.00    +0.000 A 
ATOM      4  N   UNL     1       4.125   4.101  17.432  0.00  0.00    +0.000 NA
ATOM      5  C   UNL     1       5.443   4.445  17.263  0.00  0.00    +0.000 A 
ATOM      6  N   UNL     1       6.211   4.233  18.340  0.00  0.00    +0.000 NA
ATOM      7  O   UNL     1       5.318   3.716  19.280  0.00  0.00    +0.000 OA
BRANCH   5   8
ATOM      8  C   UNL     1       5.955   5.007  15.962  0.00  0.00    +0.000 C 
ATOM      9  C   UNL     1       5.210   6.311  15.627  0.00  0.00    +0.000 C 
ATOM     10  C   UNL     1       7.469   5.296  16.025  0.00  0.00    +0.000 C 
ATOM     11  C   UNL     1       5.715   3.998  14.819  0.00  0.00    +0.000 C 
ENDBRANCH   5   8
ENDBRANCH   2   3
BRANCH   2  12
ATOM     12  S   UNL     1       2.136   4.295  20.355  0.00  0.00    +0.000 S 
ATOM     13  O   UNL     1       0.754   4.387  19.920  0.00  0.00    +0.000 OA
ATOM     14  O   UNL     1       2.417   4.107  21.773  0.00  0.00    +0.000 OA
BRANCH  12  15
ATOM     15  C   UNL     1       2.952   5.820  19.926  0.00  0.00    +0.000 C 
BRANCH  15  16
ATOM     16  C   UNL     1       2.069   7.017  20.109  0.00  0.00    +0.000 C 
ATOM     17  O   UNL     1       1.334   7.138  21.093  0.00  0.00    +0.000 OA
ATOM     18  N   UNL     1       2.061   7.980  19.104  0.00  0.00    +0.000 N 
ATOM     19  C   UNL     1       2.834   7.930  17.871  0.00  0.00    +0.000 C 
ATOM     20  C   UNL     1       1.231   9.166  19.279  0.00  0.00    +0.000 C 
ENDBRANCH  15  16
ENDBRANCH  12  15
ENDBRANCH   2  12
TORSDOF 5
ENDMDL
