MODEL 1
REMARK VINA RESULT:      -6.1      0.000      0.000
REMARK  Name = 
REMARK  6 active torsions:
REMARK  status: ('A' for Active; 'I' for Inactive)
REMARK    1  A    between atoms: C_1  and  N_2
REMARK    2  A    between atoms: N_2  and  C_3
REMARK    3  A    between atoms: N_2  and  C_4
REMARK    4  A    between atoms: C_4  and  C_5
REMARK    5  A    between atoms: C_5  and  N_6
REMARK    6  A    between atoms: C_7  and  C_9
REMARK                            x       y       z     vdW  Elec       q    Type
REMARK                         _______ _______ _______ _____ _____    ______ ____
ROOT
ATOM      1  N   UNL     1       4.146   5.517  17.102  0.00  0.00    +0.000 N 
ATOM      2  C   UNL     1       3.164   5.996  17.950  0.00  0.00    +0.000 C 
ATOM      3  O   UNL     1       3.014   7.183  18.190  0.00  0.00    +0.000 OA
ATOM      4  H   UNL     1       4.185   4.548  16.829  0.00  0.00    +0.000 HD
ENDROOT
BRANCH   2   5
ATOM      5  C   UNL     1       2.296   4.989  18.612  0.00  0.00    +0.000 A 
ATOM      6  C   UNL     1       2.037   5.150  19.980  0.00  0.00    +0.000 A 
ATOM      7  C   UNL     1       1.301   4.189  20.673  0.00  0.00    +0.000 A 
ATOM      8  C   UNL     1       0.808   3.074  19.998  0.00  0.00    +0.000 A 
ATOM      9  C   UNL     1       1.038   2.923  18.629  0.00  0.00    +0.000 A 
ATOM     10  C   UNL     1       1.783   3.877  17.933  0.00  0.00    +0.000 A 
ENDBRANCH   2   5
BRANCH   1  11
ATOM     11  C   UNL     1       5.021   6.466  16.441  0.00  0.00    +0.000 C 
BRANCH  11  12
ATOM     12  C   UNL     1       6.407   6.627  17.099  0.00  0.00    +0.000 C 
BRANCH  12  14
ATOM     13  C   UNL     1       7.609   4.604  17.645  0.00  0.00    +0.000 C 
ATOM     14  N   UNL     1       7.400   5.638  16.626  0.00  0.00    +0.000 NA
ATOM     15  C   UNL     1       6.971   5.001  15.374  0.00  0.00    +0.000 C 
ENDBRANCH  12  14
ENDBRANCH  11  12
ENDBRANCH   1  11
TORSDOF 4
ENDMDL
MODEL 2
REMARK VINA RESULT:      -6.0      1.144      1.173
REMARK  Name = 
REMARK  6 active torsions:
REMARK  status: ('A' for Active; 'I' for Inactive)
REMARK    1  A    between atoms: C_1  and  N_2
REMARK    2  A    between atoms: N_2  and  C_3
REMARK    3  A    between atoms: N_2  and  C_4
REMARK    4  A    between atoms: C_4  and  C_5
REMARK    5  A    between atoms: C_5  and  N_6
REMARK    6  A    between atoms: C_7  and  C_9
REMARK                            x       y       z     vdW  Elec       q    Type
REMARK                         _______ _______ _______ _____ _____    ______ ____
ROOT
ATOM      1  N   UNL     1       4.193   6.066  17.691  0.00  0.00    +0.000 N 
ATOM      2  C   UNL     1       3.598   4.826  17.542  0.00  0.00    +0.000 C 
ATOM      3  O   UNL     1       3.770   4.120  16.563  0.00  0.00    +0.000 OA
ATOM      4  H   UNL     1       4.129   6.586  18.552  0.00  0.00    +0.000 HD
ENDROOT
BRANCH   2   5
ATOM      5  C   UNL     1       2.683   4.385  18.626  0.00  0.00    +0.000 A 
ATOM      6  C   UNL     1       2.841   4.969  19.890  0.00  0.00    +0.000 A 
ATOM      7  C   UNL     1       2.068   4.534  20.967  0.00  0.00    +0.000 A 
ATOM      8  C   UNL     1       1.124   3.526  20.779  0.00  0.00    +0.000 A 
ATOM      9  C   UNL     1       0.942   2.962  19.515  0.00  0.00    +0.000 A 
ATOM     10  C   UNL     1       1.720   3.387  18.437  0.00  0.00    +0.000 A 
ENDBRANCH   2   5
BRANCH   1  11
ATOM     11  C   UNL     1       5.088   6.539  16.653  0.00  0.00    +0.000 C 
BRANCH  11  12
ATOM     12  C   UNL     1       6.551   6.730  17.103  0.00  0.00    +0.000 C 
BRANCH  12  14
ATOM     13  C   UNL     1       7.565   4.634  17.747  0.00  0.00    +0.000 C 
ATOM     14  N   UNL     1       7.444   5.629  16.677  0.00  0.00    +0.000 NA
ATOM     15  C   UNL     1       6.947   4.973  15.462  0.00  0.00    +0.000 C 
ENDBRANCH  12  14
ENDBRANCH  11  12
ENDBRANCH   1  11
TORSDOF 4
ENDMDL
MODEL 3
REMARK VINA RESULT:      -6.0      0.087      1.297
REMARK  Name = 
REMARK  6 active torsions:
REMARK  status: ('A' for Active; 'I' for Inactive)
REMARK    1  A    between atoms: C_1  and  N_2
REMARK    2  A    between atoms: N_2  and  C_3
REMARK    3  A    between atoms: N_2  and  C_4
REMARK    4  A    between atoms: C_4  and  C_5
REMARK    5  A    between atoms: C_5  and  N_6
REMARK    6  A    between atoms: C_7  and  C_9
REMARK                            x       y       z     vdW  Elec       q    Type
REMARK                         _______ _______ _______ _____ _____    ______ ____
ROOT
ATOM      1  N   UNL     1       4.196   5.472  17.168  0.00  0.00    +0.000 N 
ATOM      2  C   UNL     1       3.170   5.945  17.967  0.00  0.00    +0.000 C 
ATOM      3  O   UNL     1       2.931   7.132  18.106  0.00  0.00    +0.000 OA
ATOM      4  H   UNL     1       4.309   4.489  16.976  0.00  0.00    +0.000 HD
ENDROOT
BRANCH   2   5
ATOM      5  C   UNL     1       2.371   4.934  18.705  0.00  0.00    +0.000 A 
ATOM      6  C   UNL     1       1.866   3.846  17.979  0.00  0.00    +0.000 A 
ATOM      7  C   UNL     1       1.038   2.911  18.600  0.00  0.00    +0.000 A 
ATOM      8  C   UNL     1       0.727   3.051  19.951  0.00  0.00    +0.000 A 
ATOM      9  C   UNL     1       1.252   4.116  20.686  0.00  0.00    +0.000 A 
ATOM     10  C   UNL     1       2.073   5.060  20.067  0.00  0.00    +0.000 A 
ENDBRANCH   2   5
BRANCH   1  11
ATOM     11  C   UNL     1       5.006   6.425  16.435  0.00  0.00    +0.000 C 
BRANCH  11  12
ATOM     12  C   UNL     1       6.418   6.648  17.017  0.00  0.00    +0.000 C 
BRANCH  12  14
ATOM     13  C   UNL     1       7.598   4.627  17.617  0.00  0.00    +0.000 C 
ATOM     14  N   UNL     1       7.402   5.637  16.572  0.00  0.00    +0.000 NA
ATOM     15  C   UNL     1       6.971   4.974  15.335  0.00  0.00    +0.000 C 
ENDBRANCH  12  14
ENDBRANCH  11  12
ENDBRANCH   1  11
TORSDOF 4
ENDMDL
MODEL 4
REMARK VINA RESULT:      -6.0      1.021      1.843
REMARK  Name = 
REMARK  6 active torsions:
REMARK  status: ('A' for Active; 'I' for Inactive)
REMARK    1  A    between atoms: C_1  and  N_2
REMARK    2  A    between atoms: N_2  and  C_3
REMARK    3  A    between atoms: N_2  and  C_4
REMARK    4  A    between atoms: C_4  and  C_5
REMARK    5  A    between atoms: C_5  and  N_6
REMARK    6  A    between atoms: C_7  and  C_9
REMARK                            x       y       z     vdW  Elec       q    Type
REMARK                         _______ _______ _______ _____ _____    ______ ____
ROOT
ATOM      1  N   UNL     1       3.925   5.675  17.308  0.00  0.00    +0.000 N 
ATOM      2  C   UNL     1       3.939   5.315  18.644  0.00  0.00    +0.000 C 
ATOM      3  O   UNL     1       4.826   5.648  19.411  0.00  0.00    +0.000 OA
ATOM      4  H   UNL     1       3.131   5.486  16.717  0.00  0.00    +0.000 HD
ENDROOT
BRANCH   2   5
ATOM      5  C   UNL     1       2.830   4.450  19.120  0.00  0.00    +0.000 A 
ATOM      6  C   UNL     1       2.204   3.617  18.182  0.00  0.00    +0.000 A 
ATOM      7  C   UNL     1       1.102   2.847  18.551  0.00  0.00    +0.000 A 
ATOM      8  C   UNL     1       0.632   2.894  19.862  0.00  0.00    +0.000 A 
ATOM      9  C   UNL     1       1.269   3.699  20.808  0.00  0.00    +0.000 A 
ATOM     10  C   UNL     1       2.367   4.480  20.441  0.00  0.00    +0.000 A 
ENDBRANCH   2   5
BRANCH   1  11
ATOM     11  C   UNL     1       4.993   6.513  16.799  0.00  0.00    +0.000 C 
BRANCH  11  12
ATOM     12  C   UNL     1       6.113   5.748  16.063  0.00  0.00    +0.000 C 
BRANCH  12  14
ATOM     13  C   UNL     1       7.501   7.016  17.580  0.00  0.00    +0.000 C 
ATOM     14  N   UNL     1       7.418   5.804  16.759  0.00  0.00    +0.000 NA
ATOM     15  C   UNL     1       7.623   4.628  17.613  0.00  0.00    +0.000 C 
ENDBRANCH  12  14
ENDBRANCH  11  12
ENDBRANCH   1  11
TORSDOF 4
ENDMDL
MODEL 5
REMARK VINA RESULT:      -5.9      0.723      1.353
REMARK  Name = 
REMARK  6 active torsions:
REMARK  status: ('A' for Active; 'I' for Inactive)
REMARK    1  A    between atoms: C_1  and  N_2
REMARK    2  A    between atoms: N_2  and  C_3
REMARK    3  A    between atoms: N_2  and  C_4
REMARK    4  A    between atoms: C_4  and  C_5
REMARK    5  A    between atoms: C_5  and  N_6
REMARK    6  A    between atoms: C_7  and  C_9
REMARK                            x       y       z     vdW  Elec       q    Type
REMARK                         _______ _______ _______ _____ _____    ______ ____
ROOT
ATOM      1  N   UNL     1       4.374   4.890  16.787  0.00  0.00    +0.000 N 
ATOM      2  C   UNL     1       3.564   5.519  17.716  0.00  0.00    +0.000 C 
ATOM      3  O   UNL     1       3.676   6.698  18.002  0.00  0.00    +0.000 OA
ATOM      4  H   UNL     1       4.196   3.946  16.481  0.00  0.00    +0.000 HD
ENDROOT
BRANCH   2   5
ATOM      5  C   UNL     1       2.552   4.678  18.404  0.00  0.00    +0.000 A 
ATOM      6  C   UNL     1       2.112   5.092  19.669  0.00  0.00    +0.000 A 
ATOM      7  C   UNL     1       1.227   4.299  20.400  0.00  0.00    +0.000 A 
ATOM      8  C   UNL     1       0.767   3.099  19.861  0.00  0.00    +0.000 A 
ATOM      9  C   UNL     1       1.178   2.696  18.590  0.00  0.00    +0.000 A 
ATOM     10  C   UNL     1       2.072   3.482  17.859  0.00  0.00    +0.000 A 
ENDBRANCH   2   5
BRANCH   1  11
ATOM     11  C   UNL     1       5.381   5.671  16.097  0.00  0.00    +0.000 C 
BRANCH  11  12
ATOM     12  C   UNL     1       6.828   5.170  16.292  0.00  0.00    +0.000 C 
BRANCH  12  14
ATOM     13  C   UNL     1       7.075   7.338  17.328  0.00  0.00    +0.000 C 
ATOM     14  N   UNL     1       7.598   5.969  17.270  0.00  0.00    +0.000 NA
ATOM     15  C   UNL     1       7.546   5.375  18.612  0.00  0.00    +0.000 C 
ENDBRANCH  12  14
ENDBRANCH  11  12
ENDBRANCH   1  11
TORSDOF 4
ENDMDL
MODEL 6
REMARK VINA RESULT:      -5.9      2.455      5.979
REMARK  Name = 
REMARK  6 active torsions:
REMARK  status: ('A' for Active; 'I' for Inactive)
REMARK    1  A    between atoms: C_1  and  N_2
REMARK    2  A    between atoms: N_2  and  C_3
REMARK    3  A    between atoms: N_2  and  C_4
REMARK    4  A    between atoms: C_4  and  C_5
REMARK    5  A    between atoms: C_5  and  N_6
REMARK    6  A    between atoms: C_7  and  C_9
REMARK                            x       y       z     vdW  Elec       q    Type
REMARK                         _______ _______ _______ _____ _____    ______ ____
ROOT
ATOM      1  N   UNL     1       5.111   3.327  19.414  0.00  0.00    +0.000 N 
ATOM      2  C   UNL     1       4.771   4.426  18.646  0.00  0.00    +0.000 C 
ATOM      3  O   UNL     1       3.677   4.556  18.122  0.00  0.00    +0.000 OA
ATOM      4  H   UNL     1       5.977   3.288  19.930  0.00  0.00    +0.000 HD
ENDROOT
BRANCH   2   5
ATOM      5  C   UNL     1       5.822   5.454  18.439  0.00  0.00    +0.000 A 
ATOM      6  C   UNL     1       5.613   6.406  17.431  0.00  0.00    +0.000 A 
ATOM      7  C   UNL     1       6.603   7.343  17.134  0.00  0.00    +0.000 A 
ATOM      8  C   UNL     1       7.797   7.340  17.852  0.00  0.00    +0.000 A 
ATOM      9  C   UNL     1       7.998   6.413  18.876  0.00  0.00    +0.000 A 
ATOM     10  C   UNL     1       7.015   5.467  19.171  0.00  0.00    +0.000 A 
ENDBRANCH   2   5
BRANCH   1  11
ATOM     11  C   UNL     1       4.118   2.295  19.636  0.00  0.00    +0.000 C 
BRANCH  11  12
ATOM     12  C   UNL     1       3.132   2.589  20.786  0.00  0.00    +0.000 C 
BRANCH  12  14
ATOM     13  C   UNL     1       1.046   3.779  20.522  0.00  0.00    +0.000 C 
ATOM     14  N   UNL     1       1.712   2.480  20.384  0.00  0.00    +0.000 NA
ATOM     15  C   UNL     1       1.580   2.015  18.997  0.00  0.00    +0.000 C 
ENDBRANCH  12  14
ENDBRANCH  11  12
ENDBRANCH   1  11
TORSDOF 4
ENDMDL
MODEL 7
REMARK VINA RESULT:      -5.9      1.002      1.308
REMARK  Name = 
REMARK  6 active torsions:
REMARK  status: ('A' for Active; 'I' for Inactive)
REMARK    1  A    between atoms: C_1  and  N_2
REMARK    2  A    between atoms: N_2  and  C_3
REMARK    3  A    between atoms: N_2  and  C_4
REMARK    4  A    between atoms: C_4  and  C_5
REMARK    5  A    between atoms: C_5  and  N_6
REMARK    6  A    between atoms: C_7  and  C_9
REMARK                            x       y       z     vdW  Elec       q    Type
REMARK                         _______ _______ _______ _____ _____    ______ ____
ROOT
ATOM      1  N   UNL     1       4.492   4.850  16.960  0.00  0.00    +0.000 N 
ATOM      2  C   UNL     1       3.543   5.580  17.653  0.00  0.00    +0.000 C 
ATOM      3  O   UNL     1       3.519   6.799  17.660  0.00  0.00    +0.000 OA
ATOM      4  H   UNL     1       4.431   3.847  16.874  0.00  0.00    +0.000 HD
ENDROOT
BRANCH   2   5
ATOM      5  C   UNL     1       2.549   4.811  18.445  0.00  0.00    +0.000 A 
ATOM      6  C   UNL     1       2.268   5.254  19.745  0.00  0.00    +0.000 A 
ATOM      7  C   UNL     1       1.409   4.524  20.565  0.00  0.00    +0.000 A 
ATOM      8  C   UNL     1       0.815   3.359  20.083  0.00  0.00    +0.000 A 
ATOM      9  C   UNL     1       1.067   2.929  18.779  0.00  0.00    +0.000 A 
ATOM     10  C   UNL     1       1.935   3.651  17.957  0.00  0.00    +0.000 A 
ENDBRANCH   2   5
BRANCH   1  11
ATOM     11  C   UNL     1       5.487   5.560  16.180  0.00  0.00    +0.000 C 
BRANCH  11  12
ATOM     12  C   UNL     1       6.898   5.579  16.804  0.00  0.00    +0.000 C 
BRANCH  12  14
ATOM     13  C   UNL     1       7.768   5.830  19.044  0.00  0.00    +0.000 C 
ATOM     14  N   UNL     1       7.012   6.483  17.971  0.00  0.00    +0.000 NA
ATOM     15  C   UNL     1       7.674   7.743  17.612  0.00  0.00    +0.000 C 
ENDBRANCH  12  14
ENDBRANCH  11  12
ENDBRANCH   1  11
TORSDOF 4
ENDMDL
MODEL 8
REMARK VINA RESULT:      -5.9      1.215      1.802
REMARK  Name = 
REMARK  6 active torsions:
REMARK  status: ('A' for Active; 'I' for Inactive)
REMARK    1  A    between atoms: C_1  and  N_2
REMARK    2  A    between atoms: N_2  and  C_3
REMARK    3  A    between atoms: N_2  and  C_4
REMARK    4  A    between atoms: C_4  and  C_5
REMARK    5  A    between atoms: C_5  and  N_6
REMARK    6  A    between atoms: C_7  and  C_9
REMARK                            x       y       z     vdW  Elec       q    Type
REMARK                         _______ _______ _______ _____ _____    ______ ____
ROOT
ATOM      1  N   UNL     1       5.444   4.430  19.165  0.00  0.00    +0.000 N 
ATOM      2  C   UNL     1       4.263   5.100  18.898  0.00  0.00    +0.000 C 
ATOM      3  O   UNL     1       4.228   6.256  18.512  0.00  0.00    +0.000 OA
ATOM      4  H   UNL     1       5.459   3.445  19.375  0.00  0.00    +0.000 HD
ENDROOT
BRANCH   2   5
ATOM      5  C   UNL     1       2.999   4.359  19.142  0.00  0.00    +0.000 A 
ATOM      6  C   UNL     1       2.249   4.704  20.274  0.00  0.00    +0.000 A 
ATOM      7  C   UNL     1       1.099   3.985  20.601  0.00  0.00    +0.000 A 
ATOM      8  C   UNL     1       0.687   2.931  19.788  0.00  0.00    +0.000 A 
ATOM      9  C   UNL     1       1.413   2.602  18.642  0.00  0.00    +0.000 A 
ATOM     10  C   UNL     1       2.571   3.312  18.316  0.00  0.00    +0.000 A 
ENDBRANCH   2   5
BRANCH   1  11
ATOM     11  C   UNL     1       6.701   5.119  18.949  0.00  0.00    +0.000 C 
BRANCH  11  12
ATOM     12  C   UNL     1       7.464   4.679  17.683  0.00  0.00    +0.000 C 
BRANCH  12  14
ATOM     13  C   UNL     1       6.349   5.494  15.701  0.00  0.00    +0.000 C 
ATOM     14  N   UNL     1       7.474   5.706  16.617  0.00  0.00    +0.000 NA
ATOM     15  C   UNL     1       7.393   7.061  17.175  0.00  0.00    +0.000 C 
ENDBRANCH  12  14
ENDBRANCH  11  12
ENDBRANCH   1  11
TORSDOF 4
ENDMDL
MODEL 9
REMARK VINA RESULT:      -5.9      0.918      1.803
REMARK  Name = 
REMARK  6 active torsions:
REMARK  status: ('A' for Active; 'I' for Inactive)
REMARK    1  A    between atoms: C_1  and  N_2
REMARK    2  A    between atoms: N_2  and  C_3
REMARK    3  A    between atoms: N_2  and  C_4
REMARK    4  A    between atoms: C_4  and  C_5
REMARK    5  A    between atoms: C_5  and  N_6
REMARK    6  A    between atoms: C_7  and  C_9
REMARK                            x       y       z     vdW  Elec       q    Type
REMARK                         _______ _______ _______ _____ _____    ______ ____
ROOT
ATOM      1  N   UNL     1       4.361   5.122  16.951  0.00  0.00    +0.000 N 
ATOM      2  C   UNL     1       3.464   5.726  17.815  0.00  0.00    +0.000 C 
ATOM      3  O   UNL     1       3.412   6.933  17.980  0.00  0.00    +0.000 OA
ATOM      4  H   UNL     1       4.316   4.137  16.744  0.00  0.00    +0.000 HD
ENDROOT
BRANCH   2   5
ATOM      5  C   UNL     1       2.569   4.829  18.590  0.00  0.00    +0.000 A 
ATOM      6  C   UNL     1       2.062   3.695  17.941  0.00  0.00    +0.000 A 
ATOM      7  C   UNL     1       1.149   2.863  18.590  0.00  0.00    +0.000 A 
ATOM      8  C   UNL     1       0.754   3.154  19.894  0.00  0.00    +0.000 A 
ATOM      9  C   UNL     1       1.278   4.265  20.556  0.00  0.00    +0.000 A 
ATOM     10  C   UNL     1       2.184   5.107  19.907  0.00  0.00    +0.000 A 
ENDBRANCH   2   5
BRANCH   1  11
ATOM     11  C   UNL     1       5.259   5.959  16.181  0.00  0.00    +0.000 C 
BRANCH  11  12
ATOM     12  C   UNL     1       6.731   5.917  16.644  0.00  0.00    +0.000 C 
BRANCH  12  14
ATOM     13  C   UNL     1       7.713   5.872  18.850  0.00  0.00    +0.000 C 
ATOM     14  N   UNL     1       6.981   6.692  17.879  0.00  0.00    +0.000 NA
ATOM     15  C   UNL     1       7.748   7.913  17.603  0.00  0.00    +0.000 C 
ENDBRANCH  12  14
ENDBRANCH  11  12
ENDBRANCH   1  11
TORSDOF 4
ENDMDL
