MODEL 1
REMARK VINA RESULT:      -8.6      0.000      0.000
REMARK  Name = 
REMARK  7 active torsions:
REMARK  status: ('A' for Active; 'I' for Inactive)
REMARK    1  A    between atoms: C_1  and  C_2
REMARK    2  A    between atoms: C_4  and  C_5
REMARK    3  A    between atoms: C_6  and  N_7
REMARK    4  A    between atoms: N_7  and  C_8
REMARK    5  A    between atoms: C_11  and  N_12
REMARK    6  A    between atoms: C_21  and  C_22
REMARK    7  A    between atoms: N_25  and  C_26
REMARK                            x       y       z     vdW  Elec       q    Type
REMARK                         _______ _______ _______ _____ _____    ______ ____
ROOT
ATOM      1  C   UNL     1       3.600   3.880  19.669  0.00  0.00    +0.000 A 
ATOM      2  C   UNL     1       2.502   4.667  19.865  0.00  0.00    +0.000 A 
ATOM      3  C   UNL     1       1.543   4.276  20.905  0.00  0.00    +0.000 A 
ATOM      4  C   UNL     1       1.695   3.172  21.640  0.00  0.00    +0.000 A 
ATOM      5  N   UNL     1       2.779   2.374  21.448  0.00  0.00    +0.000 N 
ATOM      6  C   UNL     1       3.753   2.632  20.525  0.00  0.00    +0.000 A 
ATOM      7  O   UNL     1       4.691   1.843  20.401  0.00  0.00    +0.000 OA
ATOM      8  H   UNL     1       2.912   1.536  22.002  0.00  0.00    +0.000 HD
ENDROOT
BRANCH   1  12
ATOM      9  C   UNL     1       7.488   6.441  18.269  0.00  0.00    +0.000 C 
ATOM     10  C   UNL     1       6.451   5.399  18.130  0.00  0.00    +0.000 A 
ATOM     11  N   UNL     1       5.670   5.019  19.190  0.00  0.00    +0.000 N 
ATOM     12  C   UNL     1       4.660   4.187  18.748  0.00  0.00    +0.000 A 
ATOM     13  N   UNL     1       4.890   3.883  17.478  0.00  0.00    +0.000 NA
ATOM     14  C   UNL     1       5.970   4.651  17.078  0.00  0.00    +0.000 A 
ATOM     15  H   UNL     1       5.705   5.421  20.120  0.00  0.00    +0.000 HD
BRANCH  14  16
ATOM     16  C   UNL     1       6.409   4.637  15.691  0.00  0.00    +0.000 A 
ATOM     17  C   UNL     1       7.393   5.449  15.096  0.00  0.00    +0.000 A 
ATOM     18  N   UNL     1       7.560   5.188  13.793  0.00  0.00    +0.000 NA
ATOM     19  N   UNL     1       6.665   4.209  13.561  0.00  0.00    +0.000 N 
ATOM     20  C   UNL     1       6.554   3.636  12.243  0.00  0.00    +0.000 C 
ATOM     21  C   UNL     1       5.949   3.846  14.663  0.00  0.00    +0.000 A 
ENDBRANCH  14  16
ENDBRANCH   1  12
BRANCH   2  22
ATOM     22  N   UNL     1       2.143   5.837  19.189  0.00  0.00    +0.000 N 
ATOM     23  H   UNL     1       1.944   5.684  18.204  0.00  0.00    +0.000 HD
BRANCH  22  24
ATOM     24  C   UNL     1       2.800   7.132  19.423  0.00  0.00    +0.000 C 
ATOM     25  C   UNL     1       3.053   7.850  18.086  0.00  0.00    +0.000 C 
ATOM     26  C   UNL     1       1.808   8.507  17.484  0.00  0.00    +0.000 C 
ATOM     27  C   UNL     1       1.153   9.452  18.492  0.00  0.00    +0.000 C 
ATOM     28  C   UNL     1       0.759   8.683  19.755  0.00  0.00    +0.000 C 
ATOM     29  C   UNL     1       1.965   7.983  20.391  0.00  0.00    +0.000 C 
BRANCH  27  30
ATOM     30  N   UNL     1      -0.020  10.099  17.909  0.00  0.00    +0.000 NA
ATOM     31  H   UNL     1      -0.612   9.412  17.446  0.00  0.00    +0.000 HD
ATOM     32  H   UNL     1       0.271  10.757  17.186  0.00  0.00    +0.000 HD
ENDBRANCH  27  30
ENDBRANCH  22  24
ENDBRANCH   2  22
TORSDOF 5
ENDMDL
MODEL 2
REMARK VINA RESULT:      -8.6      2.544      6.796
REMARK  Name = 
REMARK  7 active torsions:
REMARK  status: ('A' for Active; 'I' for Inactive)
REMARK    1  A    between atoms: C_1  and  C_2
REMARK    2  A    between atoms: C_4  and  C_5
REMARK    3  A    between atoms: C_6  and  N_7
REMARK    4  A    between atoms: N_7  and  C_8
REMARK    5  A    between atoms: C_11  and  N_12
REMARK    6  A    between atoms: C_21  and  C_22
REMARK    7  A    between atoms: N_25  and  C_26
REMARK                            x       y       z     vdW  Elec       q    Type
REMARK                         _______ _______ _______ _____ _____    ______ ____
ROOT
ATOM      1  C   UNL     1       2.738   4.160  19.183  0.00  0.00    +0.000 A 
ATOM      2  C   UNL     1       4.038   3.833  18.925  0.00  0.00    +0.000 A 
ATOM      3  C   UNL     1       4.361   2.426  18.660  0.00  0.00    +0.000 A 
ATOM      4  C   UNL     1       3.438   1.461  18.691  0.00  0.00    +0.000 A 
ATOM      5  N   UNL     1       2.141   1.773  18.958  0.00  0.00    +0.000 N 
ATOM      6  C   UNL     1       1.706   3.044  19.205  0.00  0.00    +0.000 A 
ATOM      7  O   UNL     1       0.515   3.235  19.461  0.00  0.00    +0.000 OA
ATOM      8  H   UNL     1       1.428   1.053  18.978  0.00  0.00    +0.000 HD
ENDROOT
BRANCH   1  12
ATOM      9  C   UNL     1       2.433   8.843  17.914  0.00  0.00    +0.000 C 
ATOM     10  C   UNL     1       2.156   7.665  18.760  0.00  0.00    +0.000 A 
ATOM     11  N   UNL     1       2.428   6.393  18.330  0.00  0.00    +0.000 N 
ATOM     12  C   UNL     1       2.267   5.504  19.375  0.00  0.00    +0.000 A 
ATOM     13  N   UNL     1       1.724   6.151  20.398  0.00  0.00    +0.000 NA
ATOM     14  C   UNL     1       1.684   7.489  20.042  0.00  0.00    +0.000 A 
ATOM     15  H   UNL     1       2.856   6.152  17.443  0.00  0.00    +0.000 HD
BRANCH  14  16
ATOM     16  C   UNL     1       1.244   8.490  21.000  0.00  0.00    +0.000 A 
ATOM     17  C   UNL     1       1.793   8.763  22.268  0.00  0.00    +0.000 A 
ATOM     18  N   UNL     1       1.151   9.750  22.908  0.00  0.00    +0.000 NA
ATOM     19  N   UNL     1       0.182  10.097  22.040  0.00  0.00    +0.000 N 
ATOM     20  C   UNL     1      -0.728  11.164  22.370  0.00  0.00    +0.000 C 
ATOM     21  C   UNL     1       0.192   9.371  20.886  0.00  0.00    +0.000 A 
ENDBRANCH  14  16
ENDBRANCH   1  12
BRANCH   2  22
ATOM     22  N   UNL     1       5.152   4.678  18.876  0.00  0.00    +0.000 N 
ATOM     23  H   UNL     1       4.961   5.610  19.232  0.00  0.00    +0.000 HD
BRANCH  22  24
ATOM     24  C   UNL     1       6.091   4.701  17.745  0.00  0.00    +0.000 C 
ATOM     25  C   UNL     1       5.642   5.741  16.703  0.00  0.00    +0.000 C 
ATOM     26  C   UNL     1       5.956   7.188  17.088  0.00  0.00    +0.000 C 
ATOM     27  C   UNL     1       7.441   7.353  17.415  0.00  0.00    +0.000 C 
ATOM     28  C   UNL     1       7.832   6.425  18.567  0.00  0.00    +0.000 C 
ATOM     29  C   UNL     1       7.519   4.959  18.246  0.00  0.00    +0.000 C 
BRANCH  27  30
ATOM     30  N   UNL     1       7.745   8.739  17.758  0.00  0.00    +0.000 NA
ATOM     31  H   UNL     1       8.646   9.013  17.368  0.00  0.00    +0.000 HD
ATOM     32  H   UNL     1       7.833   8.835  18.770  0.00  0.00    +0.000 HD
ENDBRANCH  27  30
ENDBRANCH  22  24
ENDBRANCH   2  22
TORSDOF 5
ENDMDL
MODEL 3
REMARK VINA RESULT:      -8.3      2.212      6.857
REMARK  Name = 
REMARK  7 active torsions:
REMARK  status: ('A' for Active; 'I' for Inactive)
REMARK    1  A    between atoms: C_1  and  C_2
REMARK    2  A    between atoms: C_4  and  C_5
REMARK    3  A    between atoms: C_6  and  N_7
REMARK    4  A    between atoms: N_7  and  C_8
REMARK    5  A    between atoms: C_11  and  N_12
REMARK    6  A    between atoms: C_21  and  C_22
REMARK    7  A    between atoms: N_25  and  C_26
REMARK                            x       y       z     vdW  Elec       q    Type
REMARK                         _______ _______ _______ _____ _____    ______ ____
ROOT
ATOM      1  C   UNL     1       4.886   6.070  17.197  0.00  0.00    +0.000 A 
ATOM      2  C   UNL     1       4.717   4.752  16.885  0.00  0.00    +0.000 A 
ATOM      3  C   UNL     1       5.835   4.037  16.258  0.00  0.00    +0.000 A 
ATOM      4  C   UNL     1       6.990   4.635  15.960  0.00  0.00    +0.000 A 
ATOM      5  N   UNL     1       7.168   5.951  16.257  0.00  0.00    +0.000 N 
ATOM      6  C   UNL     1       6.215   6.725  16.855  0.00  0.00    +0.000 A 
ATOM      7  O   UNL     1       6.451   7.916  17.067  0.00  0.00    +0.000 OA
ATOM      8  H   UNL     1       8.042   6.417  16.043  0.00  0.00    +0.000 HD
ENDROOT
BRANCH   1  12
ATOM      9  C   UNL     1       1.631   6.790  20.736  0.00  0.00    +0.000 C 
ATOM     10  C   UNL     1       2.407   7.161  19.536  0.00  0.00    +0.000 A 
ATOM     11  N   UNL     1       3.497   6.434  19.134  0.00  0.00    +0.000 N 
ATOM     12  C   UNL     1       3.911   6.868  17.889  0.00  0.00    +0.000 A 
ATOM     13  N   UNL     1       3.234   7.965  17.579  0.00  0.00    +0.000 NA
ATOM     14  C   UNL     1       2.281   8.134  18.569  0.00  0.00    +0.000 A 
ATOM     15  H   UNL     1       3.840   5.592  19.582  0.00  0.00    +0.000 HD
BRANCH  14  16
ATOM     16  C   UNL     1       1.291   9.194  18.463  0.00  0.00    +0.000 A 
ATOM     17  C   UNL     1       1.351  10.481  19.031  0.00  0.00    +0.000 A 
ATOM     18  N   UNL     1       0.271  11.222  18.746  0.00  0.00    +0.000 NA
ATOM     19  N   UNL     1      -0.481  10.392  18.000  0.00  0.00    +0.000 N 
ATOM     20  C   UNL     1      -1.745  10.844  17.477  0.00  0.00    +0.000 C 
ATOM     21  C   UNL     1       0.083   9.165  17.806  0.00  0.00    +0.000 A 
ENDBRANCH  14  16
ENDBRANCH   1  12
BRANCH   2  22
ATOM     22  N   UNL     1       3.586   3.953  17.083  0.00  0.00    +0.000 N 
ATOM     23  H   UNL     1       2.763   4.485  17.352  0.00  0.00    +0.000 HD
BRANCH  22  24
ATOM     24  C   UNL     1       3.637   2.643  17.749  0.00  0.00    +0.000 C 
ATOM     25  C   UNL     1       4.156   2.799  19.189  0.00  0.00    +0.000 C 
ATOM     26  C   UNL     1       3.117   3.341  20.173  0.00  0.00    +0.000 C 
ATOM     27  C   UNL     1       1.846   2.491  20.144  0.00  0.00    +0.000 C 
ATOM     28  C   UNL     1       1.252   2.482  18.733  0.00  0.00    +0.000 C 
ATOM     29  C   UNL     1       2.258   1.968  17.698  0.00  0.00    +0.000 C 
BRANCH  27  30
ATOM     30  N   UNL     1       0.864   2.993  21.101  0.00  0.00    +0.000 NA
ATOM     31  H   UNL     1       0.073   2.355  21.168  0.00  0.00    +0.000 HD
ATOM     32  H   UNL     1       0.485   3.882  20.775  0.00  0.00    +0.000 HD
ENDBRANCH  27  30
ENDBRANCH  22  24
ENDBRANCH   2  22
TORSDOF 5
ENDMDL
MODEL 4
REMARK VINA RESULT:      -8.2      1.979      4.359
REMARK  Name = 
REMARK  7 active torsions:
REMARK  status: ('A' for Active; 'I' for Inactive)
REMARK    1  A    between atoms: C_1  and  C_2
REMARK    2  A    between atoms: C_4  and  C_5
REMARK    3  A    between atoms: C_6  and  N_7
REMARK    4  A    between atoms: N_7  and  C_8
REMARK    5  A    between atoms: C_11  and  N_12
REMARK    6  A    between atoms: C_21  and  C_22
REMARK    7  A    between atoms: N_25  and  C_26
REMARK                            x       y       z     vdW  Elec       q    Type
REMARK                         _______ _______ _______ _____ _____    ______ ____
ROOT
ATOM      1  C   UNL     1       2.961   6.951  18.902  0.00  0.00    +0.000 A 
ATOM      2  C   UNL     1       2.381   6.538  20.066  0.00  0.00    +0.000 A 
ATOM      3  C   UNL     1       1.323   7.371  20.650  0.00  0.00    +0.000 A 
ATOM      4  C   UNL     1       0.934   8.523  20.100  0.00  0.00    +0.000 A 
ATOM      5  N   UNL     1       1.511   8.951  18.945  0.00  0.00    +0.000 N 
ATOM      6  C   UNL     1       2.494   8.263  18.291  0.00  0.00    +0.000 A 
ATOM      7  O   UNL     1       2.979   8.735  17.262  0.00  0.00    +0.000 OA
ATOM      8  H   UNL     1       1.222   9.820  18.511  0.00  0.00    +0.000 HD
ENDROOT
BRANCH   1  12
ATOM      9  C   UNL     1       7.392   5.017  18.386  0.00  0.00    +0.000 C 
ATOM     10  C   UNL     1       6.008   5.322  17.971  0.00  0.00    +0.000 A 
ATOM     11  N   UNL     1       5.084   5.809  18.857  0.00  0.00    +0.000 N 
ATOM     12  C   UNL     1       3.945   6.194  18.177  0.00  0.00    +0.000 A 
ATOM     13  N   UNL     1       4.052   5.794  16.917  0.00  0.00    +0.000 NA
ATOM     14  C   UNL     1       5.332   5.287  16.771  0.00  0.00    +0.000 A 
ATOM     15  H   UNL     1       5.263   6.028  19.831  0.00  0.00    +0.000 HD
BRANCH  14  16
ATOM     16  C   UNL     1       5.810   4.864  15.465  0.00  0.00    +0.000 A 
ATOM     17  C   UNL     1       7.041   5.181  14.859  0.00  0.00    +0.000 A 
ATOM     18  N   UNL     1       7.175   4.634  13.643  0.00  0.00    +0.000 NA
ATOM     19  N   UNL     1       6.014   3.973  13.476  0.00  0.00    +0.000 N 
ATOM     20  C   UNL     1       5.782   3.226  12.266  0.00  0.00    +0.000 C 
ATOM     21  C   UNL     1       5.162   4.083  14.535  0.00  0.00    +0.000 A 
ENDBRANCH  14  16
ENDBRANCH   1  12
BRANCH   2  22
ATOM     22  N   UNL     1       2.661   5.390  20.815  0.00  0.00    +0.000 N 
ATOM     23  H   UNL     1       3.638   5.112  20.769  0.00  0.00    +0.000 HD
BRANCH  22  24
ATOM     24  C   UNL     1       1.760   4.228  20.869  0.00  0.00    +0.000 C 
ATOM     25  C   UNL     1       1.201   3.923  19.468  0.00  0.00    +0.000 C 
ATOM     26  C   UNL     1       2.188   3.207  18.544  0.00  0.00    +0.000 C 
ATOM     27  C   UNL     1       2.725   1.935  19.203  0.00  0.00    +0.000 C 
ATOM     28  C   UNL     1       3.423   2.280  20.520  0.00  0.00    +0.000 C 
ATOM     29  C   UNL     1       2.487   3.022  21.481  0.00  0.00    +0.000 C 
BRANCH  27  30
ATOM     30  N   UNL     1       3.647   1.238  18.311  0.00  0.00    +0.000 NA
ATOM     31  H   UNL     1       3.530   0.230  18.395  0.00  0.00    +0.000 HD
ATOM     32  H   UNL     1       4.610   1.436  18.584  0.00  0.00    +0.000 HD
ENDBRANCH  27  30
ENDBRANCH  22  24
ENDBRANCH   2  22
TORSDOF 5
ENDMDL
MODEL 5
REMARK VINA RESULT:      -8.1      2.450      6.257
REMARK  Name = 
REMARK  7 active torsions:
REMARK  status: ('A' for Active; 'I' for Inactive)
REMARK    1  A    between atoms: C_1  and  C_2
REMARK    2  A    between atoms: C_4  and  C_5
REMARK    3  A    between atoms: C_6  and  N_7
REMARK    4  A    between atoms: N_7  and  C_8
REMARK    5  A    between atoms: C_11  and  N_12
REMARK    6  A    between atoms: C_21  and  C_22
REMARK    7  A    between atoms: N_25  and  C_26
REMARK                            x       y       z     vdW  Elec       q    Type
REMARK                         _______ _______ _______ _____ _____    ______ ____
ROOT
ATOM      1  C   UNL     1       2.713   4.528  19.615  0.00  0.00    +0.000 A 
ATOM      2  C   UNL     1       3.953   4.064  19.281  0.00  0.00    +0.000 A 
ATOM      3  C   UNL     1       4.112   2.627  19.030  0.00  0.00    +0.000 A 
ATOM      4  C   UNL     1       3.101   1.764  19.143  0.00  0.00    +0.000 A 
ATOM      5  N   UNL     1       1.862   2.212  19.484  0.00  0.00    +0.000 N 
ATOM      6  C   UNL     1       1.576   3.525  19.728  0.00  0.00    +0.000 A 
ATOM      7  O   UNL     1       0.431   3.842  20.055  0.00  0.00    +0.000 OA
ATOM      8  H   UNL     1       1.083   1.570  19.566  0.00  0.00    +0.000 HD
ENDROOT
BRANCH   1  12
ATOM      9  C   UNL     1       0.355   8.144  21.852  0.00  0.00    +0.000 C 
ATOM     10  C   UNL     1       1.279   7.562  20.858  0.00  0.00    +0.000 A 
ATOM     11  N   UNL     1       1.710   6.265  20.953  0.00  0.00    +0.000 N 
ATOM     12  C   UNL     1       2.395   5.917  19.804  0.00  0.00    +0.000 A 
ATOM     13  N   UNL     1       2.567   7.008  19.071  0.00  0.00    +0.000 NA
ATOM     14  C   UNL     1       1.855   8.019  19.693  0.00  0.00    +0.000 A 
ATOM     15  H   UNL     1       1.423   5.600  21.663  0.00  0.00    +0.000 HD
BRANCH  14  16
ATOM     16  C   UNL     1       1.746   9.330  19.073  0.00  0.00    +0.000 A 
ATOM     17  C   UNL     1       2.319   9.753  17.858  0.00  0.00    +0.000 A 
ATOM     18  N   UNL     1       2.031  11.029  17.567  0.00  0.00    +0.000 NA
ATOM     19  N   UNL     1       1.276  11.417  18.613  0.00  0.00    +0.000 N 
ATOM     20  C   UNL     1       0.747  12.757  18.656  0.00  0.00    +0.000 C 
ATOM     21  C   UNL     1       1.081  10.439  19.542  0.00  0.00    +0.000 A 
ENDBRANCH  14  16
ENDBRANCH   1  12
BRANCH   2  22
ATOM     22  N   UNL     1       5.141   4.789  19.142  0.00  0.00    +0.000 N 
ATOM     23  H   UNL     1       5.067   5.745  19.477  0.00  0.00    +0.000 HD
BRANCH  22  24
ATOM     24  C   UNL     1       6.008   4.685  17.958  0.00  0.00    +0.000 C 
ATOM     25  C   UNL     1       5.516   5.637  16.854  0.00  0.00    +0.000 C 
ATOM     26  C   UNL     1       5.882   7.105  17.085  0.00  0.00    +0.000 C 
ATOM     27  C   UNL     1       7.388   7.261  17.305  0.00  0.00    +0.000 C 
ATOM     28  C   UNL     1       7.831   6.432  18.512  0.00  0.00    +0.000 C 
ATOM     29  C   UNL     1       7.470   4.952  18.347  0.00  0.00    +0.000 C 
BRANCH  27  30
ATOM     30  N   UNL     1       7.740   8.665  17.500  0.00  0.00    +0.000 NA
ATOM     31  H   UNL     1       8.307   9.001  16.724  0.00  0.00    +0.000 HD
ATOM     32  H   UNL     1       8.316   8.765  18.337  0.00  0.00    +0.000 HD
ENDBRANCH  27  30
ENDBRANCH  22  24
ENDBRANCH   2  22
TORSDOF 5
ENDMDL
MODEL 6
REMARK VINA RESULT:      -8.0      2.170      6.968
REMARK  Name = 
REMARK  7 active torsions:
REMARK  status: ('A' for Active; 'I' for Inactive)
REMARK    1  A    between atoms: C_1  and  C_2
REMARK    2  A    between atoms: C_4  and  C_5
REMARK    3  A    between atoms: C_6  and  N_7
REMARK    4  A    between atoms: N_7  and  C_8
REMARK    5  A    between atoms: C_11  and  N_12
REMARK    6  A    between atoms: C_21  and  C_22
REMARK    7  A    between atoms: N_25  and  C_26
REMARK                            x       y       z     vdW  Elec       q    Type
REMARK                         _______ _______ _______ _____ _____    ______ ____
ROOT
ATOM      1  C   UNL     1       4.262   5.791  17.422  0.00  0.00    +0.000 A 
ATOM      2  C   UNL     1       3.885   4.529  17.067  0.00  0.00    +0.000 A 
ATOM      3  C   UNL     1       4.855   3.686  16.359  0.00  0.00    +0.000 A 
ATOM      4  C   UNL     1       6.073   4.121  16.027  0.00  0.00    +0.000 A 
ATOM      5  N   UNL     1       6.458   5.381  16.366  0.00  0.00    +0.000 N 
ATOM      6  C   UNL     1       5.658   6.259  17.040  0.00  0.00    +0.000 A 
ATOM      7  O   UNL     1       6.078   7.391  17.287  0.00  0.00    +0.000 OA
ATOM      8  H   UNL     1       7.382   5.722  16.128  0.00  0.00    +0.000 HD
ENDROOT
BRANCH   1  12
ATOM      9  C   UNL     1       1.422   6.858  21.221  0.00  0.00    +0.000 C 
ATOM     10  C   UNL     1       2.132   7.145  19.959  0.00  0.00    +0.000 A 
ATOM     11  N   UNL     1       3.092   6.300  19.468  0.00  0.00    +0.000 N 
ATOM     12  C   UNL     1       3.448   6.692  18.191  0.00  0.00    +0.000 A 
ATOM     13  N   UNL     1       2.878   7.862  17.937  0.00  0.00    +0.000 NA
ATOM     14  C   UNL     1       2.039   8.133  19.003  0.00  0.00    +0.000 A 
ATOM     15  H   UNL     1       3.372   5.420  19.887  0.00  0.00    +0.000 HD
BRANCH  14  16
ATOM     16  C   UNL     1       1.173   9.301  18.979  0.00  0.00    +0.000 A 
ATOM     17  C   UNL     1       0.265   9.673  17.968  0.00  0.00    +0.000 A 
ATOM     18  N   UNL     1      -0.382  10.813  18.249  0.00  0.00    +0.000 NA
ATOM     19  N   UNL     1       0.130  11.168  19.442  0.00  0.00    +0.000 N 
ATOM     20  C   UNL     1      -0.341  12.363  20.097  0.00  0.00    +0.000 C 
ATOM     21  C   UNL     1       1.066  10.299  19.920  0.00  0.00    +0.000 A 
ENDBRANCH  14  16
ENDBRANCH   1  12
BRANCH   2  22
ATOM     22  N   UNL     1       2.657   3.897  17.289  0.00  0.00    +0.000 N 
ATOM     23  H   UNL     1       1.942   4.527  17.643  0.00  0.00    +0.000 HD
BRANCH  22  24
ATOM     24  C   UNL     1       2.541   2.551  17.870  0.00  0.00    +0.000 C 
ATOM     25  C   UNL     1       3.698   2.295  18.853  0.00  0.00    +0.000 C 
ATOM     26  C   UNL     1       3.526   2.976  20.212  0.00  0.00    +0.000 C 
ATOM     27  C   UNL     1       2.185   2.599  20.843  0.00  0.00    +0.000 C 
ATOM     28  C   UNL     1       1.035   3.011  19.920  0.00  0.00    +0.000 C 
ATOM     29  C   UNL     1       1.167   2.375  18.532  0.00  0.00    +0.000 C 
BRANCH  27  30
ATOM     30  N   UNL     1       2.031   3.229  22.151  0.00  0.00    +0.000 NA
ATOM     31  H   UNL     1       2.162   2.544  22.894  0.00  0.00    +0.000 HD
ATOM     32  H   UNL     1       1.081   3.584  22.256  0.00  0.00    +0.000 HD
ENDBRANCH  27  30
ENDBRANCH  22  24
ENDBRANCH   2  22
TORSDOF 5
ENDMDL
MODEL 7
REMARK VINA RESULT:      -8.0      2.554      7.308
REMARK  Name = 
REMARK  7 active torsions:
REMARK  status: ('A' for Active; 'I' for Inactive)
REMARK    1  A    between atoms: C_1  and  C_2
REMARK    2  A    between atoms: C_4  and  C_5
REMARK    3  A    between atoms: C_6  and  N_7
REMARK    4  A    between atoms: N_7  and  C_8
REMARK    5  A    between atoms: C_11  and  N_12
REMARK    6  A    between atoms: C_21  and  C_22
REMARK    7  A    between atoms: N_25  and  C_26
REMARK                            x       y       z     vdW  Elec       q    Type
REMARK                         _______ _______ _______ _____ _____    ______ ____
ROOT
ATOM      1  C   UNL     1       3.831   6.031  17.571  0.00  0.00    +0.000 A 
ATOM      2  C   UNL     1       3.470   4.738  17.326  0.00  0.00    +0.000 A 
ATOM      3  C   UNL     1       4.478   3.827  16.772  0.00  0.00    +0.000 A 
ATOM      4  C   UNL     1       5.717   4.226  16.476  0.00  0.00    +0.000 A 
ATOM      5  N   UNL     1       6.087   5.515  16.707  0.00  0.00    +0.000 N 
ATOM      6  C   UNL     1       5.251   6.458  17.234  0.00  0.00    +0.000 A 
ATOM      7  O   UNL     1       5.661   7.609  17.388  0.00  0.00    +0.000 OA
ATOM      8  H   UNL     1       7.026   5.831  16.494  0.00  0.00    +0.000 HD
ENDROOT
BRANCH   1  12
ATOM      9  C   UNL     1       1.774  10.430  17.809  0.00  0.00    +0.000 C 
ATOM     10  C   UNL     1       2.049   9.054  18.270  0.00  0.00    +0.000 A 
ATOM     11  N   UNL     1       2.657   8.134  17.458  0.00  0.00    +0.000 N 
ATOM     12  C   UNL     1       2.974   7.006  18.190  0.00  0.00    +0.000 A 
ATOM     13  N   UNL     1       2.419   7.113  19.389  0.00  0.00    +0.000 NA
ATOM     14  C   UNL     1       1.877   8.385  19.462  0.00  0.00    +0.000 A 
ATOM     15  H   UNL     1       2.992   8.310  16.517  0.00  0.00    +0.000 HD
BRANCH  14  16
ATOM     16  C   UNL     1       1.288   8.862  20.702  0.00  0.00    +0.000 A 
ATOM     17  C   UNL     1       1.778   8.679  22.010  0.00  0.00    +0.000 A 
ATOM     18  N   UNL     1       0.995   9.244  22.939  0.00  0.00    +0.000 NA
ATOM     19  N   UNL     1      -0.003   9.780  22.212  0.00  0.00    +0.000 N 
ATOM     20  C   UNL     1      -1.059  10.507  22.871  0.00  0.00    +0.000 C 
ATOM     21  C   UNL     1       0.124   9.576  20.870  0.00  0.00    +0.000 A 
ENDBRANCH  14  16
ENDBRANCH   1  12
BRANCH   2  22
ATOM     22  N   UNL     1       2.226   4.131  17.533  0.00  0.00    +0.000 N 
ATOM     23  H   UNL     1       1.550   4.747  17.975  0.00  0.00    +0.000 HD
BRANCH  22  24
ATOM     24  C   UNL     1       2.079   2.739  17.983  0.00  0.00    +0.000 C 
ATOM     25  C   UNL     1       3.281   2.331  18.853  0.00  0.00    +0.000 C 
ATOM     26  C   UNL     1       3.231   2.876  20.283  0.00  0.00    +0.000 C 
ATOM     27  C   UNL     1       1.916   2.496  20.963  0.00  0.00    +0.000 C 
ATOM     28  C   UNL     1       0.733   3.052  20.167  0.00  0.00    +0.000 C 
ATOM     29  C   UNL     1       0.742   2.557  18.717  0.00  0.00    +0.000 C 
BRANCH  27  30
ATOM     30  N   UNL     1       1.879   2.994  22.335  0.00  0.00    +0.000 NA
ATOM     31  H   UNL     1       2.616   2.564  22.890  0.00  0.00    +0.000 HD
ATOM     32  H   UNL     1       0.999   2.728  22.777  0.00  0.00    +0.000 HD
ENDBRANCH  27  30
ENDBRANCH  22  24
ENDBRANCH   2  22
TORSDOF 5
ENDMDL
MODEL 8
REMARK VINA RESULT:      -7.9      2.269      6.961
REMARK  Name = 
REMARK  7 active torsions:
REMARK  status: ('A' for Active; 'I' for Inactive)
REMARK    1  A    between atoms: C_1  and  C_2
REMARK    2  A    between atoms: C_4  and  C_5
REMARK    3  A    between atoms: C_6  and  N_7
REMARK    4  A    between atoms: N_7  and  C_8
REMARK    5  A    between atoms: C_11  and  N_12
REMARK    6  A    between atoms: C_21  and  C_22
REMARK    7  A    between atoms: N_25  and  C_26
REMARK                            x       y       z     vdW  Elec       q    Type
REMARK                         _______ _______ _______ _____ _____    ______ ____
ROOT
ATOM      1  C   UNL     1       4.710   5.621  16.803  0.00  0.00    +0.000 A 
ATOM      2  C   UNL     1       5.111   4.336  17.022  0.00  0.00    +0.000 A 
ATOM      3  C   UNL     1       6.023   3.717  16.052  0.00  0.00    +0.000 A 
ATOM      4  C   UNL     1       6.445   4.356  14.959  0.00  0.00    +0.000 A 
ATOM      5  N   UNL     1       6.044   5.635  14.724  0.00  0.00    +0.000 N 
ATOM      6  C   UNL     1       5.212   6.330  15.555  0.00  0.00    +0.000 A 
ATOM      7  O   UNL     1       4.880   7.478  15.254  0.00  0.00    +0.000 OA
ATOM      8  H   UNL     1       6.362   6.135  13.903  0.00  0.00    +0.000 HD
ENDROOT
BRANCH   1  12
ATOM      9  C   UNL     1       1.945   6.048  20.780  0.00  0.00    +0.000 C 
ATOM     10  C   UNL     1       2.610   6.533  19.555  0.00  0.00    +0.000 A 
ATOM     11  N   UNL     1       3.582   5.798  18.927  0.00  0.00    +0.000 N 
ATOM     12  C   UNL     1       3.890   6.377  17.711  0.00  0.00    +0.000 A 
ATOM     13  N   UNL     1       3.279   7.551  17.637  0.00  0.00    +0.000 NA
ATOM     14  C   UNL     1       2.461   7.642  18.751  0.00  0.00    +0.000 A 
ATOM     15  H   UNL     1       3.899   4.878  19.212  0.00  0.00    +0.000 HD
BRANCH  14  16
ATOM     16  C   UNL     1       1.561   8.772  18.911  0.00  0.00    +0.000 A 
ATOM     17  C   UNL     1       1.031   9.596  17.899  0.00  0.00    +0.000 A 
ATOM     18  N   UNL     1       0.232  10.557  18.380  0.00  0.00    +0.000 NA
ATOM     19  N   UNL     1       0.264  10.344  19.709  0.00  0.00    +0.000 N 
ATOM     20  C   UNL     1      -0.506  11.187  20.589  0.00  0.00    +0.000 C 
ATOM     21  C   UNL     1       1.048   9.291  20.078  0.00  0.00    +0.000 A 
ENDBRANCH  14  16
ENDBRANCH   1  12
BRANCH   2  22
ATOM     22  N   UNL     1       4.764   3.486  18.078  0.00  0.00    +0.000 N 
ATOM     23  H   UNL     1       5.531   3.315  18.721  0.00  0.00    +0.000 HD
BRANCH  22  24
ATOM     24  C   UNL     1       3.914   2.298  17.905  0.00  0.00    +0.000 C 
ATOM     25  C   UNL     1       3.666   1.619  19.263  0.00  0.00    +0.000 C 
ATOM     26  C   UNL     1       2.626   2.326  20.134  0.00  0.00    +0.000 C 
ATOM     27  C   UNL     1       1.313   2.510  19.372  0.00  0.00    +0.000 C 
ATOM     28  C   UNL     1       1.553   3.330  18.103  0.00  0.00    +0.000 C 
ATOM     29  C   UNL     1       2.606   2.681  17.198  0.00  0.00    +0.000 C 
BRANCH  27  30
ATOM     30  N   UNL     1       0.312   3.161  20.212  0.00  0.00    +0.000 NA
ATOM     31  H   UNL     1      -0.276   2.467  20.669  0.00  0.00    +0.000 HD
ATOM     32  H   UNL     1      -0.311   3.726  19.635  0.00  0.00    +0.000 HD
ENDBRANCH  27  30
ENDBRANCH  22  24
ENDBRANCH   2  22
TORSDOF 5
ENDMDL
MODEL 9
REMARK VINA RESULT:      -7.8      0.942      1.184
REMARK  Name = 
REMARK  7 active torsions:
REMARK  status: ('A' for Active; 'I' for Inactive)
REMARK    1  A    between atoms: C_1  and  C_2
REMARK    2  A    between atoms: C_4  and  C_5
REMARK    3  A    between atoms: C_6  and  N_7
REMARK    4  A    between atoms: N_7  and  C_8
REMARK    5  A    between atoms: C_11  and  N_12
REMARK    6  A    between atoms: C_21  and  C_22
REMARK    7  A    between atoms: N_25  and  C_26
REMARK                            x       y       z     vdW  Elec       q    Type
REMARK                         _______ _______ _______ _____ _____    ______ ____
ROOT
ATOM      1  C   UNL     1       3.169   3.704  18.994  0.00  0.00    +0.000 A 
ATOM      2  C   UNL     1       2.226   4.678  19.153  0.00  0.00    +0.000 A 
ATOM      3  C   UNL     1       1.156   4.456  20.132  0.00  0.00    +0.000 A 
ATOM      4  C   UNL     1       1.059   3.332  20.844  0.00  0.00    +0.000 A 
ATOM      5  N   UNL     1       1.987   2.349  20.688  0.00  0.00    +0.000 N 
ATOM      6  C   UNL     1       3.041   2.436  19.824  0.00  0.00    +0.000 A 
ATOM      7  O   UNL     1       3.822   1.489  19.728  0.00  0.00    +0.000 OA
ATOM      8  H   UNL     1       1.931   1.493  21.227  0.00  0.00    +0.000 HD
ENDROOT
BRANCH   1  12
ATOM      9  C   UNL     1       7.796   4.919  18.129  0.00  0.00    +0.000 C 
ATOM     10  C   UNL     1       6.459   4.405  17.773  0.00  0.00    +0.000 A 
ATOM     11  N   UNL     1       5.535   4.083  18.733  0.00  0.00    +0.000 N 
ATOM     12  C   UNL     1       4.317   3.823  18.136  0.00  0.00    +0.000 A 
ATOM     13  N   UNL     1       4.490   3.789  16.822  0.00  0.00    +0.000 NA
ATOM     14  C   UNL     1       5.796   4.181  16.586  0.00  0.00    +0.000 A 
ATOM     15  H   UNL     1       5.664   4.193  19.732  0.00  0.00    +0.000 HD
BRANCH  14  16
ATOM     16  C   UNL     1       6.275   4.359  15.225  0.00  0.00    +0.000 A 
ATOM     17  C   UNL     1       5.848   3.674  14.070  0.00  0.00    +0.000 A 
ATOM     18  N   UNL     1       6.494   4.072  12.965  0.00  0.00    +0.000 NA
ATOM     19  N   UNL     1       7.342   5.009  13.428  0.00  0.00    +0.000 N 
ATOM     20  C   UNL     1       8.217   5.699  12.514  0.00  0.00    +0.000 C 
ATOM     21  C   UNL     1       7.254   5.215  14.773  0.00  0.00    +0.000 A 
ENDBRANCH  14  16
ENDBRANCH   1  12
BRANCH   2  22
ATOM     22  N   UNL     1       2.127   5.905  18.489  0.00  0.00    +0.000 N 
ATOM     23  H   UNL     1       2.125   5.813  17.477  0.00  0.00    +0.000 HD
BRANCH  22  24
ATOM     24  C   UNL     1       2.840   7.114  18.929  0.00  0.00    +0.000 C 
ATOM     25  C   UNL     1       2.819   8.179  17.818  0.00  0.00    +0.000 C 
ATOM     26  C   UNL     1       1.487   8.922  17.690  0.00  0.00    +0.000 C 
ATOM     27  C   UNL     1       1.073   9.529  19.031  0.00  0.00    +0.000 C 
ATOM     28  C   UNL     1       0.940   8.429  20.087  0.00  0.00    +0.000 C 
ATOM     29  C   UNL     1       2.240   7.634  20.244  0.00  0.00    +0.000 C 
BRANCH  27  30
ATOM     30  N   UNL     1      -0.185  10.259  18.903  0.00  0.00    +0.000 NA
ATOM     31  H   UNL     1      -0.058  11.089  18.326  0.00  0.00    +0.000 HD
ATOM     32  H   UNL     1      -0.487  10.593  19.819  0.00  0.00    +0.000 HD
ENDBRANCH  27  30
ENDBRANCH  22  24
ENDBRANCH   2  22
TORSDOF 5
ENDMDL
