MODEL 1
REMARK VINA RESULT:      -6.8      0.000      0.000
REMARK  Name = 
REMARK  10 active torsions:
REMARK  status: ('A' for Active; 'I' for Inactive)
REMARK    1  A    between atoms: C_1  and  C_2
REMARK    2  A    between atoms: C_2  and  C_3
REMARK    3  A    between atoms: C_3  and  C_4
REMARK    4  A    between atoms: C_4  and  C_5
REMARK    5  A    between atoms: C_5  and  C_6
REMARK    6  A    between atoms: C_6  and  C_7
REMARK    7  A    between atoms: C_7  and  C_8
REMARK    8  A    between atoms: C_8  and  C_9
REMARK    9  A    between atoms: C_9  and  O_10
REMARK   10  A    between atoms: O_10  and  C_11
REMARK                            x       y       z     vdW  Elec       q    Type
REMARK                         _______ _______ _______ _____ _____    ______ ____
ROOT
ATOM      1  O   UNL     1       5.155   4.170  17.537  0.00  0.00    +0.000 OA
ENDROOT
BRANCH   1   2
ATOM      2  C   UNL     1       3.945   3.993  18.165  0.00  0.00    +0.000 A 
ATOM      3  C   UNL     1       2.690   4.225  17.592  0.00  0.00    +0.000 A 
ATOM      4  C   UNL     1       1.508   3.990  18.301  0.00  0.00    +0.000 A 
ATOM      5  C   UNL     1       1.627   3.503  19.604  0.00  0.00    +0.000 A 
ATOM      6  N   UNL     1       0.653   3.163  20.515  0.00  0.00    +0.000 N 
ATOM      7  C   UNL     1       1.228   2.720  21.675  0.00  0.00    +0.000 A 
ATOM      8  C   UNL     1       2.594   2.784  21.521  0.00  0.00    +0.000 A 
ATOM      9  C   UNL     1       2.860   3.271  20.212  0.00  0.00    +0.000 A 
ATOM     10  C   UNL     1       4.036   3.528  19.480  0.00  0.00    +0.000 A 
ATOM     11  H   UNL     1      -0.341   3.225  20.342  0.00  0.00    +0.000 HD
ENDBRANCH   1   2
BRANCH   1  12
ATOM     12  C   UNL     1       5.121   4.070  16.116  0.00  0.00    +0.000 C 
BRANCH  12  13
ATOM     13  C   UNL     1       6.541   4.026  15.562  0.00  0.00    +0.000 C 
BRANCH  13  14
ATOM     14  C   UNL     1       6.680   4.849  14.278  0.00  0.00    +0.000 C 
BRANCH  14  15
ATOM     15  C   UNL     1       5.724   4.383  13.177  0.00  0.00    +0.000 C 
BRANCH  15  16
ATOM     16  C   UNL     1       6.149   3.045  12.579  0.00  0.00    +0.000 C 
BRANCH  16  17
ATOM     17  C   UNL     1       5.169   2.617  11.487  0.00  0.00    +0.000 C 
BRANCH  17  18
ATOM     18  C   UNL     1       4.306   3.792  11.036  0.00  0.00    +0.000 C 
BRANCH  18  20
ATOM     19  C   UNL     1       2.603   4.462   9.317  0.00  0.00    +0.000 C 
ATOM     20  C   UNL     1       3.146   3.320  10.162  0.00  0.00    +0.000 C 
ENDBRANCH  18  20
ENDBRANCH  17  18
ENDBRANCH  16  17
ENDBRANCH  15  16
ENDBRANCH  14  15
ENDBRANCH  13  14
ENDBRANCH  12  13
ENDBRANCH   1  12
TORSDOF 9
ENDMDL
MODEL 2
REMARK VINA RESULT:      -6.7      3.871      6.970
REMARK  Name = 
REMARK  10 active torsions:
REMARK  status: ('A' for Active; 'I' for Inactive)
REMARK    1  A    between atoms: C_1  and  C_2
REMARK    2  A    between atoms: C_2  and  C_3
REMARK    3  A    between atoms: C_3  and  C_4
REMARK    4  A    between atoms: C_4  and  C_5
REMARK    5  A    between atoms: C_5  and  C_6
REMARK    6  A    between atoms: C_6  and  C_7
REMARK    7  A    between atoms: C_7  and  C_8
REMARK    8  A    between atoms: C_8  and  C_9
REMARK    9  A    between atoms: C_9  and  O_10
REMARK   10  A    between atoms: O_10  and  C_11
REMARK                            x       y       z     vdW  Elec       q    Type
REMARK                         _______ _______ _______ _____ _____    ______ ____
ROOT
ATOM      1  O   UNL     1       4.088   2.839  18.787  0.00  0.00    +0.000 OA
ENDROOT
BRANCH   1   2
ATOM      2  C   UNL     1       4.719   3.846  18.097  0.00  0.00    +0.000 A 
ATOM      3  C   UNL     1       4.413   4.254  16.795  0.00  0.00    +0.000 A 
ATOM      4  C   UNL     1       5.094   5.311  16.181  0.00  0.00    +0.000 A 
ATOM      5  C   UNL     1       6.087   5.953  16.924  0.00  0.00    +0.000 A 
ATOM      6  N   UNL     1       6.890   7.019  16.593  0.00  0.00    +0.000 N 
ATOM      7  C   UNL     1       7.722   7.324  17.637  0.00  0.00    +0.000 A 
ATOM      8  C   UNL     1       7.465   6.434  18.655  0.00  0.00    +0.000 A 
ATOM      9  C   UNL     1       6.427   5.566  18.220  0.00  0.00    +0.000 A 
ATOM     10  C   UNL     1       5.735   4.490  18.810  0.00  0.00    +0.000 A 
ATOM     11  H   UNL     1       6.858   7.510  15.710  0.00  0.00    +0.000 HD
ENDBRANCH   1   2
BRANCH   1  12
ATOM     12  C   UNL     1       3.433   1.867  17.976  0.00  0.00    +0.000 C 
BRANCH  12  13
ATOM     13  C   UNL     1       1.937   1.861  18.274  0.00  0.00    +0.000 C 
BRANCH  13  14
ATOM     14  C   UNL     1       1.382   3.278  18.449  0.00  0.00    +0.000 C 
BRANCH  14  15
ATOM     15  C   UNL     1       0.560   3.431  19.730  0.00  0.00    +0.000 C 
BRANCH  15  16
ATOM     16  C   UNL     1       1.436   3.406  20.978  0.00  0.00    +0.000 C 
BRANCH  16  17
ATOM     17  C   UNL     1       2.469   4.531  20.925  0.00  0.00    +0.000 C 
BRANCH  17  18
ATOM     18  C   UNL     1       1.825   5.843  20.485  0.00  0.00    +0.000 C 
BRANCH  18  20
ATOM     19  C   UNL     1       2.284   6.832  18.224  0.00  0.00    +0.000 C 
ATOM     20  C   UNL     1       2.791   6.679  19.649  0.00  0.00    +0.000 C 
ENDBRANCH  18  20
ENDBRANCH  17  18
ENDBRANCH  16  17
ENDBRANCH  15  16
ENDBRANCH  14  15
ENDBRANCH  13  14
ENDBRANCH  12  13
ENDBRANCH   1  12
TORSDOF 9
ENDMDL
MODEL 3
REMARK VINA RESULT:      -6.7      3.218      7.421
REMARK  Name = 
REMARK  10 active torsions:
REMARK  status: ('A' for Active; 'I' for Inactive)
REMARK    1  A    between atoms: C_1  and  C_2
REMARK    2  A    between atoms: C_2  and  C_3
REMARK    3  A    between atoms: C_3  and  C_4
REMARK    4  A    between atoms: C_4  and  C_5
REMARK    5  A    between atoms: C_5  and  C_6
REMARK    6  A    between atoms: C_6  and  C_7
REMARK    7  A    between atoms: C_7  and  C_8
REMARK    8  A    between atoms: C_8  and  C_9
REMARK    9  A    between atoms: C_9  and  O_10
REMARK   10  A    between atoms: O_10  and  C_11
REMARK                            x       y       z     vdW  Elec       q    Type
REMARK                         _______ _______ _______ _____ _____    ______ ____
ROOT
ATOM      1  O   UNL     1       4.444   3.461  18.371  0.00  0.00    +0.000 OA
ENDROOT
BRANCH   1   2
ATOM      2  C   UNL     1       5.319   4.082  17.512  0.00  0.00    +0.000 A 
ATOM      3  C   UNL     1       6.289   5.020  17.878  0.00  0.00    +0.000 A 
ATOM      4  C   UNL     1       7.157   5.581  16.934  0.00  0.00    +0.000 A 
ATOM      5  C   UNL     1       7.025   5.158  15.610  0.00  0.00    +0.000 A 
ATOM      6  N   UNL     1       7.743   5.514  14.492  0.00  0.00    +0.000 N 
ATOM      7  C   UNL     1       7.271   4.842  13.397  0.00  0.00    +0.000 A 
ATOM      8  C   UNL     1       6.224   4.049  13.806  0.00  0.00    +0.000 A 
ATOM      9  C   UNL     1       6.062   4.234  15.207  0.00  0.00    +0.000 A 
ATOM     10  C   UNL     1       5.192   3.694  16.174  0.00  0.00    +0.000 A 
ATOM     11  H   UNL     1       8.513   6.168  14.489  0.00  0.00    +0.000 HD
ENDBRANCH   1   2
BRANCH   1  12
ATOM     12  C   UNL     1       3.297   2.883  17.754  0.00  0.00    +0.000 C 
BRANCH  12  13
ATOM     13  C   UNL     1       2.900   1.604  18.485  0.00  0.00    +0.000 C 
BRANCH  13  14
ATOM     14  C   UNL     1       1.785   1.850  19.504  0.00  0.00    +0.000 C 
BRANCH  14  15
ATOM     15  C   UNL     1       0.999   3.131  19.216  0.00  0.00    +0.000 C 
BRANCH  15  16
ATOM     16  C   UNL     1       0.813   3.982  20.467  0.00  0.00    +0.000 C 
BRANCH  16  17
ATOM     17  C   UNL     1       2.100   4.744  20.787  0.00  0.00    +0.000 C 
BRANCH  17  18
ATOM     18  C   UNL     1       1.979   6.212  20.388  0.00  0.00    +0.000 C 
BRANCH  18  20
ATOM     19  C   UNL     1       2.481   6.483  17.943  0.00  0.00    +0.000 C 
ATOM     20  C   UNL     1       3.037   6.592  19.354  0.00  0.00    +0.000 C 
ENDBRANCH  18  20
ENDBRANCH  17  18
ENDBRANCH  16  17
ENDBRANCH  15  16
ENDBRANCH  14  15
ENDBRANCH  13  14
ENDBRANCH  12  13
ENDBRANCH   1  12
TORSDOF 9
ENDMDL
MODEL 4
REMARK VINA RESULT:      -6.6      3.898      6.943
REMARK  Name = 
REMARK  10 active torsions:
REMARK  status: ('A' for Active; 'I' for Inactive)
REMARK    1  A    between atoms: C_1  and  C_2
REMARK    2  A    between atoms: C_2  and  C_3
REMARK    3  A    between atoms: C_3  and  C_4
REMARK    4  A    between atoms: C_4  and  C_5
REMARK    5  A    between atoms: C_5  and  C_6
REMARK    6  A    between atoms: C_6  and  C_7
REMARK    7  A    between atoms: C_7  and  C_8
REMARK    8  A    between atoms: C_8  and  C_9
REMARK    9  A    between atoms: C_9  and  O_10
REMARK   10  A    between atoms: O_10  and  C_11
REMARK                            x       y       z     vdW  Elec       q    Type
REMARK                         _______ _______ _______ _____ _____    ______ ____
ROOT
ATOM      1  O   UNL     1       3.846   2.681  18.441  0.00  0.00    +0.000 OA
ENDROOT
BRANCH   1   2
ATOM      2  C   UNL     1       4.534   3.736  17.891  0.00  0.00    +0.000 A 
ATOM      3  C   UNL     1       4.259   4.329  16.655  0.00  0.00    +0.000 A 
ATOM      4  C   UNL     1       4.999   5.420  16.187  0.00  0.00    +0.000 A 
ATOM      5  C   UNL     1       6.020   5.903  17.008  0.00  0.00    +0.000 A 
ATOM      6  N   UNL     1       6.882   6.959  16.821  0.00  0.00    +0.000 N 
ATOM      7  C   UNL     1       7.723   7.076  17.895  0.00  0.00    +0.000 A 
ATOM      8  C   UNL     1       7.412   6.074  18.786  0.00  0.00    +0.000 A 
ATOM      9  C   UNL     1       6.331   5.329  18.240  0.00  0.00    +0.000 A 
ATOM     10  C   UNL     1       5.579   4.223  18.682  0.00  0.00    +0.000 A 
ATOM     11  H   UNL     1       6.882   7.563  16.011  0.00  0.00    +0.000 HD
ENDBRANCH   1   2
BRANCH   1  12
ATOM     12  C   UNL     1       2.431   2.838  18.485  0.00  0.00    +0.000 C 
BRANCH  12  13
ATOM     13  C   UNL     1       1.854   2.050  19.657  0.00  0.00    +0.000 C 
BRANCH  13  14
ATOM     14  C   UNL     1       1.213   2.966  20.704  0.00  0.00    +0.000 C 
BRANCH  14  15
ATOM     15  C   UNL     1       1.030   4.397  20.196  0.00  0.00    +0.000 C 
BRANCH  15  16
ATOM     16  C   UNL     1       2.050   5.355  20.803  0.00  0.00    +0.000 C 
BRANCH  16  17
ATOM     17  C   UNL     1       1.955   6.726  20.135  0.00  0.00    +0.000 C 
BRANCH  17  18
ATOM     18  C   UNL     1       3.035   6.890  19.068  0.00  0.00    +0.000 C 
BRANCH  18  20
ATOM     19  C   UNL     1       1.758   8.899  18.271  0.00  0.00    +0.000 C 
ATOM     20  C   UNL     1       2.499   7.640  17.851  0.00  0.00    +0.000 C 
ENDBRANCH  18  20
ENDBRANCH  17  18
ENDBRANCH  16  17
ENDBRANCH  15  16
ENDBRANCH  14  15
ENDBRANCH  13  14
ENDBRANCH  12  13
ENDBRANCH   1  12
TORSDOF 9
ENDMDL
MODEL 5
REMARK VINA RESULT:      -6.6      3.426      6.927
REMARK  Name = 
REMARK  10 active torsions:
REMARK  status: ('A' for Active; 'I' for Inactive)
REMARK    1  A    between atoms: C_1  and  C_2
REMARK    2  A    between atoms: C_2  and  C_3
REMARK    3  A    between atoms: C_3  and  C_4
REMARK    4  A    between atoms: C_4  and  C_5
REMARK    5  A    between atoms: C_5  and  C_6
REMARK    6  A    between atoms: C_6  and  C_7
REMARK    7  A    between atoms: C_7  and  C_8
REMARK    8  A    between atoms: C_8  and  C_9
REMARK    9  A    between atoms: C_9  and  O_10
REMARK   10  A    between atoms: O_10  and  C_11
REMARK                            x       y       z     vdW  Elec       q    Type
REMARK                         _______ _______ _______ _____ _____    ______ ____
ROOT
ATOM      1  O   UNL     1       4.228   5.951  19.671  0.00  0.00    +0.000 OA
ENDROOT
BRANCH   1   2
ATOM      2  C   UNL     1       5.210   5.651  18.757  0.00  0.00    +0.000 A 
ATOM      3  C   UNL     1       6.544   5.365  19.063  0.00  0.00    +0.000 A 
ATOM      4  C   UNL     1       7.469   5.042  18.064  0.00  0.00    +0.000 A 
ATOM      5  C   UNL     1       7.007   5.006  16.748  0.00  0.00    +0.000 A 
ATOM      6  N   UNL     1       7.673   4.702  15.583  0.00  0.00    +0.000 N 
ATOM      7  C   UNL     1       6.820   4.786  14.517  0.00  0.00    +0.000 A 
ATOM      8  C   UNL     1       5.585   5.162  14.993  0.00  0.00    +0.000 A 
ATOM      9  C   UNL     1       5.687   5.298  16.405  0.00  0.00    +0.000 A 
ATOM     10  C   UNL     1       4.778   5.632  17.427  0.00  0.00    +0.000 A 
ATOM     11  H   UNL     1       8.649   4.445  15.531  0.00  0.00    +0.000 HD
ENDBRANCH   1   2
BRANCH   1  12
ATOM     12  C   UNL     1       2.995   6.396  19.112  0.00  0.00    +0.000 C 
BRANCH  12  13
ATOM     13  C   UNL     1       1.841   6.043  20.045  0.00  0.00    +0.000 C 
BRANCH  13  14
ATOM     14  C   UNL     1       2.172   4.845  20.939  0.00  0.00    +0.000 C 
BRANCH  14  15
ATOM     15  C   UNL     1       1.131   3.729  20.833  0.00  0.00    +0.000 C 
BRANCH  15  16
ATOM     16  C   UNL     1       1.743   2.419  20.351  0.00  0.00    +0.000 C 
BRANCH  16  17
ATOM     17  C   UNL     1       3.171   2.650  19.855  0.00  0.00    +0.000 C 
BRANCH  17  18
ATOM     18  C   UNL     1       3.504   1.717  18.694  0.00  0.00    +0.000 C 
BRANCH  18  20
ATOM     19  C   UNL     1       2.386   3.469  17.286  0.00  0.00    +0.000 C 
ATOM     20  C   UNL     1       2.593   1.978  17.497  0.00  0.00    +0.000 C 
ENDBRANCH  18  20
ENDBRANCH  17  18
ENDBRANCH  16  17
ENDBRANCH  15  16
ENDBRANCH  14  15
ENDBRANCH  13  14
ENDBRANCH  12  13
ENDBRANCH   1  12
TORSDOF 9
ENDMDL
MODEL 6
REMARK VINA RESULT:      -6.6      3.275      7.270
REMARK  Name = 
REMARK  10 active torsions:
REMARK  status: ('A' for Active; 'I' for Inactive)
REMARK    1  A    between atoms: C_1  and  C_2
REMARK    2  A    between atoms: C_2  and  C_3
REMARK    3  A    between atoms: C_3  and  C_4
REMARK    4  A    between atoms: C_4  and  C_5
REMARK    5  A    between atoms: C_5  and  C_6
REMARK    6  A    between atoms: C_6  and  C_7
REMARK    7  A    between atoms: C_7  and  C_8
REMARK    8  A    between atoms: C_8  and  C_9
REMARK    9  A    between atoms: C_9  and  O_10
REMARK   10  A    between atoms: O_10  and  C_11
REMARK                            x       y       z     vdW  Elec       q    Type
REMARK                         _______ _______ _______ _____ _____    ______ ____
ROOT
ATOM      1  O   UNL     1       3.874   5.255  18.919  0.00  0.00    +0.000 OA
ENDROOT
BRANCH   1   2
ATOM      2  C   UNL     1       4.883   5.350  17.990  0.00  0.00    +0.000 A 
ATOM      3  C   UNL     1       6.134   5.934  18.205  0.00  0.00    +0.000 A 
ATOM      4  C   UNL     1       7.111   5.960  17.205  0.00  0.00    +0.000 A 
ATOM      5  C   UNL     1       6.793   5.369  15.981  0.00  0.00    +0.000 A 
ATOM      6  N   UNL     1       7.551   5.227  14.842  0.00  0.00    +0.000 N 
ATOM      7  C   UNL     1       6.834   4.571  13.878  0.00  0.00    +0.000 A 
ATOM      8  C   UNL     1       5.588   4.295  14.393  0.00  0.00    +0.000 A 
ATOM      9  C   UNL     1       5.551   4.788  15.726  0.00  0.00    +0.000 A 
ATOM     10  C   UNL     1       4.580   4.786  16.746  0.00  0.00    +0.000 A 
ATOM     11  H   UNL     1       8.502   5.552  14.742  0.00  0.00    +0.000 HD
ENDBRANCH   1   2
BRANCH   1  12
ATOM     12  C   UNL     1       3.147   6.459  19.148  0.00  0.00    +0.000 C 
BRANCH  12  13
ATOM     13  C   UNL     1       2.031   6.211  20.158  0.00  0.00    +0.000 C 
BRANCH  13  14
ATOM     14  C   UNL     1       2.207   4.877  20.889  0.00  0.00    +0.000 C 
BRANCH  14  15
ATOM     15  C   UNL     1       1.088   3.883  20.572  0.00  0.00    +0.000 C 
BRANCH  15  16
ATOM     16  C   UNL     1       0.835   3.766  19.073  0.00  0.00    +0.000 C 
BRANCH  16  17
ATOM     17  C   UNL     1       1.004   2.317  18.617  0.00  0.00    +0.000 C 
BRANCH  17  18
ATOM     18  C   UNL     1       2.084   1.610  19.433  0.00  0.00    +0.000 C 
BRANCH  18  20
ATOM     19  C   UNL     1       4.514   2.100  19.824  0.00  0.00    +0.000 C 
ATOM     20  C   UNL     1       3.457   1.766  18.784  0.00  0.00    +0.000 C 
ENDBRANCH  18  20
ENDBRANCH  17  18
ENDBRANCH  16  17
ENDBRANCH  15  16
ENDBRANCH  14  15
ENDBRANCH  13  14
ENDBRANCH  12  13
ENDBRANCH   1  12
TORSDOF 9
ENDMDL
MODEL 7
REMARK VINA RESULT:      -6.5      1.282      1.568
REMARK  Name = 
REMARK  10 active torsions:
REMARK  status: ('A' for Active; 'I' for Inactive)
REMARK    1  A    between atoms: C_1  and  C_2
REMARK    2  A    between atoms: C_2  and  C_3
REMARK    3  A    between atoms: C_3  and  C_4
REMARK    4  A    between atoms: C_4  and  C_5
REMARK    5  A    between atoms: C_5  and  C_6
REMARK    6  A    between atoms: C_6  and  C_7
REMARK    7  A    between atoms: C_7  and  C_8
REMARK    8  A    between atoms: C_8  and  C_9
REMARK    9  A    between atoms: C_9  and  O_10
REMARK   10  A    between atoms: O_10  and  C_11
REMARK                            x       y       z     vdW  Elec       q    Type
REMARK                         _______ _______ _______ _____ _____    ______ ____
ROOT
ATOM      1  O   UNL     1       6.040   4.208  17.309  0.00  0.00    +0.000 OA
ENDROOT
BRANCH   1   2
ATOM      2  C   UNL     1       4.909   4.332  18.081  0.00  0.00    +0.000 A 
ATOM      3  C   UNL     1       4.649   5.371  18.981  0.00  0.00    +0.000 A 
ATOM      4  C   UNL     1       3.454   5.429  19.705  0.00  0.00    +0.000 A 
ATOM      5  C   UNL     1       2.522   4.412  19.489  0.00  0.00    +0.000 A 
ATOM      6  N   UNL     1       1.273   4.226  20.033  0.00  0.00    +0.000 N 
ATOM      7  C   UNL     1       0.702   3.090  19.525  0.00  0.00    +0.000 A 
ATOM      8  C   UNL     1       1.598   2.524  18.647  0.00  0.00    +0.000 A 
ATOM      9  C   UNL     1       2.751   3.355  18.609  0.00  0.00    +0.000 A 
ATOM     10  C   UNL     1       3.968   3.313  17.901  0.00  0.00    +0.000 A 
ATOM     11  H   UNL     1       0.840   4.847  20.703  0.00  0.00    +0.000 HD
ENDBRANCH   1   2
BRANCH   1  12
ATOM     12  C   UNL     1       6.245   5.252  16.363  0.00  0.00    +0.000 C 
BRANCH  12  13
ATOM     13  C   UNL     1       7.117   4.753  15.215  0.00  0.00    +0.000 C 
BRANCH  13  14
ATOM     14  C   UNL     1       6.306   3.968  14.179  0.00  0.00    +0.000 C 
BRANCH  14  15
ATOM     15  C   UNL     1       6.628   4.388  12.743  0.00  0.00    +0.000 C 
BRANCH  15  16
ATOM     16  C   UNL     1       6.446   3.239  11.757  0.00  0.00    +0.000 C 
BRANCH  16  17
ATOM     17  C   UNL     1       5.046   2.641  11.891  0.00  0.00    +0.000 C 
BRANCH  17  18
ATOM     18  C   UNL     1       3.980   3.644  11.459  0.00  0.00    +0.000 C 
BRANCH  18  20
ATOM     19  C   UNL     1       2.844   4.422   9.359  0.00  0.00    +0.000 C 
ATOM     20  C   UNL     1       3.313   3.214  10.154  0.00  0.00    +0.000 C 
ENDBRANCH  18  20
ENDBRANCH  17  18
ENDBRANCH  16  17
ENDBRANCH  15  16
ENDBRANCH  14  15
ENDBRANCH  13  14
ENDBRANCH  12  13
ENDBRANCH   1  12
TORSDOF 9
ENDMDL
MODEL 8
REMARK VINA RESULT:      -6.5      3.355      6.739
REMARK  Name = 
REMARK  10 active torsions:
REMARK  status: ('A' for Active; 'I' for Inactive)
REMARK    1  A    between atoms: C_1  and  C_2
REMARK    2  A    between atoms: C_2  and  C_3
REMARK    3  A    between atoms: C_3  and  C_4
REMARK    4  A    between atoms: C_4  and  C_5
REMARK    5  A    between atoms: C_5  and  C_6
REMARK    6  A    between atoms: C_6  and  C_7
REMARK    7  A    between atoms: C_7  and  C_8
REMARK    8  A    between atoms: C_8  and  C_9
REMARK    9  A    between atoms: C_9  and  O_10
REMARK   10  A    between atoms: O_10  and  C_11
REMARK                            x       y       z     vdW  Elec       q    Type
REMARK                         _______ _______ _______ _____ _____    ______ ____
ROOT
ATOM      1  O   UNL     1       4.942   3.833  19.773  0.00  0.00    +0.000 OA
ENDROOT
BRANCH   1   2
ATOM      2  C   UNL     1       5.659   4.339  18.715  0.00  0.00    +0.000 A 
ATOM      3  C   UNL     1       6.730   5.233  18.812  0.00  0.00    +0.000 A 
ATOM      4  C   UNL     1       7.419   5.674  17.677  0.00  0.00    +0.000 A 
ATOM      5  C   UNL     1       7.002   5.179  16.440  0.00  0.00    +0.000 A 
ATOM      6  N   UNL     1       7.499   5.415  15.179  0.00  0.00    +0.000 N 
ATOM      7  C   UNL     1       6.783   4.708  14.251  0.00  0.00    +0.000 A 
ATOM      8  C   UNL     1       5.798   4.014  14.917  0.00  0.00    +0.000 A 
ATOM      9  C   UNL     1       5.931   4.297  16.304  0.00  0.00    +0.000 A 
ATOM     10  C   UNL     1       5.246   3.878  17.461  0.00  0.00    +0.000 A 
ATOM     11  H   UNL     1       8.286   6.015  14.976  0.00  0.00    +0.000 HD
ENDBRANCH   1   2
BRANCH   1  12
ATOM     12  C   UNL     1       4.424   2.520  19.581  0.00  0.00    +0.000 C 
BRANCH  12  13
ATOM     13  C   UNL     1       3.054   2.398  20.239  0.00  0.00    +0.000 C 
BRANCH  13  14
ATOM     14  C   UNL     1       2.001   1.850  19.271  0.00  0.00    +0.000 C 
BRANCH  14  15
ATOM     15  C   UNL     1       0.917   2.878  18.941  0.00  0.00    +0.000 C 
BRANCH  15  16
ATOM     16  C   UNL     1       1.424   3.960  17.994  0.00  0.00    +0.000 C 
BRANCH  16  17
ATOM     17  C   UNL     1       1.860   5.195  18.782  0.00  0.00    +0.000 C 
BRANCH  17  18
ATOM     18  C   UNL     1       2.147   6.366  17.847  0.00  0.00    +0.000 C 
BRANCH  18  20
ATOM     19  C   UNL     1       4.247   7.480  17.041  0.00  0.00    +0.000 C 
ATOM     20  C   UNL     1       3.421   7.101  18.259  0.00  0.00    +0.000 C 
ENDBRANCH  18  20
ENDBRANCH  17  18
ENDBRANCH  16  17
ENDBRANCH  15  16
ENDBRANCH  14  15
ENDBRANCH  13  14
ENDBRANCH  12  13
ENDBRANCH   1  12
TORSDOF 9
ENDMDL
MODEL 9
REMARK VINA RESULT:      -6.5      1.193      1.364
REMARK  Name = 
REMARK  10 active torsions:
REMARK  status: ('A' for Active; 'I' for Inactive)
REMARK    1  A    between atoms: C_1  and  C_2
REMARK    2  A    between atoms: C_2  and  C_3
REMARK    3  A    between atoms: C_3  and  C_4
REMARK    4  A    between atoms: C_4  and  C_5
REMARK    5  A    between atoms: C_5  and  C_6
REMARK    6  A    between atoms: C_6  and  C_7
REMARK    7  A    between atoms: C_7  and  C_8
REMARK    8  A    between atoms: C_8  and  C_9
REMARK    9  A    between atoms: C_9  and  O_10
REMARK   10  A    between atoms: O_10  and  C_11
REMARK                            x       y       z     vdW  Elec       q    Type
REMARK                         _______ _______ _______ _____ _____    ______ ____
ROOT
ATOM      1  O   UNL     1       6.424   4.519  18.293  0.00  0.00    +0.000 OA
ENDROOT
BRANCH   1   2
ATOM      2  C   UNL     1       5.094   4.680  18.603  0.00  0.00    +0.000 A 
ATOM      3  C   UNL     1       4.282   5.735  18.173  0.00  0.00    +0.000 A 
ATOM      4  C   UNL     1       2.928   5.802  18.518  0.00  0.00    +0.000 A 
ATOM      5  C   UNL     1       2.413   4.768  19.301  0.00  0.00    +0.000 A 
ATOM      6  N   UNL     1       1.134   4.561  19.765  0.00  0.00    +0.000 N 
ATOM      7  C   UNL     1       1.080   3.404  20.495  0.00  0.00    +0.000 A 
ATOM      8  C   UNL     1       2.343   2.858  20.516  0.00  0.00    +0.000 A 
ATOM      9  C   UNL     1       3.195   3.708  19.758  0.00  0.00    +0.000 A 
ATOM     10  C   UNL     1       4.558   3.670  19.408  0.00  0.00    +0.000 A 
ATOM     11  H   UNL     1       0.351   5.173  19.581  0.00  0.00    +0.000 HD
ENDBRANCH   1   2
BRANCH   1  12
ATOM     12  C   UNL     1       6.787   4.895  16.968  0.00  0.00    +0.000 C 
BRANCH  12  13
ATOM     13  C   UNL     1       6.150   3.942  15.962  0.00  0.00    +0.000 C 
BRANCH  13  14
ATOM     14  C   UNL     1       5.848   4.634  14.630  0.00  0.00    +0.000 C 
BRANCH  14  15
ATOM     15  C   UNL     1       6.981   4.473  13.615  0.00  0.00    +0.000 C 
BRANCH  15  16
ATOM     16  C   UNL     1       6.485   3.910  12.287  0.00  0.00    +0.000 C 
BRANCH  16  17
ATOM     17  C   UNL     1       4.990   3.601  12.367  0.00  0.00    +0.000 C 
BRANCH  17  18
ATOM     18  C   UNL     1       4.531   2.802  11.151  0.00  0.00    +0.000 C 
BRANCH  18  20
ATOM     19  C   UNL     1       2.993   4.113   9.661  0.00  0.00    +0.000 C 
ATOM     20  C   UNL     1       3.077   3.113  10.802  0.00  0.00    +0.000 C 
ENDBRANCH  18  20
ENDBRANCH  17  18
ENDBRANCH  16  17
ENDBRANCH  15  16
ENDBRANCH  14  15
ENDBRANCH  13  14
ENDBRANCH  12  13
ENDBRANCH   1  12
TORSDOF 9
ENDMDL
