MODEL 1
REMARK VINA RESULT:      -8.6      0.000      0.000
REMARK  Name = 
REMARK  8 active torsions:
REMARK  status: ('A' for Active; 'I' for Inactive)
REMARK    1  A    between atoms: C_2  and  C_3
REMARK    2  A    between atoms: C_2  and  C_14
REMARK    3  A    between atoms: C_4  and  C_5
REMARK    4  A    between atoms: C_9  and  N_10
REMARK    5  A    between atoms: C_14  and  C_15
REMARK    6  A    between atoms: C_15  and  C_17
REMARK    7  A    between atoms: C_18  and  C_19
REMARK    8  A    between atoms: C_23  and  N_24
REMARK                            x       y       z     vdW  Elec       q    Type
REMARK                         _______ _______ _______ _____ _____    ______ ____
ROOT
ATOM      1  C   UNL     1       1.166   2.911  20.325  0.00  0.00    +0.000 C 
ENDROOT
BRANCH   1   3
ATOM      2  O   UNL     1       3.061   3.912  21.372  0.00  0.00    +0.000 OA
ATOM      3  C   UNL     1       1.951   4.091  20.871  0.00  0.00    +0.000 C 
BRANCH   3   4
ATOM      4  C   UNL     1       1.417   5.476  20.720  0.00  0.00    +0.000 C 
ATOM      5  C   UNL     1       2.164   6.496  20.276  0.00  0.00    +0.000 C 
BRANCH   5   6
ATOM      6  C   UNL     1       1.605   7.851  20.303  0.00  0.00    +0.000 A 
ATOM      7  C   UNL     1       1.604   8.620  19.131  0.00  0.00    +0.000 A 
ATOM      8  C   UNL     1       1.137   9.937  19.141  0.00  0.00    +0.000 A 
ATOM      9  C   UNL     1       0.667  10.500  20.326  0.00  0.00    +0.000 A 
ATOM     10  C   UNL     1       0.670   9.734  21.501  0.00  0.00    +0.000 A 
ATOM     11  C   UNL     1       1.142   8.412  21.496  0.00  0.00    +0.000 A 
BRANCH  10  12
ATOM     12  N   UNL     1       0.179  10.324  22.751  0.00  0.00    +0.000 N 
ATOM     13  O   UNL     1      -0.349  11.444  22.693  0.00  0.00    +0.000 OA
ATOM     14  O   UNL     1       0.321   9.669  23.793  0.00  0.00    +0.000 OA
ENDBRANCH  10  12
ENDBRANCH   5   6
ENDBRANCH   3   4
ENDBRANCH   1   3
BRANCH   1  15
ATOM     15  C   UNL     1       0.941   2.839  18.835  0.00  0.00    +0.000 C 
ATOM     16  O   UNL     1       0.210   2.008  18.299  0.00  0.00    +0.000 OA
BRANCH  15  17
ATOM     17  C   UNL     1       1.691   3.806  17.985  0.00  0.00    +0.000 C 
ATOM     18  C   UNL     1       3.025   3.667  17.909  0.00  0.00    +0.000 C 
BRANCH  18  19
ATOM     19  C   UNL     1       3.943   4.608  17.267  0.00  0.00    +0.000 A 
ATOM     20  C   UNL     1       3.799   5.982  17.520  0.00  0.00    +0.000 A 
ATOM     21  C   UNL     1       4.578   6.920  16.835  0.00  0.00    +0.000 A 
ATOM     22  C   UNL     1       5.506   6.496  15.882  0.00  0.00    +0.000 A 
ATOM     23  C   UNL     1       5.641   5.127  15.621  0.00  0.00    +0.000 A 
ATOM     24  C   UNL     1       4.865   4.185  16.303  0.00  0.00    +0.000 A 
BRANCH  23  25
ATOM     25  N   UNL     1       6.591   4.667  14.603  0.00  0.00    +0.000 N 
ATOM     26  O   UNL     1       6.307   3.640  13.969  0.00  0.00    +0.000 OA
ATOM     27  O   UNL     1       7.621   5.335  14.433  0.00  0.00    +0.000 OA
ENDBRANCH  23  25
ENDBRANCH  18  19
ENDBRANCH  15  17
ENDBRANCH   1  15
TORSDOF 8
ENDMDL
MODEL 2
REMARK VINA RESULT:      -8.4      2.018      2.415
REMARK  Name = 
REMARK  8 active torsions:
REMARK  status: ('A' for Active; 'I' for Inactive)
REMARK    1  A    between atoms: C_2  and  C_3
REMARK    2  A    between atoms: C_2  and  C_14
REMARK    3  A    between atoms: C_4  and  C_5
REMARK    4  A    between atoms: C_9  and  N_10
REMARK    5  A    between atoms: C_14  and  C_15
REMARK    6  A    between atoms: C_15  and  C_17
REMARK    7  A    between atoms: C_18  and  C_19
REMARK    8  A    between atoms: C_23  and  N_24
REMARK                            x       y       z     vdW  Elec       q    Type
REMARK                         _______ _______ _______ _____ _____    ______ ____
ROOT
ATOM      1  C   UNL     1       2.369   2.130  20.238  0.00  0.00    +0.000 C 
ENDROOT
BRANCH   1   3
ATOM      2  O   UNL     1       2.228   3.343  22.288  0.00  0.00    +0.000 OA
ATOM      3  C   UNL     1       2.100   3.376  21.063  0.00  0.00    +0.000 C 
BRANCH   3   4
ATOM      4  C   UNL     1       1.766   4.663  20.385  0.00  0.00    +0.000 C 
ATOM      5  C   UNL     1       2.596   5.714  20.378  0.00  0.00    +0.000 C 
BRANCH   5   6
ATOM      6  C   UNL     1       2.127   6.986  19.820  0.00  0.00    +0.000 A 
ATOM      7  C   UNL     1       2.359   7.275  18.468  0.00  0.00    +0.000 A 
ATOM      8  C   UNL     1       1.980   8.505  17.924  0.00  0.00    +0.000 A 
ATOM      9  C   UNL     1       1.368   9.463  18.730  0.00  0.00    +0.000 A 
ATOM     10  C   UNL     1       1.138   9.179  20.084  0.00  0.00    +0.000 A 
ATOM     11  C   UNL     1       1.520   7.946  20.635  0.00  0.00    +0.000 A 
BRANCH  10  12
ATOM     12  N   UNL     1       0.496  10.186  20.936  0.00  0.00    +0.000 N 
ATOM     13  O   UNL     1       1.109  10.565  21.945  0.00  0.00    +0.000 OA
ATOM     14  O   UNL     1      -0.623  10.598  20.599  0.00  0.00    +0.000 OA
ENDBRANCH  10  12
ENDBRANCH   5   6
ENDBRANCH   3   4
ENDBRANCH   1   3
BRANCH   1  15
ATOM     15  C   UNL     1       2.678   2.306  18.772  0.00  0.00    +0.000 C 
ATOM     16  O   UNL     1       2.077   1.715  17.877  0.00  0.00    +0.000 OA
BRANCH  15  17
ATOM     17  C   UNL     1       3.808   3.210  18.417  0.00  0.00    +0.000 C 
ATOM     18  C   UNL     1       3.948   3.559  17.127  0.00  0.00    +0.000 C 
BRANCH  18  19
ATOM     19  C   UNL     1       5.080   4.295  16.564  0.00  0.00    +0.000 A 
ATOM     20  C   UNL     1       5.596   3.906  15.317  0.00  0.00    +0.000 A 
ATOM     21  C   UNL     1       6.748   4.507  14.801  0.00  0.00    +0.000 A 
ATOM     22  C   UNL     1       7.405   5.499  15.530  0.00  0.00    +0.000 A 
ATOM     23  C   UNL     1       6.898   5.880  16.778  0.00  0.00    +0.000 A 
ATOM     24  C   UNL     1       5.746   5.283  17.299  0.00  0.00    +0.000 A 
BRANCH  23  25
ATOM     25  N   UNL     1       7.592   6.901  17.568  0.00  0.00    +0.000 N 
ATOM     26  O   UNL     1       7.909   6.615  18.733  0.00  0.00    +0.000 OA
ATOM     27  O   UNL     1       7.825   7.991  17.025  0.00  0.00    +0.000 OA
ENDBRANCH  23  25
ENDBRANCH  18  19
ENDBRANCH  15  17
ENDBRANCH   1  15
TORSDOF 8
ENDMDL
MODEL 3
REMARK VINA RESULT:      -8.4      1.219      7.592
REMARK  Name = 
REMARK  8 active torsions:
REMARK  status: ('A' for Active; 'I' for Inactive)
REMARK    1  A    between atoms: C_2  and  C_3
REMARK    2  A    between atoms: C_2  and  C_14
REMARK    3  A    between atoms: C_4  and  C_5
REMARK    4  A    between atoms: C_9  and  N_10
REMARK    5  A    between atoms: C_14  and  C_15
REMARK    6  A    between atoms: C_15  and  C_17
REMARK    7  A    between atoms: C_18  and  C_19
REMARK    8  A    between atoms: C_23  and  N_24
REMARK                            x       y       z     vdW  Elec       q    Type
REMARK                         _______ _______ _______ _____ _____    ______ ____
ROOT
ATOM      1  C   UNL     1       2.057   2.140  20.065  0.00  0.00    +0.000 C 
ENDROOT
BRANCH   1   3
ATOM      2  O   UNL     1       1.591   2.100  17.726  0.00  0.00    +0.000 OA
ATOM      3  C   UNL     1       2.397   2.397  18.608  0.00  0.00    +0.000 C 
BRANCH   3   4
ATOM      4  C   UNL     1       3.668   3.092  18.250  0.00  0.00    +0.000 C 
ATOM      5  C   UNL     1       3.696   4.305  17.683  0.00  0.00    +0.000 C 
BRANCH   5   6
ATOM      6  C   UNL     1       4.979   4.847  17.226  0.00  0.00    +0.000 A 
ATOM      7  C   UNL     1       5.719   5.681  18.077  0.00  0.00    +0.000 A 
ATOM      8  C   UNL     1       6.913   6.263  17.645  0.00  0.00    +0.000 A 
ATOM      9  C   UNL     1       7.380   6.020  16.355  0.00  0.00    +0.000 A 
ATOM     10  C   UNL     1       6.641   5.189  15.500  0.00  0.00    +0.000 A 
ATOM     11  C   UNL     1       5.439   4.605  15.928  0.00  0.00    +0.000 A 
BRANCH  10  12
ATOM     12  N   UNL     1       7.128   4.932  14.141  0.00  0.00    +0.000 N 
ATOM     13  O   UNL     1       8.122   5.564  13.754  0.00  0.00    +0.000 OA
ATOM     14  O   UNL     1       6.517   4.099  13.457  0.00  0.00    +0.000 OA
ENDBRANCH  10  12
ENDBRANCH   5   6
ENDBRANCH   3   4
ENDBRANCH   1   3
BRANCH   1  15
ATOM     15  C   UNL     1       1.775   3.331  20.947  0.00  0.00    +0.000 C 
ATOM     16  O   UNL     1       1.830   3.294  22.175  0.00  0.00    +0.000 OA
BRANCH  15  17
ATOM     17  C   UNL     1       1.363   4.596  20.275  0.00  0.00    +0.000 C 
ATOM     18  C   UNL     1       2.090   5.698  20.519  0.00  0.00    +0.000 C 
BRANCH  18  19
ATOM     19  C   UNL     1       1.749   7.055  20.088  0.00  0.00    +0.000 A 
ATOM     20  C   UNL     1       2.120   7.476  18.801  0.00  0.00    +0.000 A 
ATOM     21  C   UNL     1       1.917   8.799  18.396  0.00  0.00    +0.000 A 
ATOM     22  C   UNL     1       1.348   9.720  19.277  0.00  0.00    +0.000 A 
ATOM     23  C   UNL     1       0.989   9.303  20.564  0.00  0.00    +0.000 A 
ATOM     24  C   UNL     1       1.189   7.982  20.975  0.00  0.00    +0.000 A 
BRANCH  23  25
ATOM     25  N   UNL     1       0.416  10.265  21.511  0.00  0.00    +0.000 N 
ATOM     26  O   UNL     1      -0.367  11.118  21.066  0.00  0.00    +0.000 OA
ATOM     27  O   UNL     1       0.745  10.169  22.702  0.00  0.00    +0.000 OA
ENDBRANCH  23  25
ENDBRANCH  18  19
ENDBRANCH  15  17
ENDBRANCH   1  15
TORSDOF 8
ENDMDL
MODEL 4
REMARK VINA RESULT:      -8.3      1.372      1.688
REMARK  Name = 
REMARK  8 active torsions:
REMARK  status: ('A' for Active; 'I' for Inactive)
REMARK    1  A    between atoms: C_2  and  C_3
REMARK    2  A    between atoms: C_2  and  C_14
REMARK    3  A    between atoms: C_4  and  C_5
REMARK    4  A    between atoms: C_9  and  N_10
REMARK    5  A    between atoms: C_14  and  C_15
REMARK    6  A    between atoms: C_15  and  C_17
REMARK    7  A    between atoms: C_18  and  C_19
REMARK    8  A    between atoms: C_23  and  N_24
REMARK                            x       y       z     vdW  Elec       q    Type
REMARK                         _______ _______ _______ _____ _____    ______ ____
ROOT
ATOM      1  C   UNL     1       1.053   2.939  20.326  0.00  0.00    +0.000 C 
ENDROOT
BRANCH   1   3
ATOM      2  O   UNL     1       2.319   4.161  21.937  0.00  0.00    +0.000 OA
ATOM      3  C   UNL     1       1.601   4.216  20.938  0.00  0.00    +0.000 C 
BRANCH   3   4
ATOM      4  C   UNL     1       1.342   5.530  20.278  0.00  0.00    +0.000 C 
ATOM      5  C   UNL     1       2.268   6.495  20.201  0.00  0.00    +0.000 C 
BRANCH   5   6
ATOM      6  C   UNL     1       1.883   7.808  19.673  0.00  0.00    +0.000 A 
ATOM      7  C   UNL     1       2.239   8.156  18.362  0.00  0.00    +0.000 A 
ATOM      8  C   UNL     1       1.942   9.423  17.853  0.00  0.00    +0.000 A 
ATOM      9  C   UNL     1       1.287  10.358  18.653  0.00  0.00    +0.000 A 
ATOM     10  C   UNL     1       0.934  10.014  19.965  0.00  0.00    +0.000 A 
ATOM     11  C   UNL     1       1.233   8.744  20.482  0.00  0.00    +0.000 A 
BRANCH  10  12
ATOM     12  N   UNL     1       0.247  10.997  20.811  0.00  0.00    +0.000 N 
ATOM     13  O   UNL     1       0.937  11.673  21.587  0.00  0.00    +0.000 OA
ATOM     14  O   UNL     1      -0.984  11.092  20.702  0.00  0.00    +0.000 OA
ENDBRANCH  10  12
ENDBRANCH   5   6
ENDBRANCH   3   4
ENDBRANCH   1   3
BRANCH   1  15
ATOM     15  C   UNL     1       1.762   2.370  19.121  0.00  0.00    +0.000 C 
ATOM     16  O   UNL     1       1.231   1.603  18.322  0.00  0.00    +0.000 OA
BRANCH  15  17
ATOM     17  C   UNL     1       3.196   2.734  18.940  0.00  0.00    +0.000 C 
ATOM     18  C   UNL     1       3.492   3.663  18.017  0.00  0.00    +0.000 C 
BRANCH  18  19
ATOM     19  C   UNL     1       4.841   4.029  17.581  0.00  0.00    +0.000 A 
ATOM     20  C   UNL     1       5.756   4.517  18.529  0.00  0.00    +0.000 A 
ATOM     21  C   UNL     1       7.012   4.987  18.134  0.00  0.00    +0.000 A 
ATOM     22  C   UNL     1       7.366   4.984  16.783  0.00  0.00    +0.000 A 
ATOM     23  C   UNL     1       6.450   4.508  15.837  0.00  0.00    +0.000 A 
ATOM     24  C   UNL     1       5.193   4.036  16.227  0.00  0.00    +0.000 A 
BRANCH  23  25
ATOM     25  N   UNL     1       6.796   4.524  14.413  0.00  0.00    +0.000 N 
ATOM     26  O   UNL     1       7.657   5.333  14.035  0.00  0.00    +0.000 OA
ATOM     27  O   UNL     1       6.211   3.724  13.668  0.00  0.00    +0.000 OA
ENDBRANCH  23  25
ENDBRANCH  18  19
ENDBRANCH  15  17
ENDBRANCH   1  15
TORSDOF 8
ENDMDL
MODEL 5
REMARK VINA RESULT:      -8.2      1.139      1.233
REMARK  Name = 
REMARK  8 active torsions:
REMARK  status: ('A' for Active; 'I' for Inactive)
REMARK    1  A    between atoms: C_2  and  C_3
REMARK    2  A    between atoms: C_2  and  C_14
REMARK    3  A    between atoms: C_4  and  C_5
REMARK    4  A    between atoms: C_9  and  N_10
REMARK    5  A    between atoms: C_14  and  C_15
REMARK    6  A    between atoms: C_15  and  C_17
REMARK    7  A    between atoms: C_18  and  C_19
REMARK    8  A    between atoms: C_23  and  N_24
REMARK                            x       y       z     vdW  Elec       q    Type
REMARK                         _______ _______ _______ _____ _____    ______ ____
ROOT
ATOM      1  C   UNL     1       1.350   2.664  20.152  0.00  0.00    +0.000 C 
ENDROOT
BRANCH   1   3
ATOM      2  O   UNL     1       2.296   3.884  21.971  0.00  0.00    +0.000 OA
ATOM      3  C   UNL     1       1.708   3.942  20.890  0.00  0.00    +0.000 C 
BRANCH   3   4
ATOM      4  C   UNL     1       1.427   5.268  20.267  0.00  0.00    +0.000 C 
ATOM      5  C   UNL     1       2.281   6.298  20.341  0.00  0.00    +0.000 C 
BRANCH   5   6
ATOM      6  C   UNL     1       1.860   7.607  19.832  0.00  0.00    +0.000 A 
ATOM      7  C   UNL     1       2.146   7.957  18.505  0.00  0.00    +0.000 A 
ATOM      8  C   UNL     1       1.814   9.222  18.012  0.00  0.00    +0.000 A 
ATOM      9  C   UNL     1       1.195  10.153  18.844  0.00  0.00    +0.000 A 
ATOM     10  C   UNL     1       0.911   9.808  20.173  0.00  0.00    +0.000 A 
ATOM     11  C   UNL     1       1.245   8.539  20.674  0.00  0.00    +0.000 A 
BRANCH  10  12
ATOM     12  N   UNL     1       0.262  10.785  21.052  0.00  0.00    +0.000 N 
ATOM     13  O   UNL     1      -0.977  10.845  21.034  0.00  0.00    +0.000 OA
ATOM     14  O   UNL     1       0.988  11.497  21.761  0.00  0.00    +0.000 OA
ENDBRANCH  10  12
ENDBRANCH   5   6
ENDBRANCH   3   4
ENDBRANCH   1   3
BRANCH   1  15
ATOM     15  C   UNL     1       2.263   2.210  19.039  0.00  0.00    +0.000 C 
ATOM     16  O   UNL     1       2.683   1.060  18.934  0.00  0.00    +0.000 OA
BRANCH  15  17
ATOM     17  C   UNL     1       2.703   3.240  18.056  0.00  0.00    +0.000 C 
ATOM     18  C   UNL     1       4.017   3.331  17.794  0.00  0.00    +0.000 C 
BRANCH  18  19
ATOM     19  C   UNL     1       4.654   4.378  16.992  0.00  0.00    +0.000 A 
ATOM     20  C   UNL     1       4.305   5.719  17.220  0.00  0.00    +0.000 A 
ATOM     21  C   UNL     1       4.801   6.735  16.398  0.00  0.00    +0.000 A 
ATOM     22  C   UNL     1       5.645   6.422  15.331  0.00  0.00    +0.000 A 
ATOM     23  C   UNL     1       5.984   5.084  15.097  0.00  0.00    +0.000 A 
ATOM     24  C   UNL     1       5.491   4.064  15.916  0.00  0.00    +0.000 A 
BRANCH  23  25
ATOM     25  N   UNL     1       6.847   4.736  13.965  0.00  0.00    +0.000 N 
ATOM     26  O   UNL     1       6.489   3.805  13.228  0.00  0.00    +0.000 OA
ATOM     27  O   UNL     1       7.884   5.396  13.805  0.00  0.00    +0.000 OA
ENDBRANCH  23  25
ENDBRANCH  18  19
ENDBRANCH  15  17
ENDBRANCH   1  15
TORSDOF 8
ENDMDL
MODEL 6
REMARK VINA RESULT:      -8.2      2.506      6.919
REMARK  Name = 
REMARK  8 active torsions:
REMARK  status: ('A' for Active; 'I' for Inactive)
REMARK    1  A    between atoms: C_2  and  C_3
REMARK    2  A    between atoms: C_2  and  C_14
REMARK    3  A    between atoms: C_4  and  C_5
REMARK    4  A    between atoms: C_9  and  N_10
REMARK    5  A    between atoms: C_14  and  C_15
REMARK    6  A    between atoms: C_15  and  C_17
REMARK    7  A    between atoms: C_18  and  C_19
REMARK    8  A    between atoms: C_23  and  N_24
REMARK                            x       y       z     vdW  Elec       q    Type
REMARK                         _______ _______ _______ _____ _____    ______ ____
ROOT
ATOM      1  C   UNL     1       6.953   6.298  17.262  0.00  0.00    +0.000 C 
ENDROOT
BRANCH   1   3
ATOM      2  O   UNL     1       7.976   4.287  18.035  0.00  0.00    +0.000 OA
ATOM      3  C   UNL     1       6.931   4.928  17.915  0.00  0.00    +0.000 C 
BRANCH   3   4
ATOM      4  C   UNL     1       5.662   4.396  18.491  0.00  0.00    +0.000 C 
ATOM      5  C   UNL     1       4.682   3.883  17.735  0.00  0.00    +0.000 C 
BRANCH   5   6
ATOM      6  C   UNL     1       3.409   3.524  18.367  0.00  0.00    +0.000 A 
ATOM      7  C   UNL     1       2.217   3.652  17.641  0.00  0.00    +0.000 A 
ATOM      8  C   UNL     1       0.983   3.378  18.238  0.00  0.00    +0.000 A 
ATOM      9  C   UNL     1       0.930   2.976  19.571  0.00  0.00    +0.000 A 
ATOM     10  C   UNL     1       2.120   2.851  20.302  0.00  0.00    +0.000 A 
ATOM     11  C   UNL     1       3.361   3.128  19.707  0.00  0.00    +0.000 A 
BRANCH  10  12
ATOM     12  N   UNL     1       2.067   2.431  21.706  0.00  0.00    +0.000 N 
ATOM     13  O   UNL     1       0.976   2.504  22.290  0.00  0.00    +0.000 OA
ATOM     14  O   UNL     1       3.117   2.027  22.228  0.00  0.00    +0.000 OA
ENDBRANCH  10  12
ENDBRANCH   5   6
ENDBRANCH   3   4
ENDBRANCH   1   3
BRANCH   1  15
ATOM     15  C   UNL     1       5.667   6.819  16.667  0.00  0.00    +0.000 C 
ATOM     16  O   UNL     1       5.352   6.658  15.489  0.00  0.00    +0.000 OA
BRANCH  15  17
ATOM     17  C   UNL     1       4.773   7.607  17.560  0.00  0.00    +0.000 C 
ATOM     18  C   UNL     1       3.461   7.316  17.545  0.00  0.00    +0.000 C 
BRANCH  18  19
ATOM     19  C   UNL     1       2.412   8.083  18.220  0.00  0.00    +0.000 A 
ATOM     20  C   UNL     1       1.711   9.063  17.499  0.00  0.00    +0.000 A 
ATOM     21  C   UNL     1       0.787   9.895  18.137  0.00  0.00    +0.000 A 
ATOM     22  C   UNL     1       0.558   9.764  19.508  0.00  0.00    +0.000 A 
ATOM     23  C   UNL     1       1.266   8.794  20.230  0.00  0.00    +0.000 A 
ATOM     24  C   UNL     1       2.191   7.960  19.596  0.00  0.00    +0.000 A 
BRANCH  23  25
ATOM     25  N   UNL     1       1.058   8.663  21.675  0.00  0.00    +0.000 N 
ATOM     26  O   UNL     1       1.855   9.241  22.429  0.00  0.00    +0.000 OA
ATOM     27  O   UNL     1       0.095   7.984  22.060  0.00  0.00    +0.000 OA
ENDBRANCH  23  25
ENDBRANCH  18  19
ENDBRANCH  15  17
ENDBRANCH   1  15
TORSDOF 8
ENDMDL
MODEL 7
REMARK VINA RESULT:      -8.2      5.585      8.201
REMARK  Name = 
REMARK  8 active torsions:
REMARK  status: ('A' for Active; 'I' for Inactive)
REMARK    1  A    between atoms: C_2  and  C_3
REMARK    2  A    between atoms: C_2  and  C_14
REMARK    3  A    between atoms: C_4  and  C_5
REMARK    4  A    between atoms: C_9  and  N_10
REMARK    5  A    between atoms: C_14  and  C_15
REMARK    6  A    between atoms: C_15  and  C_17
REMARK    7  A    between atoms: C_18  and  C_19
REMARK    8  A    between atoms: C_23  and  N_24
REMARK                            x       y       z     vdW  Elec       q    Type
REMARK                         _______ _______ _______ _____ _____    ______ ____
ROOT
ATOM      1  C   UNL     1       6.135   7.024  17.777  0.00  0.00    +0.000 C 
ENDROOT
BRANCH   1   3
ATOM      2  O   UNL     1       8.113   7.036  16.444  0.00  0.00    +0.000 OA
ATOM      3  C   UNL     1       7.528   7.509  17.418  0.00  0.00    +0.000 C 
BRANCH   3   4
ATOM      4  C   UNL     1       8.152   8.623  18.192  0.00  0.00    +0.000 C 
ATOM      5  C   UNL     1       8.405   9.824  17.655  0.00  0.00    +0.000 C 
BRANCH   5   6
ATOM      6  C   UNL     1       9.157  10.809  18.439  0.00  0.00    +0.000 A 
ATOM      7  C   UNL     1       9.375  10.582  19.806  0.00  0.00    +0.000 A 
ATOM      8  C   UNL     1      10.032  11.532  20.592  0.00  0.00    +0.000 A 
ATOM      9  C   UNL     1      10.478  12.722  20.019  0.00  0.00    +0.000 A 
ATOM     10  C   UNL     1      10.258  12.953  18.653  0.00  0.00    +0.000 A 
ATOM     11  C   UNL     1       9.596  12.003  17.860  0.00  0.00    +0.000 A 
BRANCH  10  12
ATOM     12  N   UNL     1      10.724  14.205  18.047  0.00  0.00    +0.000 N 
ATOM     13  O   UNL     1      11.884  14.239  17.612  0.00  0.00    +0.000 OA
ATOM     14  O   UNL     1       9.931  15.156  18.006  0.00  0.00    +0.000 OA
ENDBRANCH  10  12
ENDBRANCH   5   6
ENDBRANCH   3   4
ENDBRANCH   1   3
BRANCH   1  15
ATOM     15  C   UNL     1       5.283   6.441  16.675  0.00  0.00    +0.000 C 
ATOM     16  O   UNL     1       5.237   6.904  15.538  0.00  0.00    +0.000 OA
BRANCH  15  17
ATOM     17  C   UNL     1       4.425   5.274  17.023  0.00  0.00    +0.000 C 
ATOM     18  C   UNL     1       3.416   5.475  17.887  0.00  0.00    +0.000 C 
BRANCH  18  19
ATOM     19  C   UNL     1       2.576   4.429  18.473  0.00  0.00    +0.000 A 
ATOM     20  C   UNL     1       1.423   4.016  17.786  0.00  0.00    +0.000 A 
ATOM     21  C   UNL     1       0.534   3.106  18.367  0.00  0.00    +0.000 A 
ATOM     22  C   UNL     1       0.783   2.604  19.646  0.00  0.00    +0.000 A 
ATOM     23  C   UNL     1       1.927   3.025  20.335  0.00  0.00    +0.000 A 
ATOM     24  C   UNL     1       2.819   3.935  19.759  0.00  0.00    +0.000 A 
BRANCH  23  25
ATOM     25  N   UNL     1       2.188   2.530  21.689  0.00  0.00    +0.000 N 
ATOM     26  O   UNL     1       1.238   2.494  22.486  0.00  0.00    +0.000 OA
ATOM     27  O   UNL     1       3.343   2.170  21.960  0.00  0.00    +0.000 OA
ENDBRANCH  23  25
ENDBRANCH  18  19
ENDBRANCH  15  17
ENDBRANCH   1  15
TORSDOF 8
ENDMDL
MODEL 8
REMARK VINA RESULT:      -8.2      6.013      8.556
REMARK  Name = 
REMARK  8 active torsions:
REMARK  status: ('A' for Active; 'I' for Inactive)
REMARK    1  A    between atoms: C_2  and  C_3
REMARK    2  A    between atoms: C_2  and  C_14
REMARK    3  A    between atoms: C_4  and  C_5
REMARK    4  A    between atoms: C_9  and  N_10
REMARK    5  A    between atoms: C_14  and  C_15
REMARK    6  A    between atoms: C_15  and  C_17
REMARK    7  A    between atoms: C_18  and  C_19
REMARK    8  A    between atoms: C_23  and  N_24
REMARK                            x       y       z     vdW  Elec       q    Type
REMARK                         _______ _______ _______ _____ _____    ______ ____
ROOT
ATOM      1  C   UNL     1       7.976   6.650  18.565  0.00  0.00    +0.000 C 
ENDROOT
BRANCH   1   3
ATOM      2  O   UNL     1       7.648   5.069  16.809  0.00  0.00    +0.000 OA
ATOM      3  C   UNL     1       7.180   5.594  17.820  0.00  0.00    +0.000 C 
BRANCH   3   4
ATOM      4  C   UNL     1       5.870   5.127  18.361  0.00  0.00    +0.000 C 
ATOM      5  C   UNL     1       5.150   4.157  17.780  0.00  0.00    +0.000 C 
BRANCH   5   6
ATOM      6  C   UNL     1       3.807   3.867  18.290  0.00  0.00    +0.000 A 
ATOM      7  C   UNL     1       2.689   4.164  17.498  0.00  0.00    +0.000 A 
ATOM      8  C   UNL     1       1.394   3.958  17.983  0.00  0.00    +0.000 A 
ATOM      9  C   UNL     1       1.204   3.453  19.267  0.00  0.00    +0.000 A 
ATOM     10  C   UNL     1       2.320   3.158  20.063  0.00  0.00    +0.000 A 
ATOM     11  C   UNL     1       3.623   3.367  19.582  0.00  0.00    +0.000 A 
BRANCH  10  12
ATOM     12  N   UNL     1       2.125   2.629  21.417  0.00  0.00    +0.000 N 
ATOM     13  O   UNL     1       0.980   2.666  21.892  0.00  0.00    +0.000 OA
ATOM     14  O   UNL     1       3.115   2.176  22.009  0.00  0.00    +0.000 OA
ENDBRANCH  10  12
ENDBRANCH   5   6
ENDBRANCH   3   4
ENDBRANCH   1   3
BRANCH   1  15
ATOM     15  C   UNL     1       7.966   8.058  18.021  0.00  0.00    +0.000 C 
ATOM     16  O   UNL     1       7.310   8.402  17.040  0.00  0.00    +0.000 OA
BRANCH  15  17
ATOM     17  C   UNL     1       8.843   9.056  18.697  0.00  0.00    +0.000 C 
ATOM     18  C   UNL     1       8.845  10.311  18.218  0.00  0.00    +0.000 C 
BRANCH  18  19
ATOM     19  C   UNL     1       9.755  11.379  18.637  0.00  0.00    +0.000 A 
ATOM     20  C   UNL     1      11.067  11.393  18.138  0.00  0.00    +0.000 A 
ATOM     21  C   UNL     1      11.999  12.325  18.605  0.00  0.00    +0.000 A 
ATOM     22  C   UNL     1      11.632  13.251  19.583  0.00  0.00    +0.000 A 
ATOM     23  C   UNL     1      10.326  13.229  20.089  0.00  0.00    +0.000 A 
ATOM     24  C   UNL     1       9.391  12.299  19.626  0.00  0.00    +0.000 A 
BRANCH  23  25
ATOM     25  N   UNL     1       9.933  14.176  21.137  0.00  0.00    +0.000 N 
ATOM     26  O   UNL     1       9.599  13.715  22.238  0.00  0.00    +0.000 OA
ATOM     27  O   UNL     1       9.962  15.385  20.862  0.00  0.00    +0.000 OA
ENDBRANCH  23  25
ENDBRANCH  18  19
ENDBRANCH  15  17
ENDBRANCH   1  15
TORSDOF 8
ENDMDL
MODEL 9
REMARK VINA RESULT:      -8.2      1.906      7.072
REMARK  Name = 
REMARK  8 active torsions:
REMARK  status: ('A' for Active; 'I' for Inactive)
REMARK    1  A    between atoms: C_2  and  C_3
REMARK    2  A    between atoms: C_2  and  C_14
REMARK    3  A    between atoms: C_4  and  C_5
REMARK    4  A    between atoms: C_9  and  N_10
REMARK    5  A    between atoms: C_14  and  C_15
REMARK    6  A    between atoms: C_15  and  C_17
REMARK    7  A    between atoms: C_18  and  C_19
REMARK    8  A    between atoms: C_23  and  N_24
REMARK                            x       y       z     vdW  Elec       q    Type
REMARK                         _______ _______ _______ _____ _____    ______ ____
ROOT
ATOM      1  C   UNL     1       2.990   2.337  20.988  0.00  0.00    +0.000 C 
ENDROOT
BRANCH   1   3
ATOM      2  O   UNL     1       2.422   1.485  18.834  0.00  0.00    +0.000 OA
ATOM      3  C   UNL     1       3.175   2.208  19.487  0.00  0.00    +0.000 C 
BRANCH   3   4
ATOM      4  C   UNL     1       4.210   3.026  18.789  0.00  0.00    +0.000 C 
ATOM      5  C   UNL     1       4.970   3.928  19.426  0.00  0.00    +0.000 C 
BRANCH   5   6
ATOM      6  C   UNL     1       5.854   4.794  18.640  0.00  0.00    +0.000 A 
ATOM      7  C   UNL     1       6.874   5.508  19.285  0.00  0.00    +0.000 A 
ATOM      8  C   UNL     1       7.690   6.390  18.572  0.00  0.00    +0.000 A 
ATOM      9  C   UNL     1       7.494   6.568  17.204  0.00  0.00    +0.000 A 
ATOM     10  C   UNL     1       6.473   5.858  16.556  0.00  0.00    +0.000 A 
ATOM     11  C   UNL     1       5.648   4.974  17.269  0.00  0.00    +0.000 A 
BRANCH  10  12
ATOM     12  N   UNL     1       6.261   6.046  15.117  0.00  0.00    +0.000 N 
ATOM     13  O   UNL     1       5.274   6.706  14.759  0.00  0.00    +0.000 OA
ATOM     14  O   UNL     1       7.080   5.532  14.341  0.00  0.00    +0.000 OA
ENDBRANCH  10  12
ENDBRANCH   5   6
ENDBRANCH   3   4
ENDBRANCH   1   3
BRANCH   1  15
ATOM     15  C   UNL     1       1.792   3.104  21.492  0.00  0.00    +0.000 C 
ATOM     16  O   UNL     1       1.137   2.769  22.477  0.00  0.00    +0.000 OA
BRANCH  15  17
ATOM     17  C   UNL     1       1.370   4.300  20.708  0.00  0.00    +0.000 C 
ATOM     18  C   UNL     1       2.184   5.369  20.714  0.00  0.00    +0.000 C 
BRANCH  18  19
ATOM     19  C   UNL     1       1.868   6.681  20.148  0.00  0.00    +0.000 A 
ATOM     20  C   UNL     1       2.254   6.966  18.828  0.00  0.00    +0.000 A 
ATOM     21  C   UNL     1       2.075   8.245  18.293  0.00  0.00    +0.000 A 
ATOM     22  C   UNL     1       1.516   9.259  19.074  0.00  0.00    +0.000 A 
ATOM     23  C   UNL     1       1.142   8.977  20.393  0.00  0.00    +0.000 A 
ATOM     24  C   UNL     1       1.318   7.700  20.934  0.00  0.00    +0.000 A 
BRANCH  23  25
ATOM     25  N   UNL     1       0.580  10.037  21.235  0.00  0.00    +0.000 N 
ATOM     26  O   UNL     1      -0.609   9.938  21.575  0.00  0.00    +0.000 OA
ATOM     27  O   UNL     1       1.326  10.972  21.562  0.00  0.00    +0.000 OA
ENDBRANCH  23  25
ENDBRANCH  18  19
ENDBRANCH  15  17
ENDBRANCH   1  15
TORSDOF 8
ENDMDL
