MODEL 1
REMARK VINA RESULT:      -8.5      0.000      0.000
REMARK  Name = 
REMARK  3 active torsions:
REMARK  status: ('A' for Active; 'I' for Inactive)
REMARK    1  A    between atoms: C_2  and  C_3
REMARK    2  A    between atoms: C_3  and  S_4
REMARK    3  A    between atoms: S_4  and  C_5
REMARK                            x       y       z     vdW  Elec       q    Type
REMARK                         _______ _______ _______ _____ _____    ______ ____
ROOT
ATOM      1  C   UNL     1       3.680   5.465  19.604  0.00  0.00    +0.000 C 
ENDROOT
BRANCH   1   3
ATOM      2  O   UNL     1       3.125   6.990  17.815  0.00  0.00    +0.000 OA
ATOM      3  C   UNL     1       2.818   6.776  19.041  0.00  0.00    +0.000 C 
ATOM      4  N   UNL     1       1.923   7.818  19.934  0.00  0.00    +0.000 N 
ATOM      5  C   UNL     1       1.777   8.552  18.682  0.00  0.00    +0.000 C 
ATOM      6  C   UNL     1       0.911   9.718  18.252  0.00  0.00    +0.000 C 
ATOM      7  C   UNL     1       0.188  10.691  19.071  0.00  0.00    +0.000 C 
ATOM      8  C   UNL     1       0.244  10.088  20.418  0.00  0.00    +0.000 A 
ATOM      9  C   UNL     1      -0.615  10.947  21.218  0.00  0.00    +0.000 A 
ATOM     10  C   UNL     1      -0.778  10.764  22.552  0.00  0.00    +0.000 A 
ATOM     11  C   UNL     1      -0.065   9.698  23.050  0.00  0.00    +0.000 A 
ATOM     12  C   UNL     1       0.778   8.837  22.196  0.00  0.00    +0.000 A 
ATOM     13  C   UNL     1       0.994   8.926  20.806  0.00  0.00    +0.000 A 
ENDBRANCH   1   3
BRANCH   1  14
ATOM     14  S   UNL     1       4.127   4.005  18.534  0.00  0.00    +0.000 S 
BRANCH  14  15
ATOM     15  C   UNL     1       5.110   4.489  17.092  0.00  0.00    +0.000 A 
ATOM     16  N   UNL     1       6.084   5.308  17.256  0.00  0.00    +0.000 NA
ATOM     17  C   UNL     1       6.861   5.623  16.162  0.00  0.00    +0.000 A 
ATOM     18  O   UNL     1       7.683   6.540  16.194  0.00  0.00    +0.000 OA
ATOM     19  N   UNL     1       6.759   4.939  14.974  0.00  0.00    +0.000 N 
ATOM     20  C   UNL     1       7.647   5.189  13.961  0.00  0.00    +0.000 A 
ATOM     21  C   UNL     1       7.525   4.665  12.736  0.00  0.00    +0.000 A 
ATOM     22  C   UNL     1       6.371   3.852  12.438  0.00  0.00    +0.000 A 
ATOM     23  C   UNL     1       5.452   3.622  13.406  0.00  0.00    +0.000 A 
ATOM     24  C   UNL     1       5.638   4.168  14.835  0.00  0.00    +0.000 A 
ATOM     25  N   UNL     1       4.817   3.950  15.832  0.00  0.00    +0.000 NA
ENDBRANCH  14  15
ENDBRANCH   1  14
TORSDOF 3
ENDMDL
MODEL 2
REMARK VINA RESULT:      -8.4      1.396      1.718
REMARK  Name = 
REMARK  3 active torsions:
REMARK  status: ('A' for Active; 'I' for Inactive)
REMARK    1  A    between atoms: C_2  and  C_3
REMARK    2  A    between atoms: C_3  and  S_4
REMARK    3  A    between atoms: S_4  and  C_5
REMARK                            x       y       z     vdW  Elec       q    Type
REMARK                         _______ _______ _______ _____ _____    ______ ____
ROOT
ATOM      1  C   UNL     1       2.249   5.024  20.890  0.00  0.00    +0.000 C 
ENDROOT
BRANCH   1   3
ATOM      2  O   UNL     1       2.658   6.533  19.048  0.00  0.00    +0.000 OA
ATOM      3  C   UNL     1       1.983   6.488  20.137  0.00  0.00    +0.000 C 
ATOM      4  N   UNL     1       1.217   7.791  20.768  0.00  0.00    +0.000 N 
ATOM      5  C   UNL     1       1.631   8.459  19.539  0.00  0.00    +0.000 C 
ATOM      6  C   UNL     1       1.284   9.793  18.909  0.00  0.00    +0.000 C 
ATOM      7  C   UNL     1       0.676  10.977  19.516  0.00  0.00    +0.000 C 
ATOM      8  C   UNL     1       0.191  10.466  20.814  0.00  0.00    +0.000 A 
ATOM      9  C   UNL     1      -0.570  11.578  21.362  0.00  0.00    +0.000 A 
ATOM     10  C   UNL     1      -1.133  11.529  22.594  0.00  0.00    +0.000 A 
ATOM     11  C   UNL     1      -0.917  10.339  23.248  0.00  0.00    +0.000 A 
ATOM     12  C   UNL     1      -0.156   9.226  22.644  0.00  0.00    +0.000 A 
ATOM     13  C   UNL     1       0.443   9.166  21.371  0.00  0.00    +0.000 A 
ENDBRANCH   1   3
BRANCH   1  14
ATOM     14  S   UNL     1       3.009   3.558  20.026  0.00  0.00    +0.000 S 
BRANCH  14  15
ATOM     15  C   UNL     1       4.306   4.048  18.861  0.00  0.00    +0.000 A 
ATOM     16  N   UNL     1       5.482   4.295  19.315  0.00  0.00    +0.000 NA
ATOM     17  C   UNL     1       6.474   4.609  18.411  0.00  0.00    +0.000 A 
ATOM     18  O   UNL     1       7.567   5.045  18.776  0.00  0.00    +0.000 OA
ATOM     19  N   UNL     1       6.300   4.462  17.056  0.00  0.00    +0.000 N 
ATOM     20  C   UNL     1       7.358   4.648  16.205  0.00  0.00    +0.000 A 
ATOM     21  C   UNL     1       7.233   4.657  14.873  0.00  0.00    +0.000 A 
ATOM     22  C   UNL     1       5.915   4.532  14.297  0.00  0.00    +0.000 A 
ATOM     23  C   UNL     1       4.844   4.390  15.113  0.00  0.00    +0.000 A 
ATOM     24  C   UNL     1       5.006   4.307  16.643  0.00  0.00    +0.000 A 
ATOM     25  N   UNL     1       4.024   4.125  17.491  0.00  0.00    +0.000 NA
ENDBRANCH  14  15
ENDBRANCH   1  14
TORSDOF 3
ENDMDL
MODEL 3
REMARK VINA RESULT:      -8.0      5.236      7.655
REMARK  Name = 
REMARK  3 active torsions:
REMARK  status: ('A' for Active; 'I' for Inactive)
REMARK    1  A    between atoms: C_2  and  C_3
REMARK    2  A    between atoms: C_3  and  S_4
REMARK    3  A    between atoms: S_4  and  C_5
REMARK                            x       y       z     vdW  Elec       q    Type
REMARK                         _______ _______ _______ _____ _____    ______ ____
ROOT
ATOM      1  C   UNL     1       8.193   6.783  18.627  0.00  0.00    +0.000 C 
ENDROOT
BRANCH   1   3
ATOM      2  O   UNL     1       7.114   8.376  17.164  0.00  0.00    +0.000 OA
ATOM      3  C   UNL     1       7.958   8.357  18.130  0.00  0.00    +0.000 C 
ATOM      4  N   UNL     1       8.832   9.669  18.578  0.00  0.00    +0.000 N 
ATOM      5  C   UNL     1       8.024  10.376  17.590  0.00  0.00    +0.000 C 
ATOM      6  C   UNL     1       7.841  11.839  17.248  0.00  0.00    +0.000 C 
ATOM      7  C   UNL     1       8.683  12.986  17.588  0.00  0.00    +0.000 C 
ATOM      8  C   UNL     1       9.595  12.430  18.609  0.00  0.00    +0.000 A 
ATOM      9  C   UNL     1      10.327  13.591  19.089  0.00  0.00    +0.000 A 
ATOM     10  C   UNL     1      11.323  13.488  20.003  0.00  0.00    +0.000 A 
ATOM     11  C   UNL     1      11.552  12.198  20.421  0.00  0.00    +0.000 A 
ATOM     12  C   UNL     1      10.768  11.050  19.923  0.00  0.00    +0.000 A 
ATOM     13  C   UNL     1       9.704  11.052  18.999  0.00  0.00    +0.000 A 
ENDBRANCH   1   3
BRANCH   1  14
ATOM     14  S   UNL     1       7.314   5.331  17.856  0.00  0.00    +0.000 S 
BRANCH  14  15
ATOM     15  C   UNL     1       5.615   5.161  18.456  0.00  0.00    +0.000 A 
ATOM     16  N   UNL     1       4.746   6.039  18.106  0.00  0.00    +0.000 NA
ATOM     17  C   UNL     1       3.443   5.866  18.522  0.00  0.00    +0.000 A 
ATOM     18  O   UNL     1       2.600   6.756  18.393  0.00  0.00    +0.000 OA
ATOM     19  N   UNL     1       3.012   4.700  19.107  0.00  0.00    +0.000 N 
ATOM     20  C   UNL     1       1.681   4.518  19.373  0.00  0.00    +0.000 A 
ATOM     21  C   UNL     1       1.209   3.473  20.062  0.00  0.00    +0.000 A 
ATOM     22  C   UNL     1       2.145   2.523  20.614  0.00  0.00    +0.000 A 
ATOM     23  C   UNL     1       3.472   2.699  20.405  0.00  0.00    +0.000 A 
ATOM     24  C   UNL     1       4.001   3.865  19.548  0.00  0.00    +0.000 A 
ATOM     25  N   UNL     1       5.263   4.073  19.266  0.00  0.00    +0.000 NA
ENDBRANCH  14  15
ENDBRANCH   1  14
TORSDOF 3
ENDMDL
MODEL 4
REMARK VINA RESULT:      -8.0      3.669      9.634
REMARK  Name = 
REMARK  3 active torsions:
REMARK  status: ('A' for Active; 'I' for Inactive)
REMARK    1  A    between atoms: C_2  and  C_3
REMARK    2  A    between atoms: C_3  and  S_4
REMARK    3  A    between atoms: S_4  and  C_5
REMARK                            x       y       z     vdW  Elec       q    Type
REMARK                         _______ _______ _______ _____ _____    ______ ____
ROOT
ATOM      1  C   UNL     1       1.340   9.140  18.017  0.00  0.00    +0.000 C 
ENDROOT
BRANCH   1   3
ATOM      2  O   UNL     1       3.445   8.266  17.216  0.00  0.00    +0.000 OA
ATOM      3  C   UNL     1       2.534   7.979  18.071  0.00  0.00    +0.000 C 
ATOM      4  N   UNL     1       2.476   6.548  18.868  0.00  0.00    +0.000 N 
ATOM      5  C   UNL     1       3.753   6.286  18.213  0.00  0.00    +0.000 C 
ATOM      6  C   UNL     1       4.807   5.211  18.375  0.00  0.00    +0.000 C 
ATOM      7  C   UNL     1       4.706   3.900  19.018  0.00  0.00    +0.000 C 
ATOM      8  C   UNL     1       3.425   3.992  19.747  0.00  0.00    +0.000 A 
ATOM      9  C   UNL     1       3.386   2.769  20.533  0.00  0.00    +0.000 A 
ATOM     10  C   UNL     1       2.319   2.441  21.304  0.00  0.00    +0.000 A 
ATOM     11  C   UNL     1       1.309   3.373  21.266  0.00  0.00    +0.000 A 
ATOM     12  C   UNL     1       1.401   4.614  20.471  0.00  0.00    +0.000 A 
ATOM     13  C   UNL     1       2.466   5.058  19.662  0.00  0.00    +0.000 A 
ENDBRANCH   1   3
BRANCH   1  14
ATOM     14  S   UNL     1       1.498  10.803  18.846  0.00  0.00    +0.000 S 
BRANCH  14  15
ATOM     15  C   UNL     1       0.279  11.028  20.166  0.00  0.00    +0.000 A 
ATOM     16  N   UNL     1       0.561  10.604  21.345  0.00  0.00    +0.000 NA
ATOM     17  C   UNL     1      -0.351  10.834  22.353  0.00  0.00    +0.000 A 
ATOM     18  O   UNL     1      -0.245  10.295  23.455  0.00  0.00    +0.000 OA
ATOM     19  N   UNL     1      -1.429  11.669  22.185  0.00  0.00    +0.000 N 
ATOM     20  C   UNL     1      -2.227  11.981  23.254  0.00  0.00    +0.000 A 
ATOM     21  C   UNL     1      -3.368  12.672  23.139  0.00  0.00    +0.000 A 
ATOM     22  C   UNL     1      -3.821  13.053  21.823  0.00  0.00    +0.000 A 
ATOM     23  C   UNL     1      -3.075  12.721  20.741  0.00  0.00    +0.000 A 
ATOM     24  C   UNL     1      -1.728  11.990  20.890  0.00  0.00    +0.000 A 
ATOM     25  N   UNL     1      -0.933  11.677  19.896  0.00  0.00    +0.000 NA
ENDBRANCH  14  15
ENDBRANCH   1  14
TORSDOF 3
ENDMDL
MODEL 5
REMARK VINA RESULT:      -8.0      4.021      6.042
REMARK  Name = 
REMARK  3 active torsions:
REMARK  status: ('A' for Active; 'I' for Inactive)
REMARK    1  A    between atoms: C_2  and  C_3
REMARK    2  A    between atoms: C_3  and  S_4
REMARK    3  A    between atoms: S_4  and  C_5
REMARK                            x       y       z     vdW  Elec       q    Type
REMARK                         _______ _______ _______ _____ _____    ______ ____
ROOT
ATOM      1  C   UNL     1       0.751  10.215  20.412  0.00  0.00    +0.000 C 
ENDROOT
BRANCH   1   3
ATOM      2  O   UNL     1       0.524   9.564  18.096  0.00  0.00    +0.000 OA
ATOM      3  C   UNL     1      -0.177  10.087  19.034  0.00  0.00    +0.000 C 
ATOM      4  N   UNL     1      -1.654  10.749  18.780  0.00  0.00    +0.000 N 
ATOM      5  C   UNL     1      -1.497  10.245  17.421  0.00  0.00    +0.000 C 
ATOM      6  C   UNL     1      -2.436  10.124  16.238  0.00  0.00    +0.000 C 
ATOM      7  C   UNL     1      -3.714  10.794  15.994  0.00  0.00    +0.000 C 
ATOM      8  C   UNL     1      -4.031  11.382  17.311  0.00  0.00    +0.000 A 
ATOM      9  C   UNL     1      -5.378  11.905  17.142  0.00  0.00    +0.000 A 
ATOM     10  C   UNL     1      -6.014  12.591  18.124  0.00  0.00    +0.000 A 
ATOM     11  C   UNL     1      -5.266  12.729  19.269  0.00  0.00    +0.000 A 
ATOM     12  C   UNL     1      -3.908  12.161  19.406  0.00  0.00    +0.000 A 
ATOM     13  C   UNL     1      -3.173  11.416  18.463  0.00  0.00    +0.000 A 
ENDBRANCH   1   3
BRANCH   1  14
ATOM     14  S   UNL     1       1.166   8.757  21.498  0.00  0.00    +0.000 S 
BRANCH  14  15
ATOM     15  C   UNL     1       1.622   7.294  20.535  0.00  0.00    +0.000 A 
ATOM     16  N   UNL     1       2.399   7.439  19.523  0.00  0.00    +0.000 NA
ATOM     17  C   UNL     1       2.786   6.309  18.833  0.00  0.00    +0.000 A 
ATOM     18  O   UNL     1       3.364   6.381  17.748  0.00  0.00    +0.000 OA
ATOM     19  N   UNL     1       2.543   5.044  19.311  0.00  0.00    +0.000 N 
ATOM     20  C   UNL     1       3.070   3.956  18.666  0.00  0.00    +0.000 A 
ATOM     21  C   UNL     1       2.764   2.694  18.992  0.00  0.00    +0.000 A 
ATOM     22  C   UNL     1       1.784   2.460  20.024  0.00  0.00    +0.000 A 
ATOM     23  C   UNL     1       1.213   3.516  20.651  0.00  0.00    +0.000 A 
ATOM     24  C   UNL     1       1.624   4.963  20.320  0.00  0.00    +0.000 A 
ATOM     25  N   UNL     1       1.150   6.031  20.914  0.00  0.00    +0.000 NA
ENDBRANCH  14  15
ENDBRANCH   1  14
TORSDOF 3
ENDMDL
MODEL 6
REMARK VINA RESULT:      -7.9      3.605      9.139
REMARK  Name = 
REMARK  3 active torsions:
REMARK  status: ('A' for Active; 'I' for Inactive)
REMARK    1  A    between atoms: C_2  and  C_3
REMARK    2  A    between atoms: C_3  and  S_4
REMARK    3  A    between atoms: S_4  and  C_5
REMARK                            x       y       z     vdW  Elec       q    Type
REMARK                         _______ _______ _______ _____ _____    ______ ____
ROOT
ATOM      1  C   UNL     1       1.506   8.187  20.401  0.00  0.00    +0.000 C 
ENDROOT
BRANCH   1   3
ATOM      2  O   UNL     1       1.516   5.810  20.835  0.00  0.00    +0.000 OA
ATOM      3  C   UNL     1       1.925   6.639  19.946  0.00  0.00    +0.000 C 
ATOM      4  N   UNL     1       2.927   6.214  18.721  0.00  0.00    +0.000 N 
ATOM      5  C   UNL     1       2.756   4.859  19.233  0.00  0.00    +0.000 C 
ATOM      6  C   UNL     1       3.136   3.490  18.707  0.00  0.00    +0.000 C 
ATOM      7  C   UNL     1       4.099   3.128  17.668  0.00  0.00    +0.000 C 
ATOM      8  C   UNL     1       4.394   4.427  17.030  0.00  0.00    +0.000 A 
ATOM      9  C   UNL     1       5.215   4.071  15.883  0.00  0.00    +0.000 A 
ATOM     10  C   UNL     1       5.753   5.007  15.063  0.00  0.00    +0.000 A 
ATOM     11  C   UNL     1       5.439   6.297  15.422  0.00  0.00    +0.000 A 
ATOM     12  C   UNL     1       4.581   6.612  16.583  0.00  0.00    +0.000 A 
ATOM     13  C   UNL     1       3.957   5.720  17.477  0.00  0.00    +0.000 A 
ENDBRANCH   1   3
BRANCH   1  14
ATOM     14  S   UNL     1       1.491   9.627  19.216  0.00  0.00    +0.000 S 
BRANCH  14  15
ATOM     15  C   UNL     1      -0.190  10.180  18.833  0.00  0.00    +0.000 A 
ATOM     16  N   UNL     1      -0.763  11.010  19.627  0.00  0.00    +0.000 NA
ATOM     17  C   UNL     1      -2.019  11.468  19.293  0.00  0.00    +0.000 A 
ATOM     18  O   UNL     1      -2.708  12.106  20.091  0.00  0.00    +0.000 OA
ATOM     19  N   UNL     1      -2.577  11.234  18.059  0.00  0.00    +0.000 N 
ATOM     20  C   UNL     1      -3.764  11.829  17.720  0.00  0.00    +0.000 A 
ATOM     21  C   UNL     1      -4.431  11.540  16.596  0.00  0.00    +0.000 A 
ATOM     22  C   UNL     1      -3.919  10.508  15.728  0.00  0.00    +0.000 A 
ATOM     23  C   UNL     1      -2.770   9.872  16.057  0.00  0.00    +0.000 A 
ATOM     24  C   UNL     1      -1.970  10.260  17.315  0.00  0.00    +0.000 A 
ATOM     25  N   UNL     1      -0.830   9.722  17.674  0.00  0.00    +0.000 NA
ENDBRANCH  14  15
ENDBRANCH   1  14
TORSDOF 3
ENDMDL
MODEL 7
REMARK VINA RESULT:      -7.9      3.162     10.126
REMARK  Name = 
REMARK  3 active torsions:
REMARK  status: ('A' for Active; 'I' for Inactive)
REMARK    1  A    between atoms: C_2  and  C_3
REMARK    2  A    between atoms: C_3  and  S_4
REMARK    3  A    between atoms: S_4  and  C_5
REMARK                            x       y       z     vdW  Elec       q    Type
REMARK                         _______ _______ _______ _____ _____    ______ ____
ROOT
ATOM      1  C   UNL     1       1.492   9.378  17.966  0.00  0.00    +0.000 C 
ENDROOT
BRANCH   1   3
ATOM      2  O   UNL     1       1.936   7.890  19.818  0.00  0.00    +0.000 OA
ATOM      3  C   UNL     1       2.228   8.012  18.575  0.00  0.00    +0.000 C 
ATOM      4  N   UNL     1       3.362   7.093  17.830  0.00  0.00    +0.000 N 
ATOM      5  C   UNL     1       3.427   6.382  19.102  0.00  0.00    +0.000 C 
ATOM      6  C   UNL     1       4.093   5.096  19.544  0.00  0.00    +0.000 C 
ATOM      7  C   UNL     1       5.167   4.337  18.903  0.00  0.00    +0.000 C 
ATOM      8  C   UNL     1       5.242   4.949  17.561  0.00  0.00    +0.000 A 
ATOM      9  C   UNL     1       6.181   4.099  16.845  0.00  0.00    +0.000 A 
ATOM     10  C   UNL     1       6.574   4.368  15.576  0.00  0.00    +0.000 A 
ATOM     11  C   UNL     1       5.996   5.500  15.051  0.00  0.00    +0.000 A 
ATOM     12  C   UNL     1       5.028   6.322  15.807  0.00  0.00    +0.000 A 
ATOM     13  C   UNL     1       4.538   6.117  17.111  0.00  0.00    +0.000 A 
ENDBRANCH   1   3
BRANCH   1  14
ATOM     14  S   UNL     1       1.555  11.034  18.821  0.00  0.00    +0.000 S 
BRANCH  14  15
ATOM     15  C   UNL     1       0.321  11.171  20.139  0.00  0.00    +0.000 A 
ATOM     16  N   UNL     1       0.616  10.729  21.308  0.00  0.00    +0.000 NA
ATOM     17  C   UNL     1      -0.310  10.892  22.317  0.00  0.00    +0.000 A 
ATOM     18  O   UNL     1      -0.186  10.329  23.405  0.00  0.00    +0.000 OA
ATOM     19  N   UNL     1      -1.423  11.684  22.165  0.00  0.00    +0.000 N 
ATOM     20  C   UNL     1      -2.238  11.933  23.238  0.00  0.00    +0.000 A 
ATOM     21  C   UNL     1      -3.407  12.576  23.134  0.00  0.00    +0.000 A 
ATOM     22  C   UNL     1      -3.870  12.972  21.826  0.00  0.00    +0.000 A 
ATOM     23  C   UNL     1      -3.106  12.702  20.741  0.00  0.00    +0.000 A 
ATOM     24  C   UNL     1      -1.729  12.026  20.877  0.00  0.00    +0.000 A 
ATOM     25  N   UNL     1      -0.917  11.774  19.880  0.00  0.00    +0.000 NA
ENDBRANCH  14  15
ENDBRANCH   1  14
TORSDOF 3
ENDMDL
MODEL 8
REMARK VINA RESULT:      -7.9      3.279      5.129
REMARK  Name = 
REMARK  3 active torsions:
REMARK  status: ('A' for Active; 'I' for Inactive)
REMARK    1  A    between atoms: C_2  and  C_3
REMARK    2  A    between atoms: C_3  and  S_4
REMARK    3  A    between atoms: S_4  and  C_5
REMARK                            x       y       z     vdW  Elec       q    Type
REMARK                         _______ _______ _______ _____ _____    ______ ____
ROOT
ATOM      1  C   UNL     1       1.841   8.770  19.739  0.00  0.00    +0.000 C 
ENDROOT
BRANCH   1   3
ATOM      2  O   UNL     1       0.784  10.389  21.188  0.00  0.00    +0.000 OA
ATOM      3  C   UNL     1       0.651   9.906  20.008  0.00  0.00    +0.000 C 
ATOM      4  N   UNL     1      -0.657  10.200  19.065  0.00  0.00    +0.000 N 
ATOM      5  C   UNL     1      -1.055  11.108  20.135  0.00  0.00    +0.000 C 
ATOM      6  C   UNL     1      -2.140  12.157  20.261  0.00  0.00    +0.000 C 
ATOM      7  C   UNL     1      -3.347  12.348  19.457  0.00  0.00    +0.000 C 
ATOM      8  C   UNL     1      -3.107  11.468  18.296  0.00  0.00    +0.000 A 
ATOM      9  C   UNL     1      -4.211  11.771  17.398  0.00  0.00    +0.000 A 
ATOM     10  C   UNL     1      -4.390  11.113  16.226  0.00  0.00    +0.000 A 
ATOM     11  C   UNL     1      -3.432  10.156  15.984  0.00  0.00    +0.000 A 
ATOM     12  C   UNL     1      -2.313   9.897  16.913  0.00  0.00    +0.000 A 
ATOM     13  C   UNL     1      -2.025  10.537  18.135  0.00  0.00    +0.000 A 
ENDBRANCH   1   3
BRANCH   1  14
ATOM     14  S   UNL     1       2.506   8.376  18.042  0.00  0.00    +0.000 S 
BRANCH  14  15
ATOM     15  C   UNL     1       2.893   6.618  17.851  0.00  0.00    +0.000 A 
ATOM     16  N   UNL     1       4.025   6.287  17.343  0.00  0.00    +0.000 NA
ATOM     17  C   UNL     1       4.332   4.946  17.257  0.00  0.00    +0.000 A 
ATOM     18  O   UNL     1       5.302   4.544  16.612  0.00  0.00    +0.000 OA
ATOM     19  N   UNL     1       3.573   3.982  17.877  0.00  0.00    +0.000 N 
ATOM     20  C   UNL     1       3.994   2.679  17.886  0.00  0.00    +0.000 A 
ATOM     21  C   UNL     1       3.244   1.671  18.347  0.00  0.00    +0.000 A 
ATOM     22  C   UNL     1       1.902   1.951  18.796  0.00  0.00    +0.000 A 
ATOM     23  C   UNL     1       1.441   3.224  18.760  0.00  0.00    +0.000 A 
ATOM     24  C   UNL     1       2.336   4.389  18.296  0.00  0.00    +0.000 A 
ATOM     25  N   UNL     1       1.976   5.648  18.277  0.00  0.00    +0.000 NA
ENDBRANCH  14  15
ENDBRANCH   1  14
TORSDOF 3
ENDMDL
MODEL 9
REMARK VINA RESULT:      -7.9      6.016      8.103
REMARK  Name = 
REMARK  3 active torsions:
REMARK  status: ('A' for Active; 'I' for Inactive)
REMARK    1  A    between atoms: C_2  and  C_3
REMARK    2  A    between atoms: C_3  and  S_4
REMARK    3  A    between atoms: S_4  and  C_5
REMARK                            x       y       z     vdW  Elec       q    Type
REMARK                         _______ _______ _______ _____ _____    ______ ____
ROOT
ATOM      1  C   UNL     1       7.474   8.552  17.600  0.00  0.00    +0.000 C 
ENDROOT
BRANCH   1   3
ATOM      2  O   UNL     1       7.490   6.564  16.226  0.00  0.00    +0.000 OA
ATOM      3  C   UNL     1       6.856   7.049  17.230  0.00  0.00    +0.000 C 
ATOM      4  N   UNL     1       5.492   6.372  17.836  0.00  0.00    +0.000 N 
ATOM      5  C   UNL     1       5.754   5.308  16.872  0.00  0.00    +0.000 C 
ATOM      6  C   UNL     1       5.159   3.933  16.650  0.00  0.00    +0.000 C 
ATOM      7  C   UNL     1       3.894   3.378  17.132  0.00  0.00    +0.000 C 
ATOM      8  C   UNL     1       3.471   4.365  18.147  0.00  0.00    +0.000 A 
ATOM      9  C   UNL     1       2.307   3.749  18.764  0.00  0.00    +0.000 A 
ATOM     10  C   UNL     1       1.578   4.380  19.717  0.00  0.00    +0.000 A 
ATOM     11  C   UNL     1       2.053   5.631  20.032  0.00  0.00    +0.000 A 
ATOM     12  C   UNL     1       3.255   6.209  19.396  0.00  0.00    +0.000 A 
ATOM     13  C   UNL     1       4.091   5.631  18.421  0.00  0.00    +0.000 A 
ENDBRANCH   1   3
BRANCH   1  14
ATOM     14  S   UNL     1       8.833   8.814  18.849  0.00  0.00    +0.000 S 
BRANCH  14  15
ATOM     15  C   UNL     1       9.340  10.548  18.955  0.00  0.00    +0.000 A 
ATOM     16  N   UNL     1       9.140  11.183  20.054  0.00  0.00    +0.000 NA
ATOM     17  C   UNL     1       9.583  12.486  20.141  0.00  0.00    +0.000 A 
ATOM     18  O   UNL     1       9.260  13.216  21.079  0.00  0.00    +0.000 OA
ATOM     19  N   UNL     1      10.402  13.044  19.189  0.00  0.00    +0.000 N 
ATOM     20  C   UNL     1      10.933  14.291  19.389  0.00  0.00    +0.000 A 
ATOM     21  C   UNL     1      11.622  14.950  18.450  0.00  0.00    +0.000 A 
ATOM     22  C   UNL     1      11.759  14.358  17.141  0.00  0.00    +0.000 A 
ATOM     23  C   UNL     1      11.207  13.144  16.900  0.00  0.00    +0.000 A 
ATOM     24  C   UNL     1      10.479  12.360  18.007  0.00  0.00    +0.000 A 
ATOM     25  N   UNL     1       9.960  11.166  17.861  0.00  0.00    +0.000 NA
ENDBRANCH  14  15
ENDBRANCH   1  14
TORSDOF 3
ENDMDL
