MODEL 1
REMARK VINA RESULT:      -6.9      0.000      0.000
REMARK  Name = 
REMARK  4 active torsions:
REMARK  status: ('A' for Active; 'I' for Inactive)
REMARK    1  A    between atoms: C_1  and  O_2
REMARK    2  A    between atoms: O_2  and  C_3
REMARK    3  A    between atoms: C_11  and  C_13
REMARK    4  A    between atoms: C_17  and  C_18
REMARK                            x       y       z     vdW  Elec       q    Type
REMARK                         _______ _______ _______ _____ _____    ______ ____
ROOT
ATOM      1  C   UNL     1       0.295  12.110  20.520  0.00  0.00    +0.000 A 
ATOM      2  C   UNL     1      -0.434  12.611  21.617  0.00  0.00    +0.000 A 
ATOM      3  C   UNL     1      -0.846  11.781  22.654  0.00  0.00    +0.000 A 
ATOM      4  C   UNL     1      -0.551  10.422  22.631  0.00  0.00    +0.000 A 
ATOM      5  C   UNL     1       0.161   9.915  21.535  0.00  0.00    +0.000 A 
ATOM      6  S   UNL     1       0.655   8.295  21.267  0.00  0.00    +0.000 S 
ATOM      7  C   UNL     1       1.403   8.750  19.809  0.00  0.00    +0.000 A 
ATOM      8  N   UNL     1       2.027   7.819  19.004  0.00  0.00    +0.000 N 
ATOM      9  C   UNL     1       2.452   6.564  19.408  0.00  0.00    +0.000 C 
ATOM     10  O   UNL     1       2.463   6.150  20.562  0.00  0.00    +0.000 OA
ATOM     11  N   UNL     1       1.268  10.010  19.464  0.00  0.00    +0.000 NA
ATOM     12  C   UNL     1       0.586  10.714  20.470  0.00  0.00    +0.000 A 
ATOM     13  H   UNL     1       2.304   8.182  18.102  0.00  0.00    +0.000 HD
ENDROOT
BRANCH   9  14
ATOM     14  C   UNL     1       2.954   5.680  18.257  0.00  0.00    +0.000 C 
ATOM     15  C   UNL     1       3.953   4.626  18.760  0.00  0.00    +0.000 C 
ATOM     16  C   UNL     1       5.273   5.280  19.164  0.00  0.00    +0.000 C 
ATOM     17  N   UNL     1       5.842   5.968  18.010  0.00  0.00    +0.000 N 
ATOM     18  C   UNL     1       7.044   5.690  17.383  0.00  0.00    +0.000 C 
ATOM     19  C   UNL     1       7.906   4.549  17.870  0.00  0.00    +0.000 C 
ATOM     20  O   UNL     1       7.444   6.343  16.415  0.00  0.00    +0.000 OA
ATOM     21  C   UNL     1       4.996   7.042  17.483  0.00  0.00    +0.000 C 
ATOM     22  C   UNL     1       3.600   6.515  17.128  0.00  0.00    +0.000 C 
ENDBRANCH   9  14
BRANCH   1  24
ATOM     23  C   UNL     1      -0.308  13.316  18.564  0.00  0.00    +0.000 C 
ATOM     24  O   UNL     1       0.710  12.910  19.477  0.00  0.00    +0.000 OA
ENDBRANCH   1  24
TORSDOF 2
ENDMDL
MODEL 2
REMARK VINA RESULT:      -6.4      2.727      4.035
REMARK  Name = 
REMARK  4 active torsions:
REMARK  status: ('A' for Active; 'I' for Inactive)
REMARK    1  A    between atoms: C_1  and  O_2
REMARK    2  A    between atoms: O_2  and  C_3
REMARK    3  A    between atoms: C_11  and  C_13
REMARK    4  A    between atoms: C_17  and  C_18
REMARK                            x       y       z     vdW  Elec       q    Type
REMARK                         _______ _______ _______ _____ _____    ______ ____
ROOT
ATOM      1  C   UNL     1      -1.053  11.793  21.252  0.00  0.00    +0.000 A 
ATOM      2  C   UNL     1      -1.468  13.069  20.821  0.00  0.00    +0.000 A 
ATOM      3  C   UNL     1      -1.021  13.610  19.620  0.00  0.00    +0.000 A 
ATOM      4  C   UNL     1      -0.142  12.902  18.809  0.00  0.00    +0.000 A 
ATOM      5  C   UNL     1       0.287  11.638  19.239  0.00  0.00    +0.000 A 
ATOM      6  S   UNL     1       1.352  10.564  18.433  0.00  0.00    +0.000 S 
ATOM      7  C   UNL     1       1.174   9.425  19.683  0.00  0.00    +0.000 A 
ATOM      8  N   UNL     1       1.857   8.227  19.662  0.00  0.00    +0.000 N 
ATOM      9  C   UNL     1       2.425   7.646  18.541  0.00  0.00    +0.000 C 
ATOM     10  O   UNL     1       2.287   8.035  17.386  0.00  0.00    +0.000 OA
ATOM     11  N   UNL     1       0.426   9.799  20.696  0.00  0.00    +0.000 NA
ATOM     12  C   UNL     1      -0.133  11.063  20.442  0.00  0.00    +0.000 A 
ATOM     13  H   UNL     1       1.783   7.702  20.523  0.00  0.00    +0.000 HD
ENDROOT
BRANCH   9  14
ATOM     14  C   UNL     1       3.271   6.402  18.849  0.00  0.00    +0.000 C 
ATOM     15  C   UNL     1       3.002   5.280  17.833  0.00  0.00    +0.000 C 
ATOM     16  C   UNL     1       1.608   4.688  18.036  0.00  0.00    +0.000 C 
ATOM     17  N   UNL     1       1.507   4.147  19.386  0.00  0.00    +0.000 N 
ATOM     18  C   UNL     1       1.292   2.826  19.741  0.00  0.00    +0.000 C 
ATOM     19  C   UNL     1       1.164   1.766  18.672  0.00  0.00    +0.000 C 
ATOM     20  O   UNL     1       1.210   2.470  20.920  0.00  0.00    +0.000 OA
ATOM     21  C   UNL     1       1.685   5.147  20.442  0.00  0.00    +0.000 C 
ATOM     22  C   UNL     1       3.025   5.877  20.283  0.00  0.00    +0.000 C 
ENDBRANCH   9  14
BRANCH   1  24
ATOM     23  C   UNL     1      -2.439  11.994  23.171  0.00  0.00    +0.000 C 
ATOM     24  O   UNL     1      -1.476  11.236  22.439  0.00  0.00    +0.000 OA
ENDBRANCH   1  24
TORSDOF 2
ENDMDL
MODEL 3
REMARK VINA RESULT:      -6.4      5.910      7.471
REMARK  Name = 
REMARK  4 active torsions:
REMARK  status: ('A' for Active; 'I' for Inactive)
REMARK    1  A    between atoms: C_1  and  O_2
REMARK    2  A    between atoms: O_2  and  C_3
REMARK    3  A    between atoms: C_11  and  C_13
REMARK    4  A    between atoms: C_17  and  C_18
REMARK                            x       y       z     vdW  Elec       q    Type
REMARK                         _______ _______ _______ _____ _____    ______ ____
ROOT
ATOM      1  C   UNL     1       9.771  12.547  20.514  0.00  0.00    +0.000 A 
ATOM      2  C   UNL     1       9.964  13.838  19.983  0.00  0.00    +0.000 A 
ATOM      3  C   UNL     1       9.774  14.102  18.632  0.00  0.00    +0.000 A 
ATOM      4  C   UNL     1       9.389  13.089  17.761  0.00  0.00    +0.000 A 
ATOM      5  C   UNL     1       9.210  11.799  18.280  0.00  0.00    +0.000 A 
ATOM      6  S   UNL     1       8.736  10.387  17.432  0.00  0.00    +0.000 S 
ATOM      7  C   UNL     1       8.784   9.487  18.875  0.00  0.00    +0.000 A 
ATOM      8  N   UNL     1       8.508   8.136  18.884  0.00  0.00    +0.000 N 
ATOM      9  C   UNL     1       7.824   7.448  17.896  0.00  0.00    +0.000 C 
ATOM     10  O   UNL     1       7.247   7.956  16.940  0.00  0.00    +0.000 OA
ATOM     11  N   UNL     1       9.185  10.138  19.942  0.00  0.00    +0.000 NA
ATOM     12  C   UNL     1       9.399  11.491  19.630  0.00  0.00    +0.000 A 
ATOM     13  H   UNL     1       8.710   7.686  19.767  0.00  0.00    +0.000 HD
ENDROOT
BRANCH   9  14
ATOM     14  C   UNL     1       7.818   5.925  18.091  0.00  0.00    +0.000 C 
ATOM     15  C   UNL     1       7.119   5.216  16.920  0.00  0.00    +0.000 C 
ATOM     16  C   UNL     1       5.614   5.476  16.950  0.00  0.00    +0.000 C 
ATOM     17  N   UNL     1       5.065   4.980  18.207  0.00  0.00    +0.000 N 
ATOM     18  C   UNL     1       4.129   3.973  18.369  0.00  0.00    +0.000 C 
ATOM     19  C   UNL     1       3.588   3.242  17.162  0.00  0.00    +0.000 C 
ATOM     20  O   UNL     1       3.718   3.633  19.482  0.00  0.00    +0.000 OA
ATOM     21  C   UNL     1       5.618   5.634  19.396  0.00  0.00    +0.000 C 
ATOM     22  C   UNL     1       7.148   5.517  19.423  0.00  0.00    +0.000 C 
ENDBRANCH   9  14
BRANCH   1  24
ATOM     23  C   UNL     1       8.845  12.522  22.702  0.00  0.00    +0.000 C 
ATOM     24  O   UNL     1       9.958  12.257  21.849  0.00  0.00    +0.000 OA
ENDBRANCH   1  24
TORSDOF 2
ENDMDL
MODEL 4
REMARK VINA RESULT:      -6.4      1.752      2.464
REMARK  Name = 
REMARK  4 active torsions:
REMARK  status: ('A' for Active; 'I' for Inactive)
REMARK    1  A    between atoms: C_1  and  O_2
REMARK    2  A    between atoms: O_2  and  C_3
REMARK    3  A    between atoms: C_11  and  C_13
REMARK    4  A    between atoms: C_17  and  C_18
REMARK                            x       y       z     vdW  Elec       q    Type
REMARK                         _______ _______ _______ _____ _____    ______ ____
ROOT
ATOM      1  C   UNL     1       0.339  10.681  21.394  0.00  0.00    +0.000 A 
ATOM      2  C   UNL     1      -0.147  11.914  20.915  0.00  0.00    +0.000 A 
ATOM      3  C   UNL     1      -0.120  12.228  19.560  0.00  0.00    +0.000 A 
ATOM      4  C   UNL     1       0.397  11.327  18.636  0.00  0.00    +0.000 A 
ATOM      5  C   UNL     1       0.897  10.104  19.108  0.00  0.00    +0.000 A 
ATOM      6  S   UNL     1       1.575   8.827  18.188  0.00  0.00    +0.000 S 
ATOM      7  C   UNL     1       1.793   7.906  19.601  0.00  0.00    +0.000 A 
ATOM      8  N   UNL     1       2.379   6.658  19.558  0.00  0.00    +0.000 N 
ATOM      9  C   UNL     1       2.502   5.867  18.429  0.00  0.00    +0.000 C 
ATOM     10  O   UNL     1       1.991   6.094  17.337  0.00  0.00    +0.000 OA
ATOM     11  N   UNL     1       1.455   8.494  20.726  0.00  0.00    +0.000 NA
ATOM     12  C   UNL     1       0.895   9.755  20.461  0.00  0.00    +0.000 A 
ATOM     13  H   UNL     1       2.585   6.274  20.471  0.00  0.00    +0.000 HD
ENDROOT
BRANCH   9  14
ATOM     14  C   UNL     1       3.352   4.606  18.645  0.00  0.00    +0.000 C 
ATOM     15  C   UNL     1       4.444   4.845  19.699  0.00  0.00    +0.000 C 
ATOM     16  C   UNL     1       5.524   5.780  19.158  0.00  0.00    +0.000 C 
ATOM     17  N   UNL     1       6.125   5.185  17.970  0.00  0.00    +0.000 N 
ATOM     18  C   UNL     1       7.445   4.801  17.807  0.00  0.00    +0.000 C 
ATOM     19  C   UNL     1       8.425   4.957  18.946  0.00  0.00    +0.000 C 
ATOM     20  O   UNL     1       7.860   4.314  16.751  0.00  0.00    +0.000 OA
ATOM     21  C   UNL     1       5.181   4.970  16.870  0.00  0.00    +0.000 C 
ATOM     22  C   UNL     1       3.995   4.111  17.329  0.00  0.00    +0.000 C 
ENDBRANCH   9  14
BRANCH   1  24
ATOM     23  C   UNL     1      -0.954  10.332  23.356  0.00  0.00    +0.000 C 
ATOM     24  O   UNL     1       0.329  10.347  22.731  0.00  0.00    +0.000 OA
ENDBRANCH   1  24
TORSDOF 2
ENDMDL
MODEL 5
REMARK VINA RESULT:      -6.4      2.152      8.393
REMARK  Name = 
REMARK  4 active torsions:
REMARK  status: ('A' for Active; 'I' for Inactive)
REMARK    1  A    between atoms: C_1  and  O_2
REMARK    2  A    between atoms: O_2  and  C_3
REMARK    3  A    between atoms: C_11  and  C_13
REMARK    4  A    between atoms: C_17  and  C_18
REMARK                            x       y       z     vdW  Elec       q    Type
REMARK                         _______ _______ _______ _____ _____    ______ ____
ROOT
ATOM      1  C   UNL     1       3.888   3.905  17.691  0.00  0.00    +0.000 A 
ATOM      2  C   UNL     1       3.665   2.519  17.572  0.00  0.00    +0.000 A 
ATOM      3  C   UNL     1       2.741   1.861  18.377  0.00  0.00    +0.000 A 
ATOM      4  C   UNL     1       2.013   2.559  19.333  0.00  0.00    +0.000 A 
ATOM      5  C   UNL     1       2.240   3.936  19.468  0.00  0.00    +0.000 A 
ATOM      6  S   UNL     1       1.478   5.022  20.553  0.00  0.00    +0.000 S 
ATOM      7  C   UNL     1       2.377   6.316  19.913  0.00  0.00    +0.000 A 
ATOM      8  N   UNL     1       2.248   7.594  20.416  0.00  0.00    +0.000 N 
ATOM      9  C   UNL     1       1.183   8.057  21.169  0.00  0.00    +0.000 C 
ATOM     10  O   UNL     1       0.140   7.448  21.383  0.00  0.00    +0.000 OA
ATOM     11  N   UNL     1       3.254   6.002  18.987  0.00  0.00    +0.000 NA
ATOM     12  C   UNL     1       3.165   4.633  18.683  0.00  0.00    +0.000 A 
ATOM     13  H   UNL     1       2.935   8.243  20.056  0.00  0.00    +0.000 HD
ENDROOT
BRANCH   9  14
ATOM     14  C   UNL     1       1.393   9.469  21.737  0.00  0.00    +0.000 C 
ATOM     15  C   UNL     1       0.577   9.678  23.022  0.00  0.00    +0.000 C 
ATOM     16  C   UNL     1      -0.916   9.757  22.710  0.00  0.00    +0.000 C 
ATOM     17  N   UNL     1      -1.160  10.870  21.801  0.00  0.00    +0.000 N 
ATOM     18  C   UNL     1      -1.925  11.997  22.049  0.00  0.00    +0.000 C 
ATOM     19  C   UNL     1      -2.590  12.180  23.393  0.00  0.00    +0.000 C 
ATOM     20  O   UNL     1      -2.079  12.883  21.203  0.00  0.00    +0.000 OA
ATOM     21  C   UNL     1      -0.477  10.744  20.511  0.00  0.00    +0.000 C 
ATOM     22  C   UNL     1       1.034  10.564  20.707  0.00  0.00    +0.000 C 
ENDBRANCH   9  14
BRANCH   1  24
ATOM     23  C   UNL     1       6.153   4.541  17.362  0.00  0.00    +0.000 C 
ATOM     24  O   UNL     1       4.800   4.581  16.910  0.00  0.00    +0.000 OA
ENDBRANCH   1  24
TORSDOF 2
ENDMDL
MODEL 6
REMARK VINA RESULT:      -6.4      5.456      7.552
REMARK  Name = 
REMARK  4 active torsions:
REMARK  status: ('A' for Active; 'I' for Inactive)
REMARK    1  A    between atoms: C_1  and  O_2
REMARK    2  A    between atoms: O_2  and  C_3
REMARK    3  A    between atoms: C_11  and  C_13
REMARK    4  A    between atoms: C_17  and  C_18
REMARK                            x       y       z     vdW  Elec       q    Type
REMARK                         _______ _______ _______ _____ _____    ______ ____
ROOT
ATOM      1  C   UNL     1      10.117  12.703  18.378  0.00  0.00    +0.000 A 
ATOM      2  C   UNL     1      10.580  13.380  19.523  0.00  0.00    +0.000 A 
ATOM      3  C   UNL     1      10.472  12.820  20.791  0.00  0.00    +0.000 A 
ATOM      4  C   UNL     1       9.892  11.568  20.964  0.00  0.00    +0.000 A 
ATOM      5  C   UNL     1       9.415  10.895  19.830  0.00  0.00    +0.000 A 
ATOM      6  S   UNL     1       8.672   9.352  19.765  0.00  0.00    +0.000 S 
ATOM      7  C   UNL     1       8.536   9.472  18.074  0.00  0.00    +0.000 A 
ATOM      8  N   UNL     1       7.940   8.474  17.331  0.00  0.00    +0.000 N 
ATOM      9  C   UNL     1       7.742   7.170  17.751  0.00  0.00    +0.000 C 
ATOM     10  O   UNL     1       8.186   6.675  18.781  0.00  0.00    +0.000 OA
ATOM     11  N   UNL     1       8.947  10.602  17.545  0.00  0.00    +0.000 NA
ATOM     12  C   UNL     1       9.498  11.427  18.540  0.00  0.00    +0.000 A 
ATOM     13  H   UNL     1       7.789   8.724  16.363  0.00  0.00    +0.000 HD
ENDROOT
BRANCH   9  14
ATOM     14  C   UNL     1       6.899   6.328  16.782  0.00  0.00    +0.000 C 
ATOM     15  C   UNL     1       5.464   6.869  16.678  0.00  0.00    +0.000 C 
ATOM     16  C   UNL     1       4.691   6.607  17.970  0.00  0.00    +0.000 C 
ATOM     17  N   UNL     1       4.645   5.172  18.221  0.00  0.00    +0.000 N 
ATOM     18  C   UNL     1       3.518   4.371  18.276  0.00  0.00    +0.000 C 
ATOM     19  C   UNL     1       2.151   4.969  18.036  0.00  0.00    +0.000 C 
ATOM     20  O   UNL     1       3.585   3.160  18.508  0.00  0.00    +0.000 OA
ATOM     21  C   UNL     1       5.964   4.557  18.399  0.00  0.00    +0.000 C 
ATOM     22  C   UNL     1       6.866   4.837  17.191  0.00  0.00    +0.000 C 
ENDBRANCH   9  14
BRANCH   1  24
ATOM     23  C   UNL     1      11.531  13.459  16.626  0.00  0.00    +0.000 C 
ATOM     24  O   UNL     1      10.208  13.238  17.111  0.00  0.00    +0.000 OA
ENDBRANCH   1  24
TORSDOF 2
ENDMDL
MODEL 7
REMARK VINA RESULT:      -6.4      2.392      8.184
REMARK  Name = 
REMARK  4 active torsions:
REMARK  status: ('A' for Active; 'I' for Inactive)
REMARK    1  A    between atoms: C_1  and  O_2
REMARK    2  A    between atoms: O_2  and  C_3
REMARK    3  A    between atoms: C_11  and  C_13
REMARK    4  A    between atoms: C_17  and  C_18
REMARK                            x       y       z     vdW  Elec       q    Type
REMARK                         _______ _______ _______ _____ _____    ______ ____
ROOT
ATOM      1  C   UNL     1       3.651   4.558  19.701  0.00  0.00    +0.000 A 
ATOM      2  C   UNL     1       4.719   3.841  19.127  0.00  0.00    +0.000 A 
ATOM      3  C   UNL     1       5.409   4.327  18.022  0.00  0.00    +0.000 A 
ATOM      4  C   UNL     1       5.054   5.541  17.446  0.00  0.00    +0.000 A 
ATOM      5  C   UNL     1       3.982   6.253  18.002  0.00  0.00    +0.000 A 
ATOM      6  S   UNL     1       3.353   7.764  17.493  0.00  0.00    +0.000 S 
ATOM      7  C   UNL     1       2.211   7.729  18.752  0.00  0.00    +0.000 A 
ATOM      8  N   UNL     1       1.284   8.739  18.906  0.00  0.00    +0.000 N 
ATOM      9  C   UNL     1       1.383  10.009  18.363  0.00  0.00    +0.000 C 
ATOM     10  O   UNL     1       2.364  10.467  17.786  0.00  0.00    +0.000 OA
ATOM     11  N   UNL     1       2.213   6.648  19.498  0.00  0.00    +0.000 NA
ATOM     12  C   UNL     1       3.259   5.795  19.108  0.00  0.00    +0.000 A 
ATOM     13  H   UNL     1       0.571   8.536  19.594  0.00  0.00    +0.000 HD
ENDROOT
BRANCH   9  14
ATOM     14  C   UNL     1       0.122  10.865  18.554  0.00  0.00    +0.000 C 
ATOM     15  C   UNL     1       0.482  12.335  18.819  0.00  0.00    +0.000 C 
ATOM     16  C   UNL     1       1.105  12.500  20.203  0.00  0.00    +0.000 C 
ATOM     17  N   UNL     1       0.157  12.050  21.215  0.00  0.00    +0.000 N 
ATOM     18  C   UNL     1      -0.419  12.812  22.217  0.00  0.00    +0.000 C 
ATOM     19  C   UNL     1      -0.102  14.286  22.323  0.00  0.00    +0.000 C 
ATOM     20  O   UNL     1      -1.206  12.331  23.036  0.00  0.00    +0.000 OA
ATOM     21  C   UNL     1      -0.211  10.636  21.097  0.00  0.00    +0.000 C 
ATOM     22  C   UNL     1      -0.769  10.332  19.701  0.00  0.00    +0.000 C 
ENDBRANCH   9  14
BRANCH   1  24
ATOM     23  C   UNL     1       1.986   3.078  20.525  0.00  0.00    +0.000 C 
ATOM     24  O   UNL     1       2.948   4.097  20.793  0.00  0.00    +0.000 OA
ENDBRANCH   1  24
TORSDOF 2
ENDMDL
MODEL 8
REMARK VINA RESULT:      -6.3      1.774      2.472
REMARK  Name = 
REMARK  4 active torsions:
REMARK  status: ('A' for Active; 'I' for Inactive)
REMARK    1  A    between atoms: C_1  and  O_2
REMARK    2  A    between atoms: O_2  and  C_3
REMARK    3  A    between atoms: C_11  and  C_13
REMARK    4  A    between atoms: C_17  and  C_18
REMARK                            x       y       z     vdW  Elec       q    Type
REMARK                         _______ _______ _______ _____ _____    ______ ____
ROOT
ATOM      1  C   UNL     1      -0.021  11.464  21.508  0.00  0.00    +0.000 A 
ATOM      2  C   UNL     1      -0.411  12.706  20.971  0.00  0.00    +0.000 A 
ATOM      3  C   UNL     1      -0.207  13.014  19.630  0.00  0.00    +0.000 A 
ATOM      4  C   UNL     1       0.399  12.097  18.779  0.00  0.00    +0.000 A 
ATOM      5  C   UNL     1       0.805  10.864  19.311  0.00  0.00    +0.000 A 
ATOM      6  S   UNL     1       1.561   9.566  18.485  0.00  0.00    +0.000 S 
ATOM      7  C   UNL     1       1.576   8.646  19.915  0.00  0.00    +0.000 A 
ATOM      8  N   UNL     1       2.131   7.383  19.947  0.00  0.00    +0.000 N 
ATOM      9  C   UNL     1       2.375   6.585  18.843  0.00  0.00    +0.000 C 
ATOM     10  O   UNL     1       2.011   6.820  17.696  0.00  0.00    +0.000 OA
ATOM     11  N   UNL     1       1.115   9.247  20.988  0.00  0.00    +0.000 NA
ATOM     12  C   UNL     1       0.624  10.520  20.654  0.00  0.00    +0.000 A 
ATOM     13  H   UNL     1       2.211   6.998  20.879  0.00  0.00    +0.000 HD
ENDROOT
BRANCH   9  14
ATOM     14  C   UNL     1       3.159   5.304  19.165  0.00  0.00    +0.000 C 
ATOM     15  C   UNL     1       4.640   5.611  19.437  0.00  0.00    +0.000 C 
ATOM     16  C   UNL     1       5.353   6.020  18.149  0.00  0.00    +0.000 C 
ATOM     17  N   UNL     1       5.259   4.934  17.181  0.00  0.00    +0.000 N 
ATOM     18  C   UNL     1       6.305   4.210  16.635  0.00  0.00    +0.000 C 
ATOM     19  C   UNL     1       7.727   4.498  17.057  0.00  0.00    +0.000 C 
ATOM     20  O   UNL     1       6.119   3.313  15.808  0.00  0.00    +0.000 OA
ATOM     21  C   UNL     1       3.885   4.597  16.799  0.00  0.00    +0.000 C 
ATOM     22  C   UNL     1       3.042   4.256  18.034  0.00  0.00    +0.000 C 
ENDBRANCH   9  14
BRANCH   1  24
ATOM     23  C   UNL     1      -1.513  11.382  23.355  0.00  0.00    +0.000 C 
ATOM     24  O   UNL     1      -0.207  11.136  22.834  0.00  0.00    +0.000 OA
ENDBRANCH   1  24
TORSDOF 2
ENDMDL
MODEL 9
REMARK VINA RESULT:      -6.3      0.988      1.087
REMARK  Name = 
REMARK  4 active torsions:
REMARK  status: ('A' for Active; 'I' for Inactive)
REMARK    1  A    between atoms: C_1  and  O_2
REMARK    2  A    between atoms: O_2  and  C_3
REMARK    3  A    between atoms: C_11  and  C_13
REMARK    4  A    between atoms: C_17  and  C_18
REMARK                            x       y       z     vdW  Elec       q    Type
REMARK                         _______ _______ _______ _____ _____    ______ ____
ROOT
ATOM      1  C   UNL     1       0.734  12.848  19.462  0.00  0.00    +0.000 A 
ATOM      2  C   UNL     1       0.038  13.515  20.490  0.00  0.00    +0.000 A 
ATOM      3  C   UNL     1      -0.426  12.835  21.611  0.00  0.00    +0.000 A 
ATOM      4  C   UNL     1      -0.218  11.467  21.744  0.00  0.00    +0.000 A 
ATOM      5  C   UNL     1       0.461  10.795  20.718  0.00  0.00    +0.000 A 
ATOM      6  S   UNL     1       0.851   9.128  20.639  0.00  0.00    +0.000 S 
ATOM      7  C   UNL     1       1.628   9.365  19.145  0.00  0.00    +0.000 A 
ATOM      8  N   UNL     1       2.191   8.312  18.456  0.00  0.00    +0.000 N 
ATOM      9  C   UNL     1       2.535   7.087  19.002  0.00  0.00    +0.000 C 
ATOM     10  O   UNL     1       2.520   6.806  20.196  0.00  0.00    +0.000 OA
ATOM     11  N   UNL     1       1.573  10.584  18.658  0.00  0.00    +0.000 NA
ATOM     12  C   UNL     1       0.936  11.440  19.573  0.00  0.00    +0.000 A 
ATOM     13  H   UNL     1       2.492   8.552  17.520  0.00  0.00    +0.000 HD
ENDROOT
BRANCH   9  14
ATOM     14  C   UNL     1       2.981   6.048  17.963  0.00  0.00    +0.000 C 
ATOM     15  C   UNL     1       3.866   4.966  18.601  0.00  0.00    +0.000 C 
ATOM     16  C   UNL     1       5.231   5.538  18.981  0.00  0.00    +0.000 C 
ATOM     17  N   UNL     1       5.888   6.050  17.784  0.00  0.00    +0.000 N 
ATOM     18  C   UNL     1       7.075   5.603  17.228  0.00  0.00    +0.000 C 
ATOM     19  C   UNL     1       7.816   4.445  17.855  0.00  0.00    +0.000 C 
ATOM     20  O   UNL     1       7.556   6.115  16.213  0.00  0.00    +0.000 OA
ATOM     21  C   UNL     1       5.158   7.136  17.124  0.00  0.00    +0.000 C 
ATOM     22  C   UNL     1       3.728   6.701  16.777  0.00  0.00    +0.000 C 
ENDBRANCH   9  14
BRANCH   1  24
ATOM     23  C   UNL     1       2.359  14.308  18.528  0.00  0.00    +0.000 C 
ATOM     24  O   UNL     1       1.201  13.497  18.339  0.00  0.00    +0.000 OA
ENDBRANCH   1  24
TORSDOF 2
ENDMDL
