MODEL 1
REMARK VINA RESULT:      -8.5      0.000      0.000
REMARK  Name = 
REMARK  7 active torsions:
REMARK  status: ('A' for Active; 'I' for Inactive)
REMARK    1  A    between atoms: C_1  and  O_2
REMARK    2  A    between atoms: O_2  and  C_3
REMARK    3  A    between atoms: C_5  and  N_6
REMARK    4  A    between atoms: N_6  and  C_7
REMARK    5  A    between atoms: C_7  and  C_8
REMARK    6  A    between atoms: C_19  and  C_20
REMARK    7  A    between atoms: C_22  and  C_23
REMARK                            x       y       z     vdW  Elec       q    Type
REMARK                         _______ _______ _______ _____ _____    ______ ____
ROOT
ATOM      1  C   UNL     1       0.814   9.497  20.482  0.00  0.00    +0.000 A 
ATOM      2  C   UNL     1       1.047   9.500  21.846  0.00  0.00    +0.000 A 
ATOM      3  N   UNL     1       0.418  10.305  22.719  0.00  0.00    +0.000 NA
ATOM      4  C   UNL     1      -0.482  11.178  22.279  0.00  0.00    +0.000 A 
ATOM      5  N   UNL     1      -1.008  11.937  23.222  0.00  0.00    +0.000 NA
ATOM      6  C   UNL     1      -1.891  12.853  22.871  0.00  0.00    +0.000 A 
ATOM      7  N   UNL     1      -2.426  13.644  23.866  0.00  0.00    +0.000 N 
ATOM      8  N   UNL     1      -2.311  13.058  21.633  0.00  0.00    +0.000 NA
ATOM      9  C   UNL     1      -1.764  12.295  20.679  0.00  0.00    +0.000 A 
ATOM     10  N   UNL     1      -2.207  12.650  19.402  0.00  0.00    +0.000 N 
ATOM     11  C   UNL     1      -0.821  11.275  20.920  0.00  0.00    +0.000 A 
ATOM     12  C   UNL     1      -0.181  10.365  19.996  0.00  0.00    +0.000 A 
ATOM     13  C   UNL     1      -0.532  10.274  18.530  0.00  0.00    +0.000 C 
ATOM     14  H   UNL     1      -2.357  13.168  24.756  0.00  0.00    +0.000 HD
ATOM     15  H   UNL     1      -3.331  13.993  23.592  0.00  0.00    +0.000 HD
ATOM     16  H   UNL     1      -2.860  13.422  19.529  0.00  0.00    +0.000 HD
ATOM     17  H   UNL     1      -1.428  12.941  18.821  0.00  0.00    +0.000 HD
ENDROOT
BRANCH   1  18
ATOM     18  C   UNL     1       1.650   8.586  19.620  0.00  0.00    +0.000 C 
BRANCH  18  19
ATOM     19  N   UNL     1       2.138   7.446  20.389  0.00  0.00    +0.000 N 
ATOM     20  H   UNL     1       1.565   7.258  21.208  0.00  0.00    +0.000 HD
BRANCH  19  23
ATOM     21  C   UNL     1       3.540   5.169  17.798  0.00  0.00    +0.000 A 
ATOM     22  C   UNL     1       3.269   6.312  18.563  0.00  0.00    +0.000 A 
ATOM     23  C   UNL     1       2.407   6.271  19.666  0.00  0.00    +0.000 A 
ATOM     24  C   UNL     1       1.754   5.064  19.932  0.00  0.00    +0.000 A 
ATOM     25  C   UNL     1       2.008   3.904  19.186  0.00  0.00    +0.000 A 
ATOM     26  C   UNL     1       2.908   3.967  18.112  0.00  0.00    +0.000 A 
BRANCH  25  27
ATOM     27  C   UNL     1       1.335   2.605  19.545  0.00  0.00    +0.000 C 
ATOM     28  F   UNL     1       0.184   2.379  18.850  0.00  0.00    +0.000 F 
ATOM     29  F   UNL     1       2.126   1.523  19.320  0.00  0.00    +0.000 F 
ATOM     30  F   UNL     1       0.985   2.551  20.860  0.00  0.00    +0.000 F 
ENDBRANCH  25  27
BRANCH  21  32
ATOM     31  C   UNL     1       5.088   6.622  16.713  0.00  0.00    +0.000 C 
ATOM     32  O   UNL     1       4.448   5.354  16.791  0.00  0.00    +0.000 OA
ENDBRANCH  21  32
ENDBRANCH  19  23
ENDBRANCH  18  19
ENDBRANCH   1  18
TORSDOF 5
ENDMDL
MODEL 2
REMARK VINA RESULT:      -8.3      4.415      8.821
REMARK  Name = 
REMARK  7 active torsions:
REMARK  status: ('A' for Active; 'I' for Inactive)
REMARK    1  A    between atoms: C_1  and  O_2
REMARK    2  A    between atoms: O_2  and  C_3
REMARK    3  A    between atoms: C_5  and  N_6
REMARK    4  A    between atoms: N_6  and  C_7
REMARK    5  A    between atoms: C_7  and  C_8
REMARK    6  A    between atoms: C_19  and  C_20
REMARK    7  A    between atoms: C_22  and  C_23
REMARK                            x       y       z     vdW  Elec       q    Type
REMARK                         _______ _______ _______ _____ _____    ______ ____
ROOT
ATOM      1  C   UNL     1       2.528   6.698  19.348  0.00  0.00    +0.000 A 
ATOM      2  C   UNL     1       2.747   7.626  18.347  0.00  0.00    +0.000 A 
ATOM      3  N   UNL     1       3.710   7.521  17.415  0.00  0.00    +0.000 NA
ATOM      4  C   UNL     1       4.533   6.478  17.434  0.00  0.00    +0.000 A 
ATOM      5  N   UNL     1       5.458   6.500  16.493  0.00  0.00    +0.000 NA
ATOM      6  C   UNL     1       6.338   5.517  16.455  0.00  0.00    +0.000 A 
ATOM      7  N   UNL     1       7.304   5.557  15.470  0.00  0.00    +0.000 N 
ATOM      8  N   UNL     1       6.352   4.486  17.285  0.00  0.00    +0.000 NA
ATOM      9  C   UNL     1       5.421   4.476  18.246  0.00  0.00    +0.000 A 
ATOM     10  N   UNL     1       5.577   3.398  19.120  0.00  0.00    +0.000 N 
ATOM     11  C   UNL     1       4.418   5.457  18.391  0.00  0.00    +0.000 A 
ATOM     12  C   UNL     1       3.342   5.550  19.354  0.00  0.00    +0.000 A 
ATOM     13  C   UNL     1       3.024   4.472  20.362  0.00  0.00    +0.000 C 
ATOM     14  H   UNL     1       6.980   6.120  14.695  0.00  0.00    +0.000 HD
ATOM     15  H   UNL     1       7.639   4.628  15.265  0.00  0.00    +0.000 HD
ATOM     16  H   UNL     1       6.384   2.873  18.787  0.00  0.00    +0.000 HD
ATOM     17  H   UNL     1       5.736   3.725  20.067  0.00  0.00    +0.000 HD
ENDROOT
BRANCH   1  18
ATOM     18  C   UNL     1       1.454   6.988  20.365  0.00  0.00    +0.000 C 
BRANCH  18  19
ATOM     19  N   UNL     1       1.755   8.210  21.104  0.00  0.00    +0.000 N 
ATOM     20  H   UNL     1       2.713   8.523  20.961  0.00  0.00    +0.000 HD
BRANCH  19  23
ATOM     21  C   UNL     1      -0.436  11.087  21.994  0.00  0.00    +0.000 A 
ATOM     22  C   UNL     1       0.495  10.042  22.082  0.00  0.00    +0.000 A 
ATOM     23  C   UNL     1       0.841   9.268  20.966  0.00  0.00    +0.000 A 
ATOM     24  C   UNL     1       0.162   9.519  19.770  0.00  0.00    +0.000 A 
ATOM     25  C   UNL     1      -0.770  10.560  19.652  0.00  0.00    +0.000 A 
ATOM     26  C   UNL     1      -1.066  11.342  20.777  0.00  0.00    +0.000 A 
BRANCH  25  27
ATOM     27  C   UNL     1      -1.433  10.841  18.329  0.00  0.00    +0.000 C 
ATOM     28  F   UNL     1      -1.024  10.010  17.328  0.00  0.00    +0.000 F 
ATOM     29  F   UNL     1      -2.787  10.724  18.382  0.00  0.00    +0.000 F 
ATOM     30  F   UNL     1      -1.180  12.103  17.883  0.00  0.00    +0.000 F 
ENDBRANCH  25  27
BRANCH  21  32
ATOM     31  C   UNL     1      -1.552  12.865  23.123  0.00  0.00    +0.000 C 
ATOM     32  O   UNL     1      -0.623  11.788  23.154  0.00  0.00    +0.000 OA
ENDBRANCH  21  32
ENDBRANCH  19  23
ENDBRANCH  18  19
ENDBRANCH   1  18
TORSDOF 5
ENDMDL
MODEL 3
REMARK VINA RESULT:      -8.3      0.845      1.013
REMARK  Name = 
REMARK  7 active torsions:
REMARK  status: ('A' for Active; 'I' for Inactive)
REMARK    1  A    between atoms: C_1  and  O_2
REMARK    2  A    between atoms: O_2  and  C_3
REMARK    3  A    between atoms: C_5  and  N_6
REMARK    4  A    between atoms: N_6  and  C_7
REMARK    5  A    between atoms: C_7  and  C_8
REMARK    6  A    between atoms: C_19  and  C_20
REMARK    7  A    between atoms: C_22  and  C_23
REMARK                            x       y       z     vdW  Elec       q    Type
REMARK                         _______ _______ _______ _____ _____    ______ ____
ROOT
ATOM      1  C   UNL     1       0.424   9.638  20.775  0.00  0.00    +0.000 A 
ATOM      2  C   UNL     1       0.580   9.629  22.149  0.00  0.00    +0.000 A 
ATOM      3  N   UNL     1      -0.040  10.478  22.987  0.00  0.00    +0.000 NA
ATOM      4  C   UNL     1      -0.852  11.409  22.497  0.00  0.00    +0.000 A 
ATOM      5  N   UNL     1      -1.377  12.205  23.410  0.00  0.00    +0.000 NA
ATOM      6  C   UNL     1      -2.175  13.178  23.011  0.00  0.00    +0.000 A 
ATOM      7  N   UNL     1      -2.709  14.007  23.976  0.00  0.00    +0.000 N 
ATOM      8  N   UNL     1      -2.511  13.407  21.752  0.00  0.00    +0.000 NA
ATOM      9  C   UNL     1      -1.965  12.606  20.829  0.00  0.00    +0.000 A 
ATOM     10  N   UNL     1      -2.310  12.986  19.530  0.00  0.00    +0.000 N 
ATOM     11  C   UNL     1      -1.108  11.525  21.122  0.00  0.00    +0.000 A 
ATOM     12  C   UNL     1      -0.481  10.570  20.234  0.00  0.00    +0.000 A 
ATOM     13  C   UNL     1      -0.755  10.499  18.751  0.00  0.00    +0.000 C 
ATOM     14  H   UNL     1      -2.722  13.531  24.868  0.00  0.00    +0.000 HD
ATOM     15  H   UNL     1      -3.572  14.416  23.651  0.00  0.00    +0.000 HD
ATOM     16  H   UNL     1      -2.915  13.801  19.620  0.00  0.00    +0.000 HD
ATOM     17  H   UNL     1      -1.482  13.221  18.993  0.00  0.00    +0.000 HD
ENDROOT
BRANCH   1  18
ATOM     18  C   UNL     1       1.242   8.669  19.960  0.00  0.00    +0.000 C 
BRANCH  18  19
ATOM     19  N   UNL     1       1.888   7.683  20.819  0.00  0.00    +0.000 N 
ATOM     20  H   UNL     1       1.378   7.531  21.686  0.00  0.00    +0.000 HD
BRANCH  19  23
ATOM     21  C   UNL     1       3.237   5.280  18.315  0.00  0.00    +0.000 A 
ATOM     22  C   UNL     1       2.884   6.471  18.965  0.00  0.00    +0.000 A 
ATOM     23  C   UNL     1       2.253   6.467  20.216  0.00  0.00    +0.000 A 
ATOM     24  C   UNL     1       1.908   5.228  20.762  0.00  0.00    +0.000 A 
ATOM     25  C   UNL     1       2.251   4.021  20.136  0.00  0.00    +0.000 A 
ATOM     26  C   UNL     1       2.919   4.058  18.903  0.00  0.00    +0.000 A 
BRANCH  25  27
ATOM     27  C   UNL     1       1.921   2.704  20.789  0.00  0.00    +0.000 C 
ATOM     28  F   UNL     1       0.839   2.764  21.617  0.00  0.00    +0.000 F 
ATOM     29  F   UNL     1       1.647   1.724  19.887  0.00  0.00    +0.000 F 
ATOM     30  F   UNL     1       2.945   2.237  21.555  0.00  0.00    +0.000 F 
ENDBRANCH  25  27
BRANCH  21  32
ATOM     31  C   UNL     1       4.680   4.356  16.657  0.00  0.00    +0.000 C 
ATOM     32  O   UNL     1       3.900   5.448  17.130  0.00  0.00    +0.000 OA
ENDBRANCH  21  32
ENDBRANCH  19  23
ENDBRANCH  18  19
ENDBRANCH   1  18
TORSDOF 5
ENDMDL
MODEL 4
REMARK VINA RESULT:      -8.2      1.592      2.514
REMARK  Name = 
REMARK  7 active torsions:
REMARK  status: ('A' for Active; 'I' for Inactive)
REMARK    1  A    between atoms: C_1  and  O_2
REMARK    2  A    between atoms: O_2  and  C_3
REMARK    3  A    between atoms: C_5  and  N_6
REMARK    4  A    between atoms: N_6  and  C_7
REMARK    5  A    between atoms: C_7  and  C_8
REMARK    6  A    between atoms: C_19  and  C_20
REMARK    7  A    between atoms: C_22  and  C_23
REMARK                            x       y       z     vdW  Elec       q    Type
REMARK                         _______ _______ _______ _____ _____    ______ ____
ROOT
ATOM      1  C   UNL     1       1.196   9.400  18.997  0.00  0.00    +0.000 A 
ATOM      2  C   UNL     1       1.126  10.704  18.542  0.00  0.00    +0.000 A 
ATOM      3  N   UNL     1       0.698  11.742  19.282  0.00  0.00    +0.000 NA
ATOM      4  C   UNL     1       0.294  11.537  20.532  0.00  0.00    +0.000 A 
ATOM      5  N   UNL     1      -0.135  12.622  21.148  0.00  0.00    +0.000 NA
ATOM      6  C   UNL     1      -0.583  12.507  22.384  0.00  0.00    +0.000 A 
ATOM      7  N   UNL     1      -1.036  13.648  23.012  0.00  0.00    +0.000 N 
ATOM      8  N   UNL     1      -0.615  11.376  23.070  0.00  0.00    +0.000 NA
ATOM      9  C   UNL     1      -0.192  10.276  22.436  0.00  0.00    +0.000 A 
ATOM     10  N   UNL     1      -0.350   9.126  23.213  0.00  0.00    +0.000 N 
ATOM     11  C   UNL     1       0.320  10.264  21.123  0.00  0.00    +0.000 A 
ATOM     12  C   UNL     1       0.837   9.164  20.337  0.00  0.00    +0.000 A 
ATOM     13  C   UNL     1       1.034   7.768  20.878  0.00  0.00    +0.000 C 
ATOM     14  H   UNL     1      -0.616  14.464  22.586  0.00  0.00    +0.000 HD
ATOM     15  H   UNL     1      -0.962  13.554  24.013  0.00  0.00    +0.000 HD
ATOM     16  H   UNL     1      -0.756   9.429  24.096  0.00  0.00    +0.000 HD
ATOM     17  H   UNL     1      -0.966   8.465  22.752  0.00  0.00    +0.000 HD
ENDROOT
BRANCH   1  18
ATOM     18  C   UNL     1       1.629   8.331  18.027  0.00  0.00    +0.000 C 
BRANCH  18  19
ATOM     19  N   UNL     1       3.032   7.983  18.229  0.00  0.00    +0.000 N 
ATOM     20  H   UNL     1       3.363   8.234  19.158  0.00  0.00    +0.000 HD
BRANCH  19  23
ATOM     21  C   UNL     1       4.971   5.172  16.746  0.00  0.00    +0.000 A 
ATOM     22  C   UNL     1       4.575   6.459  17.137  0.00  0.00    +0.000 A 
ATOM     23  C   UNL     1       3.409   6.674  17.884  0.00  0.00    +0.000 A 
ATOM     24  C   UNL     1       2.603   5.566  18.159  0.00  0.00    +0.000 A 
ATOM     25  C   UNL     1       2.977   4.267  17.784  0.00  0.00    +0.000 A 
ATOM     26  C   UNL     1       4.170   4.079  17.071  0.00  0.00    +0.000 A 
BRANCH  25  27
ATOM     27  C   UNL     1       2.115   3.090  18.156  0.00  0.00    +0.000 C 
ATOM     28  F   UNL     1       2.271   2.017  17.329  0.00  0.00    +0.000 F 
ATOM     29  F   UNL     1       2.362   2.633  19.413  0.00  0.00    +0.000 F 
ATOM     30  F   UNL     1       0.787   3.391  18.118  0.00  0.00    +0.000 F 
ENDBRANCH  25  27
BRANCH  21  32
ATOM     31  C   UNL     1       7.291   4.623  16.782  0.00  0.00    +0.000 C 
ATOM     32  O   UNL     1       6.162   5.118  16.073  0.00  0.00    +0.000 OA
ENDBRANCH  21  32
ENDBRANCH  19  23
ENDBRANCH  18  19
ENDBRANCH   1  18
TORSDOF 5
ENDMDL
MODEL 5
REMARK VINA RESULT:      -8.2      2.149      2.953
REMARK  Name = 
REMARK  7 active torsions:
REMARK  status: ('A' for Active; 'I' for Inactive)
REMARK    1  A    between atoms: C_1  and  O_2
REMARK    2  A    between atoms: O_2  and  C_3
REMARK    3  A    between atoms: C_5  and  N_6
REMARK    4  A    between atoms: N_6  and  C_7
REMARK    5  A    between atoms: C_7  and  C_8
REMARK    6  A    between atoms: C_19  and  C_20
REMARK    7  A    between atoms: C_22  and  C_23
REMARK                            x       y       z     vdW  Elec       q    Type
REMARK                         _______ _______ _______ _____ _____    ______ ____
ROOT
ATOM      1  C   UNL     1       0.705   9.487  20.607  0.00  0.00    +0.000 A 
ATOM      2  C   UNL     1       0.875   9.499  21.980  0.00  0.00    +0.000 A 
ATOM      3  N   UNL     1       0.229  10.329  22.816  0.00  0.00    +0.000 NA
ATOM      4  C   UNL     1      -0.627  11.220  22.326  0.00  0.00    +0.000 A 
ATOM      5  N   UNL     1      -1.176  12.002  23.237  0.00  0.00    +0.000 NA
ATOM      6  C   UNL     1      -2.018  12.936  22.837  0.00  0.00    +0.000 A 
ATOM      7  N   UNL     1      -2.576  13.752  23.800  0.00  0.00    +0.000 N 
ATOM      8  N   UNL     1      -2.375  13.140  21.580  0.00  0.00    +0.000 NA
ATOM      9  C   UNL     1      -1.806  12.353  20.659  0.00  0.00    +0.000 A 
ATOM     10  N   UNL     1      -2.180  12.706  19.360  0.00  0.00    +0.000 N 
ATOM     11  C   UNL     1      -0.902  11.312  20.952  0.00  0.00    +0.000 A 
ATOM     12  C   UNL     1      -0.244  10.375  20.067  0.00  0.00    +0.000 A 
ATOM     13  C   UNL     1      -0.529  10.278  18.588  0.00  0.00    +0.000 C 
ATOM     14  H   UNL     1      -2.561  13.284  24.696  0.00  0.00    +0.000 HD
ATOM     15  H   UNL     1      -3.459  14.121  23.481  0.00  0.00    +0.000 HD
ATOM     16  H   UNL     1      -2.818  13.495  19.449  0.00  0.00    +0.000 HD
ATOM     17  H   UNL     1      -1.368  12.970  18.812  0.00  0.00    +0.000 HD
ENDROOT
BRANCH   1  18
ATOM     18  C   UNL     1       1.555   8.546  19.792  0.00  0.00    +0.000 C 
BRANCH  18  19
ATOM     19  N   UNL     1       1.989   7.409  20.597  0.00  0.00    +0.000 N 
ATOM     20  H   UNL     1       1.341   7.200  21.353  0.00  0.00    +0.000 HD
BRANCH  19  23
ATOM     21  C   UNL     1       2.253   3.812  19.672  0.00  0.00    +0.000 A 
ATOM     22  C   UNL     1       1.888   4.997  20.325  0.00  0.00    +0.000 A 
ATOM     23  C   UNL     1       2.354   6.247  19.896  0.00  0.00    +0.000 A 
ATOM     24  C   UNL     1       3.269   6.268  18.839  0.00  0.00    +0.000 A 
ATOM     25  C   UNL     1       3.649   5.098  18.165  0.00  0.00    +0.000 A 
ATOM     26  C   UNL     1       3.133   3.866  18.593  0.00  0.00    +0.000 A 
BRANCH  25  27
ATOM     27  C   UNL     1       4.586   5.169  16.988  0.00  0.00    +0.000 C 
ATOM     28  F   UNL     1       4.495   6.336  16.289  0.00  0.00    +0.000 F 
ATOM     29  F   UNL     1       5.892   5.050  17.348  0.00  0.00    +0.000 F 
ATOM     30  F   UNL     1       4.352   4.179  16.082  0.00  0.00    +0.000 F 
ENDBRANCH  25  27
BRANCH  21  32
ATOM     31  C   UNL     1       1.491   2.601  21.579  0.00  0.00    +0.000 C 
ATOM     32  O   UNL     1       1.669   2.679  20.170  0.00  0.00    +0.000 OA
ENDBRANCH  21  32
ENDBRANCH  19  23
ENDBRANCH  18  19
ENDBRANCH   1  18
TORSDOF 5
ENDMDL
MODEL 6
REMARK VINA RESULT:      -8.2      2.958      4.075
REMARK  Name = 
REMARK  7 active torsions:
REMARK  status: ('A' for Active; 'I' for Inactive)
REMARK    1  A    between atoms: C_1  and  O_2
REMARK    2  A    between atoms: O_2  and  C_3
REMARK    3  A    between atoms: C_5  and  N_6
REMARK    4  A    between atoms: N_6  and  C_7
REMARK    5  A    between atoms: C_7  and  C_8
REMARK    6  A    between atoms: C_19  and  C_20
REMARK    7  A    between atoms: C_22  and  C_23
REMARK                            x       y       z     vdW  Elec       q    Type
REMARK                         _______ _______ _______ _____ _____    ______ ____
ROOT
ATOM      1  C   UNL     1       1.215   9.372  19.033  0.00  0.00    +0.000 A 
ATOM      2  C   UNL     1       1.152  10.664  18.544  0.00  0.00    +0.000 A 
ATOM      3  N   UNL     1       0.725  11.722  19.255  0.00  0.00    +0.000 NA
ATOM      4  C   UNL     1       0.317  11.551  20.508  0.00  0.00    +0.000 A 
ATOM      5  N   UNL     1      -0.111  12.654  21.094  0.00  0.00    +0.000 NA
ATOM      6  C   UNL     1      -0.563  12.572  22.331  0.00  0.00    +0.000 A 
ATOM      7  N   UNL     1      -1.014  13.732  22.928  0.00  0.00    +0.000 N 
ATOM      8  N   UNL     1      -0.602  11.460  23.047  0.00  0.00    +0.000 NA
ATOM      9  C   UNL     1      -0.181  10.342  22.443  0.00  0.00    +0.000 A 
ATOM     10  N   UNL     1      -0.347   9.213  23.249  0.00  0.00    +0.000 N 
ATOM     11  C   UNL     1       0.336  10.294  21.132  0.00  0.00    +0.000 A 
ATOM     12  C   UNL     1       0.850   9.172  20.377  0.00  0.00    +0.000 A 
ATOM     13  C   UNL     1       1.041   7.790  20.955  0.00  0.00    +0.000 C 
ATOM     14  H   UNL     1      -0.589  14.534  22.483  0.00  0.00    +0.000 HD
ATOM     15  H   UNL     1      -0.944  13.663  23.932  0.00  0.00    +0.000 HD
ATOM     16  H   UNL     1      -0.754   9.541  24.123  0.00  0.00    +0.000 HD
ATOM     17  H   UNL     1      -0.963   8.543  22.803  0.00  0.00    +0.000 HD
ENDROOT
BRANCH   1  18
ATOM     18  C   UNL     1       1.647   8.276  18.093  0.00  0.00    +0.000 C 
BRANCH  18  19
ATOM     19  N   UNL     1       3.102   8.186  18.033  0.00  0.00    +0.000 N 
ATOM     20  H   UNL     1       3.548   8.576  18.861  0.00  0.00    +0.000 HD
BRANCH  19  23
ATOM     21  C   UNL     1       3.379   4.500  17.584  0.00  0.00    +0.000 A 
ATOM     22  C   UNL     1       2.871   5.774  17.876  0.00  0.00    +0.000 A 
ATOM     23  C   UNL     1       3.640   6.931  17.701  0.00  0.00    +0.000 A 
ATOM     24  C   UNL     1       4.970   6.769  17.302  0.00  0.00    +0.000 A 
ATOM     25  C   UNL     1       5.505   5.508  17.000  0.00  0.00    +0.000 A 
ATOM     26  C   UNL     1       4.697   4.372  17.147  0.00  0.00    +0.000 A 
BRANCH  25  27
ATOM     27  C   UNL     1       6.923   5.381  16.510  0.00  0.00    +0.000 C 
ATOM     28  F   UNL     1       7.682   6.489  16.746  0.00  0.00    +0.000 F 
ATOM     29  F   UNL     1       7.587   4.343  17.086  0.00  0.00    +0.000 F 
ATOM     30  F   UNL     1       6.988   5.172  15.166  0.00  0.00    +0.000 F 
ENDBRANCH  25  27
BRANCH  21  32
ATOM     31  C   UNL     1       3.022   2.168  17.927  0.00  0.00    +0.000 C 
ATOM     32  O   UNL     1       2.489   3.474  17.749  0.00  0.00    +0.000 OA
ENDBRANCH  21  32
ENDBRANCH  19  23
ENDBRANCH  18  19
ENDBRANCH   1  18
TORSDOF 5
ENDMDL
MODEL 7
REMARK VINA RESULT:      -8.1      1.266      2.256
REMARK  Name = 
REMARK  7 active torsions:
REMARK  status: ('A' for Active; 'I' for Inactive)
REMARK    1  A    between atoms: C_1  and  O_2
REMARK    2  A    between atoms: O_2  and  C_3
REMARK    3  A    between atoms: C_5  and  N_6
REMARK    4  A    between atoms: N_6  and  C_7
REMARK    5  A    between atoms: C_7  and  C_8
REMARK    6  A    between atoms: C_19  and  C_20
REMARK    7  A    between atoms: C_22  and  C_23
REMARK                            x       y       z     vdW  Elec       q    Type
REMARK                         _______ _______ _______ _____ _____    ______ ____
ROOT
ATOM      1  C   UNL     1       0.521   9.276  20.804  0.00  0.00    +0.000 A 
ATOM      2  C   UNL     1       0.830   9.785  19.556  0.00  0.00    +0.000 A 
ATOM      3  N   UNL     1       0.521  11.028  19.148  0.00  0.00    +0.000 NA
ATOM      4  C   UNL     1      -0.136  11.844  19.966  0.00  0.00    +0.000 A 
ATOM      5  N   UNL     1      -0.414  13.025  19.446  0.00  0.00    +0.000 NA
ATOM      6  C   UNL     1      -1.090  13.890  20.178  0.00  0.00    +0.000 A 
ATOM      7  N   UNL     1      -1.381  15.117  19.618  0.00  0.00    +0.000 N 
ATOM      8  N   UNL     1      -1.500  13.670  21.417  0.00  0.00    +0.000 NA
ATOM      9  C   UNL     1      -1.229  12.466  21.934  0.00  0.00    +0.000 A 
ATOM     10  N   UNL     1      -1.779  12.303  23.208  0.00  0.00    +0.000 N 
ATOM     11  C   UNL     1      -0.505  11.458  21.265  0.00  0.00    +0.000 A 
ATOM     12  C   UNL     1      -0.117  10.138  21.714  0.00  0.00    +0.000 A 
ATOM     13  C   UNL     1      -0.339   9.633  23.118  0.00  0.00    +0.000 C 
ATOM     14  H   UNL     1      -0.718  15.323  18.882  0.00  0.00    +0.000 HD
ATOM     15  H   UNL     1      -1.511  15.812  20.337  0.00  0.00    +0.000 HD
ATOM     16  H   UNL     1      -2.258  13.175  23.427  0.00  0.00    +0.000 HD
ATOM     17  H   UNL     1      -2.435  11.529  23.218  0.00  0.00    +0.000 HD
ENDROOT
BRANCH   1  18
ATOM     18  C   UNL     1       0.869   7.837  21.091  0.00  0.00    +0.000 C 
BRANCH  18  19
ATOM     19  N   UNL     1       2.232   7.537  20.662  0.00  0.00    +0.000 N 
ATOM     20  H   UNL     1       2.898   7.587  21.429  0.00  0.00    +0.000 HD
BRANCH  19  23
ATOM     21  C   UNL     1       3.363   5.268  17.935  0.00  0.00    +0.000 A 
ATOM     22  C   UNL     1       3.187   6.403  18.738  0.00  0.00    +0.000 A 
ATOM     23  C   UNL     1       2.407   6.368  19.901  0.00  0.00    +0.000 A 
ATOM     24  C   UNL     1       1.734   5.178  20.194  0.00  0.00    +0.000 A 
ATOM     25  C   UNL     1       1.895   4.026  19.411  0.00  0.00    +0.000 A 
ATOM     26  C   UNL     1       2.715   4.081  18.274  0.00  0.00    +0.000 A 
BRANCH  25  27
ATOM     27  C   UNL     1       1.205   2.743  19.795  0.00  0.00    +0.000 C 
ATOM     28  F   UNL     1       0.858   2.685  21.112  0.00  0.00    +0.000 F 
ATOM     29  F   UNL     1       0.058   2.532  19.097  0.00  0.00    +0.000 F 
ATOM     30  F   UNL     1       1.988   1.650  19.574  0.00  0.00    +0.000 F 
ENDBRANCH  25  27
BRANCH  21  32
ATOM     31  C   UNL     1       4.880   4.295  16.375  0.00  0.00    +0.000 C 
ATOM     32  O   UNL     1       4.200   5.443  16.867  0.00  0.00    +0.000 OA
ENDBRANCH  21  32
ENDBRANCH  19  23
ENDBRANCH  18  19
ENDBRANCH   1  18
TORSDOF 5
ENDMDL
MODEL 8
REMARK VINA RESULT:      -8.1      2.179      2.530
REMARK  Name = 
REMARK  7 active torsions:
REMARK  status: ('A' for Active; 'I' for Inactive)
REMARK    1  A    between atoms: C_1  and  O_2
REMARK    2  A    between atoms: O_2  and  C_3
REMARK    3  A    between atoms: C_5  and  N_6
REMARK    4  A    between atoms: N_6  and  C_7
REMARK    5  A    between atoms: C_7  and  C_8
REMARK    6  A    between atoms: C_19  and  C_20
REMARK    7  A    between atoms: C_22  and  C_23
REMARK                            x       y       z     vdW  Elec       q    Type
REMARK                         _______ _______ _______ _____ _____    ______ ____
ROOT
ATOM      1  C   UNL     1       0.898   9.455  20.500  0.00  0.00    +0.000 A 
ATOM      2  C   UNL     1       0.595  10.089  21.691  0.00  0.00    +0.000 A 
ATOM      3  N   UNL     1       0.671  11.418  21.881  0.00  0.00    +0.000 NA
ATOM      4  C   UNL     1       1.074  12.202  20.886  0.00  0.00    +0.000 A 
ATOM      5  N   UNL     1       1.141  13.483  21.200  0.00  0.00    +0.000 NA
ATOM      6  C   UNL     1       1.560  14.333  20.281  0.00  0.00    +0.000 A 
ATOM      7  N   UNL     1       1.633  15.667  20.625  0.00  0.00    +0.000 N 
ATOM      8  N   UNL     1       1.902  13.999  19.047  0.00  0.00    +0.000 NA
ATOM      9  C   UNL     1       1.845  12.698  18.739  0.00  0.00    +0.000 A 
ATOM     10  N   UNL     1       2.309  12.441  17.446  0.00  0.00    +0.000 N 
ATOM     11  C   UNL     1       1.405  11.691  19.622  0.00  0.00    +0.000 A 
ATOM     12  C   UNL     1       1.265  10.266  19.410  0.00  0.00    +0.000 A 
ATOM     13  C   UNL     1       1.470   9.593  18.075  0.00  0.00    +0.000 C 
ATOM     14  H   UNL     1       1.006  15.857  21.395  0.00  0.00    +0.000 HD
ATOM     15  H   UNL     1       1.556  16.248  19.805  0.00  0.00    +0.000 HD
ATOM     16  H   UNL     1       2.576  13.342  17.053  0.00  0.00    +0.000 HD
ATOM     17  H   UNL     1       3.108  11.818  17.470  0.00  0.00    +0.000 HD
ENDROOT
BRANCH   1  18
ATOM     18  C   UNL     1       0.835   7.949  20.460  0.00  0.00    +0.000 C 
BRANCH  18  19
ATOM     19  N   UNL     1       2.171   7.370  20.550  0.00  0.00    +0.000 N 
ATOM     20  H   UNL     1       2.467   7.227  21.513  0.00  0.00    +0.000 HD
BRANCH  19  23
ATOM     21  C   UNL     1       3.488   5.230  17.802  0.00  0.00    +0.000 A 
ATOM     22  C   UNL     1       3.242   6.332  18.633  0.00  0.00    +0.000 A 
ATOM     23  C   UNL     1       2.417   6.233  19.761  0.00  0.00    +0.000 A 
ATOM     24  C   UNL     1       1.775   5.012  19.988  0.00  0.00    +0.000 A 
ATOM     25  C   UNL     1       2.006   3.892  19.176  0.00  0.00    +0.000 A 
ATOM     26  C   UNL     1       2.868   4.012  18.077  0.00  0.00    +0.000 A 
BRANCH  25  27
ATOM     27  C   UNL     1       1.346   2.575  19.492  0.00  0.00    +0.000 C 
ATOM     28  F   UNL     1       2.137   1.495  19.233  0.00  0.00    +0.000 F 
ATOM     29  F   UNL     1       0.983   2.468  20.798  0.00  0.00    +0.000 F 
ATOM     30  F   UNL     1       0.210   2.380  18.766  0.00  0.00    +0.000 F 
ENDBRANCH  25  27
BRANCH  21  32
ATOM     31  C   UNL     1       5.066   4.352  16.246  0.00  0.00    +0.000 C 
ATOM     32  O   UNL     1       4.362   5.468  16.776  0.00  0.00    +0.000 OA
ENDBRANCH  21  32
ENDBRANCH  19  23
ENDBRANCH  18  19
ENDBRANCH   1  18
TORSDOF 5
ENDMDL
MODEL 9
REMARK VINA RESULT:      -8.1      2.474      3.229
REMARK  Name = 
REMARK  7 active torsions:
REMARK  status: ('A' for Active; 'I' for Inactive)
REMARK    1  A    between atoms: C_1  and  O_2
REMARK    2  A    between atoms: O_2  and  C_3
REMARK    3  A    between atoms: C_5  and  N_6
REMARK    4  A    between atoms: N_6  and  C_7
REMARK    5  A    between atoms: C_7  and  C_8
REMARK    6  A    between atoms: C_19  and  C_20
REMARK    7  A    between atoms: C_22  and  C_23
REMARK                            x       y       z     vdW  Elec       q    Type
REMARK                         _______ _______ _______ _____ _____    ______ ____
ROOT
ATOM      1  C   UNL     1       0.920   9.437  20.051  0.00  0.00    +0.000 A 
ATOM      2  C   UNL     1       1.235   9.395  21.397  0.00  0.00    +0.000 A 
ATOM      3  N   UNL     1       0.651  10.161  22.335  0.00  0.00    +0.000 NA
ATOM      4  C   UNL     1      -0.284  11.036  21.980  0.00  0.00    +0.000 A 
ATOM      5  N   UNL     1      -0.761  11.754  22.980  0.00  0.00    +0.000 NA
ATOM      6  C   UNL     1      -1.674  12.670  22.715  0.00  0.00    +0.000 A 
ATOM      7  N   UNL     1      -2.157  13.419  23.769  0.00  0.00    +0.000 N 
ATOM      8  N   UNL     1      -2.170  12.913  21.513  0.00  0.00    +0.000 NA
ATOM      9  C   UNL     1      -1.673  12.192  20.501  0.00  0.00    +0.000 A 
ATOM     10  N   UNL     1      -2.196  12.585  19.267  0.00  0.00    +0.000 N 
ATOM     11  C   UNL     1      -0.706  11.177  20.649  0.00  0.00    +0.000 A 
ATOM     12  C   UNL     1      -0.112  10.308  19.656  0.00  0.00    +0.000 A 
ATOM     13  C   UNL     1      -0.549  10.264  18.212  0.00  0.00    +0.000 C 
ATOM     14  H   UNL     1      -2.029  12.913  24.635  0.00  0.00    +0.000 HD
ATOM     15  H   UNL     1      -3.081  13.765  23.562  0.00  0.00    +0.000 HD
ATOM     16  H   UNL     1      -2.849  13.343  19.460  0.00  0.00    +0.000 HD
ATOM     17  H   UNL     1      -1.457  12.907  18.651  0.00  0.00    +0.000 HD
ENDROOT
BRANCH   1  18
ATOM     18  C   UNL     1       1.713   8.569  19.107  0.00  0.00    +0.000 C 
BRANCH  18  19
ATOM     19  N   UNL     1       2.151   7.345  19.772  0.00  0.00    +0.000 N 
ATOM     20  H   UNL     1       1.449   6.978  20.409  0.00  0.00    +0.000 HD
BRANCH  19  23
ATOM     21  C   UNL     1       2.856   3.959  18.394  0.00  0.00    +0.000 A 
ATOM     22  C   UNL     1       2.332   4.998  19.175  0.00  0.00    +0.000 A 
ATOM     23  C   UNL     1       2.676   6.337  18.946  0.00  0.00    +0.000 A 
ATOM     24  C   UNL     1       3.632   6.599  17.960  0.00  0.00    +0.000 A 
ATOM     25  C   UNL     1       4.170   5.580  17.161  0.00  0.00    +0.000 A 
ATOM     26  C   UNL     1       3.775   4.254  17.388  0.00  0.00    +0.000 A 
BRANCH  25  27
ATOM     27  C   UNL     1       5.149   5.910  16.064  0.00  0.00    +0.000 C 
ATOM     28  F   UNL     1       5.243   4.942  15.109  0.00  0.00    +0.000 F 
ATOM     29  F   UNL     1       4.833   7.056  15.405  0.00  0.00    +0.000 F 
ATOM     30  F   UNL     1       6.415   6.083  16.537  0.00  0.00    +0.000 F 
ENDBRANCH  25  27
BRANCH  21  32
ATOM     31  C   UNL     1       0.975   2.579  18.887  0.00  0.00    +0.000 C 
ATOM     32  O   UNL     1       2.379   2.713  18.700  0.00  0.00    +0.000 OA
ENDBRANCH  21  32
ENDBRANCH  19  23
ENDBRANCH  18  19
ENDBRANCH   1  18
TORSDOF 5
ENDMDL
