MODEL 1
REMARK VINA RESULT:      -8.4      0.000      0.000
REMARK  Name = 
REMARK  5 active torsions:
REMARK  status: ('A' for Active; 'I' for Inactive)
REMARK    1  A    between atoms: C_2  and  C_3
REMARK    2  A    between atoms: C_3  and  C_4
REMARK    3  A    between atoms: N_11  and  C_12
REMARK    4  A    between atoms: C_16  and  C_17
REMARK    5  A    between atoms: C_21  and  N_22
REMARK                            x       y       z     vdW  Elec       q    Type
REMARK                         _______ _______ _______ _____ _____    ______ ____
ROOT
ATOM      1  C   UNL     1       0.828   9.192  19.915  0.00  0.00    +0.000 A 
ATOM      2  C   UNL     1       1.135  10.038  18.850  0.00  0.00    +0.000 A 
ATOM      3  C   UNL     1       2.026   9.631  17.863  0.00  0.00    +0.000 A 
ATOM      4  C   UNL     1       2.614   8.369  17.929  0.00  0.00    +0.000 A 
ATOM      5  C   UNL     1       2.295   7.461  18.955  0.00  0.00    +0.000 A 
ATOM      6  C   UNL     1       1.383   7.897  19.939  0.00  0.00    +0.000 A 
ENDROOT
BRANCH   5   7
ATOM      7  C   UNL     1       2.925   6.114  18.997  0.00  0.00    +0.000 A 
ATOM      8  C   UNL     1       2.682   5.212  20.041  0.00  0.00    +0.000 A 
ATOM      9  C   UNL     1       3.303   3.964  20.063  0.00  0.00    +0.000 A 
ATOM     10  C   UNL     1       4.222   3.616  19.070  0.00  0.00    +0.000 A 
ATOM     11  C   UNL     1       4.561   4.500  18.038  0.00  0.00    +0.000 A 
ATOM     12  C   UNL     1       3.836   5.705  17.995  0.00  0.00    +0.000 A 
BRANCH  11  13
ATOM     13  N   UNL     1       5.542   4.191  17.102  0.00  0.00    +0.000 N 
ATOM     14  C   UNL     1       6.907   4.713  17.258  0.00  0.00    +0.000 C 
ATOM     15  C   UNL     1       7.251   5.276  15.883  0.00  0.00    +0.000 C 
ATOM     16  C   UNL     1       6.533   4.329  14.942  0.00  0.00    +0.000 C 
ATOM     17  C   UNL     1       5.220   4.052  15.673  0.00  0.00    +0.000 C 
ENDBRANCH  11  13
ENDBRANCH   5   7
BRANCH   1  20
ATOM     18  O   UNL     1       1.519   9.727  22.739  0.00  0.00    +0.000 OA
ATOM     19  C   UNL     1       0.379   9.823  22.292  0.00  0.00    +0.000 C 
ATOM     20  N   UNL     1      -0.015   9.573  20.984  0.00  0.00    +0.000 N 
ATOM     21  H   UNL     1      -1.012   9.530  20.807  0.00  0.00    +0.000 HD
BRANCH  19  22
ATOM     22  C   UNL     1      -0.768  10.220  23.208  0.00  0.00    +0.000 C 
BRANCH  22  23
ATOM     23  C   UNL     1      -1.329  11.593  22.914  0.00  0.00    +0.000 A 
ATOM     24  C   UNL     1      -2.639  11.929  23.291  0.00  0.00    +0.000 A 
ATOM     25  C   UNL     1      -3.146  13.208  23.044  0.00  0.00    +0.000 A 
ATOM     26  C   UNL     1      -2.343  14.162  22.428  0.00  0.00    +0.000 A 
ATOM     27 CL   UNL     1      -2.963  15.737  22.122  0.00  0.00    +0.000 Cl
ATOM     28  C   UNL     1      -1.036  13.850  22.061  0.00  0.00    +0.000 A 
ATOM     29  C   UNL     1      -0.528  12.571  22.306  0.00  0.00    +0.000 A 
ENDBRANCH  22  23
ENDBRANCH  19  22
ENDBRANCH   1  20
TORSDOF 5
ENDMDL
MODEL 2
REMARK VINA RESULT:      -8.4      2.912      4.232
REMARK  Name = 
REMARK  5 active torsions:
REMARK  status: ('A' for Active; 'I' for Inactive)
REMARK    1  A    between atoms: C_2  and  C_3
REMARK    2  A    between atoms: C_3  and  C_4
REMARK    3  A    between atoms: N_11  and  C_12
REMARK    4  A    between atoms: C_16  and  C_17
REMARK    5  A    between atoms: C_21  and  N_22
REMARK                            x       y       z     vdW  Elec       q    Type
REMARK                         _______ _______ _______ _____ _____    ______ ____
ROOT
ATOM      1  C   UNL     1       2.251   7.054  19.690  0.00  0.00    +0.000 A 
ATOM      2  C   UNL     1       1.625   6.027  20.395  0.00  0.00    +0.000 A 
ATOM      3  C   UNL     1       2.127   4.731  20.345  0.00  0.00    +0.000 A 
ATOM      4  C   UNL     1       3.267   4.452  19.593  0.00  0.00    +0.000 A 
ATOM      5  C   UNL     1       3.964   5.464  18.909  0.00  0.00    +0.000 A 
ATOM      6  C   UNL     1       3.436   6.770  18.982  0.00  0.00    +0.000 A 
ENDROOT
BRANCH   5   7
ATOM      7  C   UNL     1       5.187   5.145  18.124  0.00  0.00    +0.000 A 
ATOM      8  C   UNL     1       6.439   4.983  18.730  0.00  0.00    +0.000 A 
ATOM      9  C   UNL     1       7.570   4.704  17.965  0.00  0.00    +0.000 A 
ATOM     10  C   UNL     1       7.481   4.635  16.573  0.00  0.00    +0.000 A 
ATOM     11  C   UNL     1       6.271   4.856  15.900  0.00  0.00    +0.000 A 
ATOM     12  C   UNL     1       5.137   5.031  16.715  0.00  0.00    +0.000 A 
BRANCH  11  13
ATOM     13  N   UNL     1       6.199   4.879  14.512  0.00  0.00    +0.000 N 
ATOM     14  C   UNL     1       5.210   4.051  13.807  0.00  0.00    +0.000 C 
ATOM     15  C   UNL     1       6.015   3.362  12.709  0.00  0.00    +0.000 C 
ATOM     16  C   UNL     1       7.043   4.412  12.336  0.00  0.00    +0.000 C 
ATOM     17  C   UNL     1       7.407   5.028  13.686  0.00  0.00    +0.000 C 
ENDBRANCH  11  13
ENDBRANCH   5   7
BRANCH   1  20
ATOM     18  O   UNL     1       1.942   8.856  17.367  0.00  0.00    +0.000 OA
ATOM     19  C   UNL     1       1.619   9.165  18.511  0.00  0.00    +0.000 C 
ATOM     20  N   UNL     1       1.750   8.375  19.645  0.00  0.00    +0.000 N 
ATOM     21  H   UNL     1       1.598   8.828  20.538  0.00  0.00    +0.000 HD
BRANCH  19  22
ATOM     22  C   UNL     1       1.040  10.543  18.793  0.00  0.00    +0.000 C 
BRANCH  22  23
ATOM     23  C   UNL     1      -0.442  10.645  18.513  0.00  0.00    +0.000 A 
ATOM     24  C   UNL     1      -1.223  11.633  19.134  0.00  0.00    +0.000 A 
ATOM     25  C   UNL     1      -2.588  11.743  18.852  0.00  0.00    +0.000 A 
ATOM     26  C   UNL     1      -3.178  10.873  17.941  0.00  0.00    +0.000 A 
ATOM     27 CL   UNL     1      -4.857  11.006  17.591  0.00  0.00    +0.000 Cl
ATOM     28  C   UNL     1      -2.414   9.897  17.304  0.00  0.00    +0.000 A 
ATOM     29  C   UNL     1      -1.049   9.785  17.587  0.00  0.00    +0.000 A 
ENDBRANCH  22  23
ENDBRANCH  19  22
ENDBRANCH   1  20
TORSDOF 5
ENDMDL
MODEL 3
REMARK VINA RESULT:      -8.4      1.971      3.721
REMARK  Name = 
REMARK  5 active torsions:
REMARK  status: ('A' for Active; 'I' for Inactive)
REMARK    1  A    between atoms: C_2  and  C_3
REMARK    2  A    between atoms: C_3  and  C_4
REMARK    3  A    between atoms: N_11  and  C_12
REMARK    4  A    between atoms: C_16  and  C_17
REMARK    5  A    between atoms: C_21  and  N_22
REMARK                            x       y       z     vdW  Elec       q    Type
REMARK                         _______ _______ _______ _____ _____    ______ ____
ROOT
ATOM      1  C   UNL     1       2.060   5.392  20.052  0.00  0.00    +0.000 A 
ATOM      2  C   UNL     1       1.174   4.356  19.762  0.00  0.00    +0.000 A 
ATOM      3  C   UNL     1       1.501   3.394  18.813  0.00  0.00    +0.000 A 
ATOM      4  C   UNL     1       2.724   3.457  18.148  0.00  0.00    +0.000 A 
ATOM      5  C   UNL     1       3.673   4.452  18.443  0.00  0.00    +0.000 A 
ATOM      6  C   UNL     1       3.317   5.411  19.415  0.00  0.00    +0.000 A 
ENDROOT
BRANCH   5   7
ATOM      7  C   UNL     1       4.978   4.491  17.730  0.00  0.00    +0.000 A 
ATOM      8  C   UNL     1       6.195   4.623  18.412  0.00  0.00    +0.000 A 
ATOM      9  C   UNL     1       7.400   4.677  17.714  0.00  0.00    +0.000 A 
ATOM     10  C   UNL     1       7.408   4.655  16.317  0.00  0.00    +0.000 A 
ATOM     11  C   UNL     1       6.221   4.595  15.574  0.00  0.00    +0.000 A 
ATOM     12  C   UNL     1       5.036   4.438  16.318  0.00  0.00    +0.000 A 
BRANCH  11  13
ATOM     13  N   UNL     1       6.222   4.667  14.186  0.00  0.00    +0.000 N 
ATOM     14  C   UNL     1       5.286   3.849  13.400  0.00  0.00    +0.000 C 
ATOM     15  C   UNL     1       6.160   3.213  12.324  0.00  0.00    +0.000 C 
ATOM     16  C   UNL     1       7.187   4.292  12.042  0.00  0.00    +0.000 C 
ATOM     17  C   UNL     1       7.469   4.865  13.431  0.00  0.00    +0.000 C 
ENDBRANCH  11  13
ENDBRANCH   5   7
BRANCH   1  20
ATOM     18  O   UNL     1       1.819   8.293  19.538  0.00  0.00    +0.000 OA
ATOM     19  C   UNL     1       1.645   7.785  20.643  0.00  0.00    +0.000 C 
ATOM     20  N   UNL     1       1.757   6.437  20.955  0.00  0.00    +0.000 N 
ATOM     21  H   UNL     1       1.752   6.193  21.938  0.00  0.00    +0.000 HD
BRANCH  19  22
ATOM     22  C   UNL     1       1.302   8.660  21.838  0.00  0.00    +0.000 C 
BRANCH  22  23
ATOM     23  C   UNL     1       0.291   9.740  21.526  0.00  0.00    +0.000 A 
ATOM     24  C   UNL     1      -0.292  10.496  22.557  0.00  0.00    +0.000 A 
ATOM     25  C   UNL     1      -1.205  11.513  22.265  0.00  0.00    +0.000 A 
ATOM     26  C   UNL     1      -1.532  11.788  20.941  0.00  0.00    +0.000 A 
ATOM     27 CL   UNL     1      -2.655  13.039  20.577  0.00  0.00    +0.000 Cl
ATOM     28  C   UNL     1      -0.951  11.059  19.906  0.00  0.00    +0.000 A 
ATOM     29  C   UNL     1      -0.039  10.040  20.197  0.00  0.00    +0.000 A 
ENDBRANCH  22  23
ENDBRANCH  19  22
ENDBRANCH   1  20
TORSDOF 5
ENDMDL
MODEL 4
REMARK VINA RESULT:      -8.3      2.771      4.106
REMARK  Name = 
REMARK  5 active torsions:
REMARK  status: ('A' for Active; 'I' for Inactive)
REMARK    1  A    between atoms: C_2  and  C_3
REMARK    2  A    between atoms: C_3  and  C_4
REMARK    3  A    between atoms: N_11  and  C_12
REMARK    4  A    between atoms: C_16  and  C_17
REMARK    5  A    between atoms: C_21  and  N_22
REMARK                            x       y       z     vdW  Elec       q    Type
REMARK                         _______ _______ _______ _____ _____    ______ ____
ROOT
ATOM      1  C   UNL     1       2.317   7.566  18.984  0.00  0.00    +0.000 A 
ATOM      2  C   UNL     1       1.796   6.781  20.012  0.00  0.00    +0.000 A 
ATOM      3  C   UNL     1       2.364   5.548  20.312  0.00  0.00    +0.000 A 
ATOM      4  C   UNL     1       3.463   5.090  19.588  0.00  0.00    +0.000 A 
ATOM      5  C   UNL     1       4.056   5.869  18.578  0.00  0.00    +0.000 A 
ATOM      6  C   UNL     1       3.464   7.119  18.299  0.00  0.00    +0.000 A 
ENDROOT
BRANCH   5   7
ATOM      7  C   UNL     1       5.238   5.365  17.827  0.00  0.00    +0.000 A 
ATOM      8  C   UNL     1       6.450   5.066  18.463  0.00  0.00    +0.000 A 
ATOM      9  C   UNL     1       7.546   4.615  17.730  0.00  0.00    +0.000 A 
ATOM     10  C   UNL     1       7.469   4.507  16.339  0.00  0.00    +0.000 A 
ATOM     11  C   UNL     1       6.308   4.857  15.637  0.00  0.00    +0.000 A 
ATOM     12  C   UNL     1       5.194   5.207  16.422  0.00  0.00    +0.000 A 
BRANCH  11  13
ATOM     13  N   UNL     1       6.259   4.837  14.248  0.00  0.00    +0.000 N 
ATOM     14  C   UNL     1       5.300   3.969  13.550  0.00  0.00    +0.000 C 
ATOM     15  C   UNL     1       6.138   3.265  12.487  0.00  0.00    +0.000 C 
ATOM     16  C   UNL     1       7.150   4.325  12.100  0.00  0.00    +0.000 C 
ATOM     17  C   UNL     1       7.478   4.988  13.437  0.00  0.00    +0.000 C 
ENDBRANCH  11  13
ENDBRANCH   5   7
BRANCH   1  20
ATOM     18  O   UNL     1       0.583   9.403  20.521  0.00  0.00    +0.000 OA
ATOM     19  C   UNL     1       0.944   9.620  19.367  0.00  0.00    +0.000 C 
ATOM     20  N   UNL     1       1.743   8.795  18.586  0.00  0.00    +0.000 N 
ATOM     21  H   UNL     1       1.814   9.025  17.602  0.00  0.00    +0.000 HD
BRANCH  19  22
ATOM     22  C   UNL     1       0.485  10.879  18.649  0.00  0.00    +0.000 C 
BRANCH  22  23
ATOM     23  C   UNL     1      -1.005  10.921  18.395  0.00  0.00    +0.000 A 
ATOM     24  C   UNL     1      -1.607  10.016  17.505  0.00  0.00    +0.000 A 
ATOM     25  C   UNL     1      -2.988  10.038  17.294  0.00  0.00    +0.000 A 
ATOM     26  C   UNL     1      -3.777  10.957  17.978  0.00  0.00    +0.000 A 
ATOM     27 CL   UNL     1      -5.478  10.988  17.720  0.00  0.00    +0.000 Cl
ATOM     28  C   UNL     1      -3.198  11.852  18.876  0.00  0.00    +0.000 A 
ATOM     29  C   UNL     1      -1.816  11.832  19.087  0.00  0.00    +0.000 A 
ENDBRANCH  22  23
ENDBRANCH  19  22
ENDBRANCH   1  20
TORSDOF 5
ENDMDL
MODEL 5
REMARK VINA RESULT:      -8.2      4.204      9.895
REMARK  Name = 
REMARK  5 active torsions:
REMARK  status: ('A' for Active; 'I' for Inactive)
REMARK    1  A    between atoms: C_2  and  C_3
REMARK    2  A    between atoms: C_3  and  C_4
REMARK    3  A    between atoms: N_11  and  C_12
REMARK    4  A    between atoms: C_16  and  C_17
REMARK    5  A    between atoms: C_21  and  N_22
REMARK                            x       y       z     vdW  Elec       q    Type
REMARK                         _______ _______ _______ _____ _____    ______ ____
ROOT
ATOM      1  C   UNL     1       3.819   5.731  19.044  0.00  0.00    +0.000 A 
ATOM      2  C   UNL     1       3.323   4.536  19.563  0.00  0.00    +0.000 A 
ATOM      3  C   UNL     1       2.211   4.538  20.398  0.00  0.00    +0.000 A 
ATOM      4  C   UNL     1       1.580   5.739  20.717  0.00  0.00    +0.000 A 
ATOM      5  C   UNL     1       2.011   6.964  20.176  0.00  0.00    +0.000 A 
ATOM      6  C   UNL     1       3.137   6.931  19.326  0.00  0.00    +0.000 A 
ENDROOT
BRANCH   5   7
ATOM      7  C   UNL     1       1.312   8.232  20.519  0.00  0.00    +0.000 A 
ATOM      8  C   UNL     1       1.195   8.682  21.841  0.00  0.00    +0.000 A 
ATOM      9  C   UNL     1       0.517   9.865  22.133  0.00  0.00    +0.000 A 
ATOM     10  C   UNL     1      -0.104  10.592  21.114  0.00  0.00    +0.000 A 
ATOM     11  C   UNL     1      -0.083  10.159  19.782  0.00  0.00    +0.000 A 
ATOM     12  C   UNL     1       0.698   9.019  19.516  0.00  0.00    +0.000 A 
BRANCH  11  13
ATOM     13  N   UNL     1      -0.777  10.831  18.783  0.00  0.00    +0.000 N 
ATOM     14  C   UNL     1      -1.689  11.933  19.125  0.00  0.00    +0.000 C 
ATOM     15  C   UNL     1      -2.962  11.618  18.347  0.00  0.00    +0.000 C 
ATOM     16  C   UNL     1      -2.434  10.977  17.079  0.00  0.00    +0.000 C 
ATOM     17  C   UNL     1      -1.268  10.129  17.586  0.00  0.00    +0.000 C 
ENDBRANCH  11  13
ENDBRANCH   5   7
BRANCH   1  20
ATOM     18  O   UNL     1       6.623   5.152  19.782  0.00  0.00    +0.000 OA
ATOM     19  C   UNL     1       6.278   5.501  18.655  0.00  0.00    +0.000 C 
ATOM     20  N   UNL     1       4.985   5.801  18.248  0.00  0.00    +0.000 N 
ATOM     21  H   UNL     1       4.881   6.236  17.339  0.00  0.00    +0.000 HD
BRANCH  19  22
ATOM     22  C   UNL     1       7.317   5.671  17.558  0.00  0.00    +0.000 C 
BRANCH  22  23
ATOM     23  C   UNL     1       6.921   5.033  16.246  0.00  0.00    +0.000 A 
ATOM     24  C   UNL     1       5.960   4.009  16.208  0.00  0.00    +0.000 A 
ATOM     25  C   UNL     1       5.574   3.439  14.992  0.00  0.00    +0.000 A 
ATOM     26  C   UNL     1       6.139   3.897  13.805  0.00  0.00    +0.000 A 
ATOM     27 CL   UNL     1       5.667   3.198  12.305  0.00  0.00    +0.000 Cl
ATOM     28  C   UNL     1       7.082   4.922  13.824  0.00  0.00    +0.000 A 
ATOM     29  C   UNL     1       7.469   5.491  15.040  0.00  0.00    +0.000 A 
ENDBRANCH  22  23
ENDBRANCH  19  22
ENDBRANCH   1  20
TORSDOF 5
ENDMDL
MODEL 6
REMARK VINA RESULT:      -8.1      1.001      1.047
REMARK  Name = 
REMARK  5 active torsions:
REMARK  status: ('A' for Active; 'I' for Inactive)
REMARK    1  A    between atoms: C_2  and  C_3
REMARK    2  A    between atoms: C_3  and  C_4
REMARK    3  A    between atoms: N_11  and  C_12
REMARK    4  A    between atoms: C_16  and  C_17
REMARK    5  A    between atoms: C_21  and  N_22
REMARK                            x       y       z     vdW  Elec       q    Type
REMARK                         _______ _______ _______ _____ _____    ______ ____
ROOT
ATOM      1  C   UNL     1       1.086   9.315  20.263  0.00  0.00    +0.000 A 
ATOM      2  C   UNL     1       1.134  10.052  19.081  0.00  0.00    +0.000 A 
ATOM      3  C   UNL     1       1.750   9.528  17.950  0.00  0.00    +0.000 A 
ATOM      4  C   UNL     1       2.319   8.257  17.990  0.00  0.00    +0.000 A 
ATOM      5  C   UNL     1       2.249   7.454  19.143  0.00  0.00    +0.000 A 
ATOM      6  C   UNL     1       1.612   8.008  20.274  0.00  0.00    +0.000 A 
ENDROOT
BRANCH   5   7
ATOM      7  C   UNL     1       2.852   6.094  19.158  0.00  0.00    +0.000 A 
ATOM      8  C   UNL     1       2.584   5.173  20.179  0.00  0.00    +0.000 A 
ATOM      9  C   UNL     1       3.180   3.913  20.175  0.00  0.00    +0.000 A 
ATOM     10  C   UNL     1       4.098   3.570  19.180  0.00  0.00    +0.000 A 
ATOM     11  C   UNL     1       4.462   4.471  18.171  0.00  0.00    +0.000 A 
ATOM     12  C   UNL     1       3.760   5.691  18.152  0.00  0.00    +0.000 A 
BRANCH  11  13
ATOM     13  N   UNL     1       5.442   4.164  17.234  0.00  0.00    +0.000 N 
ATOM     14  C   UNL     1       6.793   4.729  17.363  0.00  0.00    +0.000 C 
ATOM     15  C   UNL     1       7.108   5.263  15.969  0.00  0.00    +0.000 C 
ATOM     16  C   UNL     1       6.409   4.270  15.062  0.00  0.00    +0.000 C 
ATOM     17  C   UNL     1       5.112   3.976  15.813  0.00  0.00    +0.000 C 
ENDBRANCH  11  13
ENDBRANCH   5   7
BRANCH   1  20
ATOM     18  O   UNL     1      -1.150  11.212  20.644  0.00  0.00    +0.000 OA
ATOM     19  C   UNL     1      -0.529  10.703  21.574  0.00  0.00    +0.000 C 
ATOM     20  N   UNL     1       0.536   9.819  21.465  0.00  0.00    +0.000 N 
ATOM     21  H   UNL     1       1.053   9.619  22.313  0.00  0.00    +0.000 HD
BRANCH  19  22
ATOM     22  C   UNL     1      -0.886  11.051  23.010  0.00  0.00    +0.000 C 
BRANCH  22  23
ATOM     23  C   UNL     1      -1.706  12.315  23.140  0.00  0.00    +0.000 A 
ATOM     24  C   UNL     1      -3.098  12.252  23.317  0.00  0.00    +0.000 A 
ATOM     25  C   UNL     1      -3.850  13.420  23.464  0.00  0.00    +0.000 A 
ATOM     26  C   UNL     1      -3.216  14.658  23.446  0.00  0.00    +0.000 A 
ATOM     27 CL   UNL     1      -4.138  16.098  23.628  0.00  0.00    +0.000 Cl
ATOM     28  C   UNL     1      -1.834  14.738  23.287  0.00  0.00    +0.000 A 
ATOM     29  C   UNL     1      -1.080  13.570  23.138  0.00  0.00    +0.000 A 
ENDBRANCH  22  23
ENDBRANCH  19  22
ENDBRANCH   1  20
TORSDOF 5
ENDMDL
MODEL 7
REMARK VINA RESULT:      -8.1      1.239      1.546
REMARK  Name = 
REMARK  5 active torsions:
REMARK  status: ('A' for Active; 'I' for Inactive)
REMARK    1  A    between atoms: C_2  and  C_3
REMARK    2  A    between atoms: C_3  and  C_4
REMARK    3  A    between atoms: N_11  and  C_12
REMARK    4  A    between atoms: C_16  and  C_17
REMARK    5  A    between atoms: C_21  and  N_22
REMARK                            x       y       z     vdW  Elec       q    Type
REMARK                         _______ _______ _______ _____ _____    ______ ____
ROOT
ATOM      1  C   UNL     1       0.772   9.505  20.003  0.00  0.00    +0.000 A 
ATOM      2  C   UNL     1       1.065  10.278  18.880  0.00  0.00    +0.000 A 
ATOM      3  C   UNL     1       1.901   9.784  17.885  0.00  0.00    +0.000 A 
ATOM      4  C   UNL     1       2.448   8.508  18.001  0.00  0.00    +0.000 A 
ATOM      5  C   UNL     1       2.140   7.671  19.089  0.00  0.00    +0.000 A 
ATOM      6  C   UNL     1       1.283   8.195  20.081  0.00  0.00    +0.000 A 
ENDROOT
BRANCH   5   7
ATOM      7  C   UNL     1       2.724   6.306  19.185  0.00  0.00    +0.000 A 
ATOM      8  C   UNL     1       2.326   5.394  20.171  0.00  0.00    +0.000 A 
ATOM      9  C   UNL     1       2.907   4.129  20.247  0.00  0.00    +0.000 A 
ATOM     10  C   UNL     1       3.937   3.772  19.374  0.00  0.00    +0.000 A 
ATOM     11  C   UNL     1       4.429   4.663  18.411  0.00  0.00    +0.000 A 
ATOM     12  C   UNL     1       3.746   5.889  18.300  0.00  0.00    +0.000 A 
BRANCH  11  13
ATOM     13  N   UNL     1       5.514   4.343  17.604  0.00  0.00    +0.000 N 
ATOM     14  C   UNL     1       6.793   5.048  17.765  0.00  0.00    +0.000 C 
ATOM     15  C   UNL     1       7.187   5.438  16.344  0.00  0.00    +0.000 C 
ATOM     16  C   UNL     1       6.663   4.279  15.519  0.00  0.00    +0.000 C 
ATOM     17  C   UNL     1       5.332   3.953  16.196  0.00  0.00    +0.000 C 
ENDBRANCH  11  13
ENDBRANCH   5   7
BRANCH   1  20
ATOM     18  O   UNL     1       0.957  12.065  21.471  0.00  0.00    +0.000 OA
ATOM     19  C   UNL     1       0.119  11.202  21.719  0.00  0.00    +0.000 C 
ATOM     20  N   UNL     1      -0.014   9.977  21.080  0.00  0.00    +0.000 N 
ATOM     21  H   UNL     1      -0.640   9.304  21.506  0.00  0.00    +0.000 HD
BRANCH  19  22
ATOM     22  C   UNL     1      -0.885  11.415  22.841  0.00  0.00    +0.000 C 
BRANCH  22  23
ATOM     23  C   UNL     1      -2.148  12.116  22.398  0.00  0.00    +0.000 A 
ATOM     24  C   UNL     1      -2.302  12.545  21.069  0.00  0.00    +0.000 A 
ATOM     25  C   UNL     1      -3.482  13.168  20.654  0.00  0.00    +0.000 A 
ATOM     26  C   UNL     1      -4.519  13.357  21.561  0.00  0.00    +0.000 A 
ATOM     27 CL   UNL     1      -5.973  14.124  21.054  0.00  0.00    +0.000 Cl
ATOM     28  C   UNL     1      -4.389  12.924  22.879  0.00  0.00    +0.000 A 
ATOM     29  C   UNL     1      -3.209  12.302  23.295  0.00  0.00    +0.000 A 
ENDBRANCH  22  23
ENDBRANCH  19  22
ENDBRANCH   1  20
TORSDOF 5
ENDMDL
MODEL 8
REMARK VINA RESULT:      -8.1      3.702     10.049
REMARK  Name = 
REMARK  5 active torsions:
REMARK  status: ('A' for Active; 'I' for Inactive)
REMARK    1  A    between atoms: C_2  and  C_3
REMARK    2  A    between atoms: C_3  and  C_4
REMARK    3  A    between atoms: N_11  and  C_12
REMARK    4  A    between atoms: C_16  and  C_17
REMARK    5  A    between atoms: C_21  and  N_22
REMARK                            x       y       z     vdW  Elec       q    Type
REMARK                         _______ _______ _______ _____ _____    ______ ____
ROOT
ATOM      1  C   UNL     1       2.436   7.707  18.798  0.00  0.00    +0.000 A 
ATOM      2  C   UNL     1       2.170   8.320  17.575  0.00  0.00    +0.000 A 
ATOM      3  C   UNL     1       1.267   9.374  17.497  0.00  0.00    +0.000 A 
ATOM      4  C   UNL     1       0.624   9.830  18.647  0.00  0.00    +0.000 A 
ATOM      5  C   UNL     1       0.899   9.278  19.912  0.00  0.00    +0.000 A 
ATOM      6  C   UNL     1       1.825   8.215  19.962  0.00  0.00    +0.000 A 
ENDROOT
BRANCH   5   7
ATOM      7  C   UNL     1       0.211   9.790  21.128  0.00  0.00    +0.000 A 
ATOM      8  C   UNL     1       0.310   9.144  22.366  0.00  0.00    +0.000 A 
ATOM      9  C   UNL     1      -0.362   9.637  23.483  0.00  0.00    +0.000 A 
ATOM     10  C   UNL     1      -1.192  10.755  23.370  0.00  0.00    +0.000 A 
ATOM     11  C   UNL     1      -1.388  11.406  22.145  0.00  0.00    +0.000 A 
ATOM     12  C   UNL     1      -0.611  10.939  21.068  0.00  0.00    +0.000 A 
BRANCH  11  13
ATOM     13  N   UNL     1      -2.284  12.461  22.011  0.00  0.00    +0.000 N 
ATOM     14  C   UNL     1      -3.433  12.579  22.921  0.00  0.00    +0.000 C 
ATOM     15  C   UNL     1      -4.618  12.830  21.994  0.00  0.00    +0.000 C 
ATOM     16  C   UNL     1      -4.005  13.654  20.879  0.00  0.00    +0.000 C 
ATOM     17  C   UNL     1      -2.634  13.005  20.690  0.00  0.00    +0.000 C 
ENDBRANCH  11  13
ENDBRANCH   5   7
BRANCH   1  20
ATOM     18  O   UNL     1       1.789   4.955  19.663  0.00  0.00    +0.000 OA
ATOM     19  C   UNL     1       2.916   5.312  19.332  0.00  0.00    +0.000 C 
ATOM     20  N   UNL     1       3.290   6.588  18.931  0.00  0.00    +0.000 N 
ATOM     21  H   UNL     1       4.284   6.770  18.853  0.00  0.00    +0.000 HD
BRANCH  19  22
ATOM     22  C   UNL     1       4.071   4.323  19.369  0.00  0.00    +0.000 C 
BRANCH  22  23
ATOM     23  C   UNL     1       4.926   4.345  18.122  0.00  0.00    +0.000 A 
ATOM     24  C   UNL     1       4.355   4.123  16.858  0.00  0.00    +0.000 A 
ATOM     25  C   UNL     1       5.142   4.171  15.704  0.00  0.00    +0.000 A 
ATOM     26  C   UNL     1       6.501   4.452  15.805  0.00  0.00    +0.000 A 
ATOM     27 CL   UNL     1       7.472   4.512  14.386  0.00  0.00    +0.000 Cl
ATOM     28  C   UNL     1       7.079   4.690  17.050  0.00  0.00    +0.000 A 
ATOM     29  C   UNL     1       6.294   4.640  18.205  0.00  0.00    +0.000 A 
ENDBRANCH  22  23
ENDBRANCH  19  22
ENDBRANCH   1  20
TORSDOF 5
ENDMDL
MODEL 9
REMARK VINA RESULT:      -8.0      0.964      1.264
REMARK  Name = 
REMARK  5 active torsions:
REMARK  status: ('A' for Active; 'I' for Inactive)
REMARK    1  A    between atoms: C_2  and  C_3
REMARK    2  A    between atoms: C_3  and  C_4
REMARK    3  A    between atoms: N_11  and  C_12
REMARK    4  A    between atoms: C_16  and  C_17
REMARK    5  A    between atoms: C_21  and  N_22
REMARK                            x       y       z     vdW  Elec       q    Type
REMARK                         _______ _______ _______ _____ _____    ______ ____
ROOT
ATOM      1  C   UNL     1       1.083   9.570  20.058  0.00  0.00    +0.000 A 
ATOM      2  C   UNL     1       1.220  10.241  18.844  0.00  0.00    +0.000 A 
ATOM      3  C   UNL     1       1.869   9.635  17.774  0.00  0.00    +0.000 A 
ATOM      4  C   UNL     1       2.383   8.346  17.908  0.00  0.00    +0.000 A 
ATOM      5  C   UNL     1       2.224   7.609  19.096  0.00  0.00    +0.000 A 
ATOM      6  C   UNL     1       1.555   8.246  20.162  0.00  0.00    +0.000 A 
ENDROOT
BRANCH   5   7
ATOM      7  C   UNL     1       2.769   6.230  19.211  0.00  0.00    +0.000 A 
ATOM      8  C   UNL     1       2.394   5.366  20.248  0.00  0.00    +0.000 A 
ATOM      9  C   UNL     1       2.938   4.086  20.341  0.00  0.00    +0.000 A 
ATOM     10  C   UNL     1       3.909   3.665  19.429  0.00  0.00    +0.000 A 
ATOM     11  C   UNL     1       4.378   4.505  18.411  0.00  0.00    +0.000 A 
ATOM     12  C   UNL     1       3.729   5.749  18.290  0.00  0.00    +0.000 A 
BRANCH  11  13
ATOM     13  N   UNL     1       5.408   4.121  17.561  0.00  0.00    +0.000 N 
ATOM     14  C   UNL     1       6.762   4.663  17.744  0.00  0.00    +0.000 C 
ATOM     15  C   UNL     1       7.180   5.104  16.345  0.00  0.00    +0.000 C 
ATOM     16  C   UNL     1       6.515   4.073  15.454  0.00  0.00    +0.000 C 
ATOM     17  C   UNL     1       5.165   3.854  16.134  0.00  0.00    +0.000 C 
ENDBRANCH  11  13
ENDBRANCH   5   7
BRANCH   1  20
ATOM     18  O   UNL     1      -0.852   8.410  21.970  0.00  0.00    +0.000 OA
ATOM     19  C   UNL     1      -0.401   9.549  22.070  0.00  0.00    +0.000 C 
ATOM     20  N   UNL     1       0.495  10.158  21.202  0.00  0.00    +0.000 N 
ATOM     21  H   UNL     1       0.642  11.153  21.320  0.00  0.00    +0.000 HD
BRANCH  19  22
ATOM     22  C   UNL     1      -0.848  10.448  23.212  0.00  0.00    +0.000 C 
BRANCH  22  23
ATOM     23  C   UNL     1      -1.808  11.535  22.786  0.00  0.00    +0.000 A 
ATOM     24  C   UNL     1      -1.703  12.127  21.516  0.00  0.00    +0.000 A 
ATOM     25  C   UNL     1      -2.609  13.112  21.114  0.00  0.00    +0.000 A 
ATOM     26  C   UNL     1      -3.630  13.505  21.973  0.00  0.00    +0.000 A 
ATOM     27 CL   UNL     1      -4.747  14.717  21.481  0.00  0.00    +0.000 Cl
ATOM     28  C   UNL     1      -3.757  12.917  23.230  0.00  0.00    +0.000 A 
ATOM     29  C   UNL     1      -2.851  11.933  23.634  0.00  0.00    +0.000 A 
ENDBRANCH  22  23
ENDBRANCH  19  22
ENDBRANCH   1  20
TORSDOF 5
ENDMDL
