MODEL 1
REMARK VINA RESULT:      -7.6      0.000      0.000
REMARK  Name = 
REMARK  10 active torsions:
REMARK  status: ('A' for Active; 'I' for Inactive)
REMARK    1  A    between atoms: C_1  and  O_2
REMARK    2  A    between atoms: O_2  and  C_3
REMARK    3  A    between atoms: C_6  and  N_7
REMARK    4  A    between atoms: C_8  and  C_10
REMARK    5  A    between atoms: C_10  and  N_11
REMARK    6  A    between atoms: C_13  and  C_14
REMARK    7  A    between atoms: C_15  and  C_16
REMARK    8  A    between atoms: C_16  and  C_18
REMARK    9  A    between atoms: C_19  and  O_20
REMARK   10  A    between atoms: N_30  and  C_31
REMARK                            x       y       z     vdW  Elec       q    Type
REMARK                         _______ _______ _______ _____ _____    ______ ____
ROOT
ATOM      1  C   UNL     1       0.734  10.462  21.159  0.00  0.00    +0.000 C 
ATOM      2  C   UNL     1       0.585  11.563  20.404  0.00  0.00    +0.000 C 
ENDROOT
BRANCH   1   5
ATOM      3  N   UNL     1       1.764   7.166  20.325  0.00  0.00    +0.000 N 
ATOM      4  C   UNL     1       1.330   8.019  21.301  0.00  0.00    +0.000 A 
ATOM      5  C   UNL     1       1.168   9.211  20.637  0.00  0.00    +0.000 A 
ATOM      6  N   UNL     1       1.516   9.058  19.323  0.00  0.00    +0.000 NA
ATOM      7  N   UNL     1       1.875   7.795  19.138  0.00  0.00    +0.000 NA
BRANCH   3   8
ATOM      8  C   UNL     1       1.992   5.740  20.408  0.00  0.00    +0.000 C 
BRANCH   8  10
ATOM      9  N   UNL     1       4.045   5.849  19.023  0.00  0.00    +0.000 N 
ATOM     10  C   UNL     1       2.886   5.156  19.334  0.00  0.00    +0.000 C 
ATOM     11  O   UNL     1       2.508   4.128  18.766  0.00  0.00    +0.000 OA
ATOM     12  H   UNL     1       4.329   6.597  19.654  0.00  0.00    +0.000 HD
BRANCH   9  16
ATOM     13  C   UNL     1       6.802   4.921  15.943  0.00  0.00    +0.000 A 
ATOM     14  C   UNL     1       7.053   4.506  17.249  0.00  0.00    +0.000 A 
ATOM     15  C   UNL     1       6.142   4.781  18.273  0.00  0.00    +0.000 A 
ATOM     16  C   UNL     1       4.971   5.492  18.013  0.00  0.00    +0.000 A 
ATOM     17  C   UNL     1       4.701   5.878  16.694  0.00  0.00    +0.000 A 
ATOM     18  C   UNL     1       5.623   5.610  15.666  0.00  0.00    +0.000 A 
BRANCH  13  20
ATOM     19  C   UNL     1       7.521   4.924  13.687  0.00  0.00    +0.000 C 
ATOM     20  O   UNL     1       7.793   4.626  15.050  0.00  0.00    +0.000 OA
ENDBRANCH  13  20
ENDBRANCH   9  16
ENDBRANCH   8  10
ENDBRANCH   3   8
ENDBRANCH   1   5
BRANCH   2  21
ATOM     21  C   UNL     1       0.198  12.867  20.990  0.00  0.00    +0.000 C 
ATOM     22  O   UNL     1      -0.543  12.922  21.972  0.00  0.00    +0.000 OA
BRANCH  21  23
ATOM     23  C   UNL     1       0.652  14.122  20.299  0.00  0.00    +0.000 C 
ATOM     24  C   UNL     1      -0.226  14.830  19.542  0.00  0.00    +0.000 C 
ATOM     25  C   UNL     1       0.141  16.066  18.811  0.00  0.00    +0.000 A 
ATOM     26  C   UNL     1      -0.803  17.057  18.501  0.00  0.00    +0.000 A 
ATOM     27  C   UNL     1      -0.433  18.197  17.778  0.00  0.00    +0.000 A 
ATOM     28  C   UNL     1       0.882  18.359  17.338  0.00  0.00    +0.000 A 
ATOM     29  C   UNL     1       1.838  17.396  17.644  0.00  0.00    +0.000 A 
ATOM     30  C   UNL     1       1.455  16.267  18.373  0.00  0.00    +0.000 A 
ATOM     31  S   UNL     1       2.658  15.111  18.923  0.00  0.00    +0.000 S 
ATOM     32  O   UNL     1       3.887  15.836  19.172  0.00  0.00    +0.000 OA
ATOM     33  O   UNL     1       2.616  13.952  18.059  0.00  0.00    +0.000 OA
ATOM     34  N   UNL     1       1.976  14.689  20.424  0.00  0.00    +0.000 N 
ATOM     35  C   UNL     1       2.918  14.403  21.510  0.00  0.00    +0.000 C 
BRANCH  24  36
ATOM     36  O   UNL     1      -1.542  14.446  19.334  0.00  0.00    +0.000 OA
ATOM     37  H   UNL     1      -1.966  14.261  20.200  0.00  0.00    +0.000 HD
ENDBRANCH  24  36
ENDBRANCH  21  23
ENDBRANCH   2  21
TORSDOF 8
ENDMDL
MODEL 2
REMARK VINA RESULT:      -7.6      3.733      5.031
REMARK  Name = 
REMARK  10 active torsions:
REMARK  status: ('A' for Active; 'I' for Inactive)
REMARK    1  A    between atoms: C_1  and  O_2
REMARK    2  A    between atoms: O_2  and  C_3
REMARK    3  A    between atoms: C_6  and  N_7
REMARK    4  A    between atoms: C_8  and  C_10
REMARK    5  A    between atoms: C_10  and  N_11
REMARK    6  A    between atoms: C_13  and  C_14
REMARK    7  A    between atoms: C_15  and  C_16
REMARK    8  A    between atoms: C_16  and  C_18
REMARK    9  A    between atoms: C_19  and  O_20
REMARK   10  A    between atoms: N_30  and  C_31
REMARK                            x       y       z     vdW  Elec       q    Type
REMARK                         _______ _______ _______ _____ _____    ______ ____
ROOT
ATOM      1  C   UNL     1       0.105  11.068  20.374  0.00  0.00    +0.000 C 
ATOM      2  C   UNL     1      -1.093  11.404  19.868  0.00  0.00    +0.000 C 
ENDROOT
BRANCH   1   5
ATOM      3  N   UNL     1       1.634   7.872  20.119  0.00  0.00    +0.000 N 
ATOM      4  C   UNL     1       0.963   8.761  20.911  0.00  0.00    +0.000 A 
ATOM      5  C   UNL     1       0.758   9.838  20.081  0.00  0.00    +0.000 A 
ATOM      6  N   UNL     1       1.311   9.587  18.855  0.00  0.00    +0.000 NA
ATOM      7  N   UNL     1       1.842   8.373  18.885  0.00  0.00    +0.000 NA
BRANCH   3   8
ATOM      8  C   UNL     1       2.016   6.509  20.418  0.00  0.00    +0.000 C 
BRANCH   8  10
ATOM      9  N   UNL     1       4.061   6.370  19.022  0.00  0.00    +0.000 N 
ATOM     10  C   UNL     1       2.837   5.811  19.352  0.00  0.00    +0.000 C 
ATOM     11  O   UNL     1       2.349   4.818  18.807  0.00  0.00    +0.000 OA
ATOM     12  H   UNL     1       4.427   7.097  19.637  0.00  0.00    +0.000 HD
BRANCH   9  16
ATOM     13  C   UNL     1       6.675   5.087  15.946  0.00  0.00    +0.000 A 
ATOM     14  C   UNL     1       6.951   4.763  17.271  0.00  0.00    +0.000 A 
ATOM     15  C   UNL     1       6.087   5.157  18.297  0.00  0.00    +0.000 A 
ATOM     16  C   UNL     1       4.938   5.896  18.016  0.00  0.00    +0.000 A 
ATOM     17  C   UNL     1       4.641   6.190  16.680  0.00  0.00    +0.000 A 
ATOM     18  C   UNL     1       5.516   5.804  15.650  0.00  0.00    +0.000 A 
BRANCH  13  20
ATOM     19  C   UNL     1       7.275   4.784  13.675  0.00  0.00    +0.000 C 
ATOM     20  O   UNL     1       7.623   4.681  15.049  0.00  0.00    +0.000 OA
ENDBRANCH  13  20
ENDBRANCH   9  16
ENDBRANCH   8  10
ENDBRANCH   3   8
ENDBRANCH   1   5
BRANCH   2  21
ATOM     21  C   UNL     1      -1.714  12.722  20.138  0.00  0.00    +0.000 C 
ATOM     22  O   UNL     1      -1.200  13.759  19.717  0.00  0.00    +0.000 OA
BRANCH  21  23
ATOM     23  C   UNL     1      -2.929  12.770  21.020  0.00  0.00    +0.000 C 
ATOM     24  C   UNL     1      -4.166  12.651  20.472  0.00  0.00    +0.000 C 
ATOM     25  C   UNL     1      -5.417  12.706  21.264  0.00  0.00    +0.000 A 
ATOM     26  C   UNL     1      -6.596  12.072  20.841  0.00  0.00    +0.000 A 
ATOM     27  C   UNL     1      -7.772  12.171  21.594  0.00  0.00    +0.000 A 
ATOM     28  C   UNL     1      -7.796  12.918  22.773  0.00  0.00    +0.000 A 
ATOM     29  C   UNL     1      -6.637  13.545  23.218  0.00  0.00    +0.000 A 
ATOM     30  C   UNL     1      -5.468  13.430  22.460  0.00  0.00    +0.000 A 
ATOM     31  S   UNL     1      -3.946  14.063  23.067  0.00  0.00    +0.000 S 
ATOM     32  O   UNL     1      -3.967  13.957  24.511  0.00  0.00    +0.000 OA
ATOM     33  O   UNL     1      -3.663  15.313  22.397  0.00  0.00    +0.000 OA
ATOM     34  N   UNL     1      -2.888  12.876  22.461  0.00  0.00    +0.000 N 
ATOM     35  C   UNL     1      -1.731  12.547  23.299  0.00  0.00    +0.000 C 
BRANCH  24  36
ATOM     36  O   UNL     1      -4.391  12.515  19.109  0.00  0.00    +0.000 OA
ATOM     37  H   UNL     1      -5.248  12.937  18.881  0.00  0.00    +0.000 HD
ENDBRANCH  24  36
ENDBRANCH  21  23
ENDBRANCH   2  21
TORSDOF 8
ENDMDL
MODEL 3
REMARK VINA RESULT:      -7.5      3.706      4.988
REMARK  Name = 
REMARK  10 active torsions:
REMARK  status: ('A' for Active; 'I' for Inactive)
REMARK    1  A    between atoms: C_1  and  O_2
REMARK    2  A    between atoms: O_2  and  C_3
REMARK    3  A    between atoms: C_6  and  N_7
REMARK    4  A    between atoms: C_8  and  C_10
REMARK    5  A    between atoms: C_10  and  N_11
REMARK    6  A    between atoms: C_13  and  C_14
REMARK    7  A    between atoms: C_15  and  C_16
REMARK    8  A    between atoms: C_16  and  C_18
REMARK    9  A    between atoms: C_19  and  O_20
REMARK   10  A    between atoms: N_30  and  C_31
REMARK                            x       y       z     vdW  Elec       q    Type
REMARK                         _______ _______ _______ _____ _____    ______ ____
ROOT
ATOM      1  C   UNL     1       0.151  11.189  19.944  0.00  0.00    +0.000 C 
ATOM      2  C   UNL     1      -0.468  11.453  21.107  0.00  0.00    +0.000 C 
ENDROOT
BRANCH   1   5
ATOM      3  N   UNL     1       1.787   8.040  19.790  0.00  0.00    +0.000 N 
ATOM      4  C   UNL     1       1.057   8.916  20.543  0.00  0.00    +0.000 A 
ATOM      5  C   UNL     1       0.852   9.977  19.693  0.00  0.00    +0.000 A 
ATOM      6  N   UNL     1       1.463   9.730  18.494  0.00  0.00    +0.000 NA
ATOM      7  N   UNL     1       2.030   8.534  18.559  0.00  0.00    +0.000 NA
BRANCH   3   8
ATOM      8  C   UNL     1       2.199   6.693  20.120  0.00  0.00    +0.000 C 
BRANCH   8  10
ATOM      9  N   UNL     1       4.149   6.428  18.612  0.00  0.00    +0.000 N 
ATOM     10  C   UNL     1       2.918   5.940  19.019  0.00  0.00    +0.000 C 
ATOM     11  O   UNL     1       2.346   4.969  18.517  0.00  0.00    +0.000 OA
ATOM     12  H   UNL     1       4.589   7.139  19.195  0.00  0.00    +0.000 HD
BRANCH   9  16
ATOM     13  C   UNL     1       6.502   4.701  15.542  0.00  0.00    +0.000 A 
ATOM     14  C   UNL     1       5.532   5.648  15.224  0.00  0.00    +0.000 A 
ATOM     15  C   UNL     1       4.763   6.247  16.226  0.00  0.00    +0.000 A 
ATOM     16  C   UNL     1       4.940   5.896  17.565  0.00  0.00    +0.000 A 
ATOM     17  C   UNL     1       5.941   4.971  17.888  0.00  0.00    +0.000 A 
ATOM     18  C   UNL     1       6.705   4.361  16.878  0.00  0.00    +0.000 A 
BRANCH  13  20
ATOM     19  C   UNL     1       6.345   3.870  13.330  0.00  0.00    +0.000 C 
ATOM     20  O   UNL     1       7.149   4.162  14.465  0.00  0.00    +0.000 OA
ENDBRANCH  13  20
ENDBRANCH   9  16
ENDBRANCH   8  10
ENDBRANCH   3   8
ENDBRANCH   1   5
BRANCH   2  21
ATOM     21  C   UNL     1      -1.249  12.695  21.312  0.00  0.00    +0.000 C 
ATOM     22  O   UNL     1      -0.691  13.743  21.643  0.00  0.00    +0.000 OA
BRANCH  21  23
ATOM     23  C   UNL     1      -2.746  12.622  21.205  0.00  0.00    +0.000 C 
ATOM     24  C   UNL     1      -3.331  12.545  19.983  0.00  0.00    +0.000 C 
ATOM     25  C   UNL     1      -4.799  12.489  19.784  0.00  0.00    +0.000 A 
ATOM     26  C   UNL     1      -5.376  11.888  18.655  0.00  0.00    +0.000 A 
ATOM     27  C   UNL     1      -6.765  11.882  18.478  0.00  0.00    +0.000 A 
ATOM     28  C   UNL     1      -7.600  12.489  19.418  0.00  0.00    +0.000 A 
ATOM     29  C   UNL     1      -7.052  13.080  20.551  0.00  0.00    +0.000 A 
ATOM     30  C   UNL     1      -5.664  13.072  20.717  0.00  0.00    +0.000 A 
ATOM     31  S   UNL     1      -4.941  13.657  22.208  0.00  0.00    +0.000 S 
ATOM     32  O   UNL     1      -5.870  13.387  23.286  0.00  0.00    +0.000 OA
ATOM     33  O   UNL     1      -4.404  14.979  21.975  0.00  0.00    +0.000 OA
ATOM     34  N   UNL     1      -3.643  12.565  22.337  0.00  0.00    +0.000 N 
ATOM     35  C   UNL     1      -3.264  12.161  23.695  0.00  0.00    +0.000 C 
BRANCH  24  36
ATOM     36  O   UNL     1      -2.622  12.562  18.790  0.00  0.00    +0.000 OA
ATOM     37  H   UNL     1      -3.250  12.476  18.041  0.00  0.00    +0.000 HD
ENDBRANCH  24  36
ENDBRANCH  21  23
ENDBRANCH   2  21
TORSDOF 8
ENDMDL
MODEL 4
REMARK VINA RESULT:      -7.3      3.828      5.170
REMARK  Name = 
REMARK  10 active torsions:
REMARK  status: ('A' for Active; 'I' for Inactive)
REMARK    1  A    between atoms: C_1  and  O_2
REMARK    2  A    between atoms: O_2  and  C_3
REMARK    3  A    between atoms: C_6  and  N_7
REMARK    4  A    between atoms: C_8  and  C_10
REMARK    5  A    between atoms: C_10  and  N_11
REMARK    6  A    between atoms: C_13  and  C_14
REMARK    7  A    between atoms: C_15  and  C_16
REMARK    8  A    between atoms: C_16  and  C_18
REMARK    9  A    between atoms: C_19  and  O_20
REMARK   10  A    between atoms: N_30  and  C_31
REMARK                            x       y       z     vdW  Elec       q    Type
REMARK                         _______ _______ _______ _____ _____    ______ ____
ROOT
ATOM      1  C   UNL     1       0.205  11.078  19.349  0.00  0.00    +0.000 C 
ATOM      2  C   UNL     1      -0.928  11.192  20.062  0.00  0.00    +0.000 C 
ENDROOT
BRANCH   1   5
ATOM      3  N   UNL     1       1.911   7.968  19.546  0.00  0.00    +0.000 N 
ATOM      4  C   UNL     1       1.160   8.907  20.197  0.00  0.00    +0.000 A 
ATOM      5  C   UNL     1       0.934   9.861  19.234  0.00  0.00    +0.000 A 
ATOM      6  N   UNL     1       1.552   9.496  18.070  0.00  0.00    +0.000 NA
ATOM      7  N   UNL     1       2.145   8.327  18.268  0.00  0.00    +0.000 NA
BRANCH   3   8
ATOM      8  C   UNL     1       2.352   6.676  20.024  0.00  0.00    +0.000 C 
BRANCH   8  10
ATOM      9  N   UNL     1       3.438   6.233  17.840  0.00  0.00    +0.000 N 
ATOM     10  C   UNL     1       3.443   6.014  19.208  0.00  0.00    +0.000 C 
ATOM     11  O   UNL     1       4.241   5.282  19.799  0.00  0.00    +0.000 OA
ATOM     12  H   UNL     1       2.829   6.970  17.484  0.00  0.00    +0.000 HD
BRANCH   9  16
ATOM     13  C   UNL     1       6.022   4.408  15.023  0.00  0.00    +0.000 A 
ATOM     14  C   UNL     1       5.955   5.797  15.107  0.00  0.00    +0.000 A 
ATOM     15  C   UNL     1       5.127   6.416  16.047  0.00  0.00    +0.000 A 
ATOM     16  C   UNL     1       4.337   5.657  16.910  0.00  0.00    +0.000 A 
ATOM     17  C   UNL     1       4.432   4.261  16.852  0.00  0.00    +0.000 A 
ATOM     18  C   UNL     1       5.257   3.639  15.898  0.00  0.00    +0.000 A 
BRANCH  13  20
ATOM     19  C   UNL     1       6.189   3.487  12.848  0.00  0.00    +0.000 C 
ATOM     20  O   UNL     1       6.835   3.934  14.032  0.00  0.00    +0.000 OA
ENDBRANCH  13  20
ENDBRANCH   9  16
ENDBRANCH   8  10
ENDBRANCH   3   8
ENDBRANCH   1   5
BRANCH   2  21
ATOM     21  C   UNL     1      -1.701  12.456  20.106  0.00  0.00    +0.000 C 
ATOM     22  O   UNL     1      -1.308  13.455  19.503  0.00  0.00    +0.000 OA
BRANCH  21  23
ATOM     23  C   UNL     1      -2.919  12.516  20.984  0.00  0.00    +0.000 C 
ATOM     24  C   UNL     1      -4.152  12.598  20.421  0.00  0.00    +0.000 C 
ATOM     25  C   UNL     1      -5.404  12.682  21.210  0.00  0.00    +0.000 A 
ATOM     26  C   UNL     1      -6.635  12.234  20.704  0.00  0.00    +0.000 A 
ATOM     27  C   UNL     1      -7.806  12.358  21.460  0.00  0.00    +0.000 A 
ATOM     28  C   UNL     1      -7.772  12.945  22.727  0.00  0.00    +0.000 A 
ATOM     29  C   UNL     1      -6.562  13.384  23.253  0.00  0.00    +0.000 A 
ATOM     30  C   UNL     1      -5.400  13.247  22.489  0.00  0.00    +0.000 A 
ATOM     31  S   UNL     1      -3.830  13.633  23.178  0.00  0.00    +0.000 S 
ATOM     32  O   UNL     1      -3.886  13.345  24.596  0.00  0.00    +0.000 OA
ATOM     33  O   UNL     1      -3.409  14.923  22.677  0.00  0.00    +0.000 OA
ATOM     34  N   UNL     1      -2.890  12.431  22.426  0.00  0.00    +0.000 N 
ATOM     35  C   UNL     1      -1.788  11.877  23.218  0.00  0.00    +0.000 C 
BRANCH  24  36
ATOM     36  O   UNL     1      -4.367  12.664  19.052  0.00  0.00    +0.000 OA
ATOM     37  H   UNL     1      -5.121  13.268  18.873  0.00  0.00    +0.000 HD
ENDBRANCH  24  36
ENDBRANCH  21  23
ENDBRANCH   2  21
TORSDOF 8
ENDMDL
MODEL 5
REMARK VINA RESULT:      -7.3      3.964     11.526
REMARK  Name = 
REMARK  10 active torsions:
REMARK  status: ('A' for Active; 'I' for Inactive)
REMARK    1  A    between atoms: C_1  and  O_2
REMARK    2  A    between atoms: O_2  and  C_3
REMARK    3  A    between atoms: C_6  and  N_7
REMARK    4  A    between atoms: C_8  and  C_10
REMARK    5  A    between atoms: C_10  and  N_11
REMARK    6  A    between atoms: C_13  and  C_14
REMARK    7  A    between atoms: C_15  and  C_16
REMARK    8  A    between atoms: C_16  and  C_18
REMARK    9  A    between atoms: C_19  and  O_20
REMARK   10  A    between atoms: N_30  and  C_31
REMARK                            x       y       z     vdW  Elec       q    Type
REMARK                         _______ _______ _______ _____ _____    ______ ____
ROOT
ATOM      1  C   UNL     1       1.263   8.016  21.169  0.00  0.00    +0.000 C 
ATOM      2  C   UNL     1       1.740   7.320  20.123  0.00  0.00    +0.000 C 
ENDROOT
BRANCH   1   5
ATOM      3  N   UNL     1       0.387  11.393  20.506  0.00  0.00    +0.000 N 
ATOM      4  C   UNL     1       0.589  10.140  19.997  0.00  0.00    +0.000 A 
ATOM      5  C   UNL     1       0.935   9.398  21.101  0.00  0.00    +0.000 A 
ATOM      6  N   UNL     1       0.955  10.201  22.208  0.00  0.00    +0.000 NA
ATOM      7  N   UNL     1       0.609  11.425  21.835  0.00  0.00    +0.000 NA
BRANCH   3   8
ATOM      8  C   UNL     1      -0.109  12.572  19.829  0.00  0.00    +0.000 C 
BRANCH   8  10
ATOM      9  N   UNL     1      -2.373  12.351  20.814  0.00  0.00    +0.000 N 
ATOM     10  C   UNL     1      -1.347  13.201  20.435  0.00  0.00    +0.000 C 
ATOM     11  O   UNL     1      -1.391  14.431  20.509  0.00  0.00    +0.000 OA
ATOM     12  H   UNL     1      -2.169  11.352  20.846  0.00  0.00    +0.000 HD
BRANCH   9  16
ATOM     13  C   UNL     1      -6.041  13.635  22.501  0.00  0.00    +0.000 A 
ATOM     14  C   UNL     1      -5.880  13.620  21.118  0.00  0.00    +0.000 A 
ATOM     15  C   UNL     1      -4.686  13.176  20.543  0.00  0.00    +0.000 A 
ATOM     16  C   UNL     1      -3.624  12.754  21.343  0.00  0.00    +0.000 A 
ATOM     17  C   UNL     1      -3.798  12.735  22.732  0.00  0.00    +0.000 A 
ATOM     18  C   UNL     1      -4.995  13.193  23.310  0.00  0.00    +0.000 A 
BRANCH  13  20
ATOM     19  C   UNL     1      -7.674  13.706  24.214  0.00  0.00    +0.000 C 
ATOM     20  O   UNL     1      -7.238  14.135  22.931  0.00  0.00    +0.000 OA
ENDBRANCH  13  20
ENDBRANCH   9  16
ENDBRANCH   8  10
ENDBRANCH   3   8
ENDBRANCH   1   5
BRANCH   2  21
ATOM     21  C   UNL     1       2.006   5.865  20.208  0.00  0.00    +0.000 C 
ATOM     22  O   UNL     1       1.531   5.189  21.121  0.00  0.00    +0.000 OA
BRANCH  21  23
ATOM     23  C   UNL     1       2.950   5.254  19.210  0.00  0.00    +0.000 C 
ATOM     24  C   UNL     1       3.512   6.033  18.250  0.00  0.00    +0.000 C 
ATOM     25  C   UNL     1       4.437   5.511  17.216  0.00  0.00    +0.000 A 
ATOM     26  C   UNL     1       5.403   6.323  16.601  0.00  0.00    +0.000 A 
ATOM     27  C   UNL     1       6.238   5.810  15.603  0.00  0.00    +0.000 A 
ATOM     28  C   UNL     1       6.114   4.482  15.189  0.00  0.00    +0.000 A 
ATOM     29  C   UNL     1       5.172   3.655  15.792  0.00  0.00    +0.000 A 
ATOM     30  C   UNL     1       4.350   4.180  16.793  0.00  0.00    +0.000 A 
ATOM     31  S   UNL     1       3.265   3.133  17.695  0.00  0.00    +0.000 S 
ATOM     32  O   UNL     1       3.880   1.825  17.780  0.00  0.00    +0.000 OA
ATOM     33  O   UNL     1       1.921   3.314  17.192  0.00  0.00    +0.000 OA
ATOM     34  N   UNL     1       3.369   3.871  19.225  0.00  0.00    +0.000 N 
ATOM     35  C   UNL     1       3.296   2.978  20.385  0.00  0.00    +0.000 C 
BRANCH  24  36
ATOM     36  O   UNL     1       3.242   7.386  18.104  0.00  0.00    +0.000 OA
ATOM     37  H   UNL     1       4.011   7.824  17.679  0.00  0.00    +0.000 HD
ENDBRANCH  24  36
ENDBRANCH  21  23
ENDBRANCH   2  21
TORSDOF 8
ENDMDL
MODEL 6
REMARK VINA RESULT:      -7.2      1.065      1.552
REMARK  Name = 
REMARK  10 active torsions:
REMARK  status: ('A' for Active; 'I' for Inactive)
REMARK    1  A    between atoms: C_1  and  O_2
REMARK    2  A    between atoms: O_2  and  C_3
REMARK    3  A    between atoms: C_6  and  N_7
REMARK    4  A    between atoms: C_8  and  C_10
REMARK    5  A    between atoms: C_10  and  N_11
REMARK    6  A    between atoms: C_13  and  C_14
REMARK    7  A    between atoms: C_15  and  C_16
REMARK    8  A    between atoms: C_16  and  C_18
REMARK    9  A    between atoms: C_19  and  O_20
REMARK   10  A    between atoms: N_30  and  C_31
REMARK                            x       y       z     vdW  Elec       q    Type
REMARK                         _______ _______ _______ _____ _____    ______ ____
ROOT
ATOM      1  C   UNL     1       0.286  10.047  21.507  0.00  0.00    +0.000 C 
ATOM      2  C   UNL     1       0.564  11.308  21.135  0.00  0.00    +0.000 C 
ENDROOT
BRANCH   1   5
ATOM      3  N   UNL     1       1.697   6.962  20.455  0.00  0.00    +0.000 N 
ATOM      4  C   UNL     1       1.044   7.646  21.442  0.00  0.00    +0.000 A 
ATOM      5  C   UNL     1       0.897   8.907  20.915  0.00  0.00    +0.000 A 
ATOM      6  N   UNL     1       1.465   8.955  19.671  0.00  0.00    +0.000 NA
ATOM      7  N   UNL     1       1.948   7.753  19.393  0.00  0.00    +0.000 NA
BRANCH   3   8
ATOM      8  C   UNL     1       2.022   5.553  20.398  0.00  0.00    +0.000 C 
BRANCH   8  10
ATOM      9  N   UNL     1       4.092   5.834  19.063  0.00  0.00    +0.000 N 
ATOM     10  C   UNL     1       2.911   5.133  19.245  0.00  0.00    +0.000 C 
ATOM     11  O   UNL     1       2.511   4.228  18.509  0.00  0.00    +0.000 OA
ATOM     12  H   UNL     1       4.390   6.456  19.814  0.00  0.00    +0.000 HD
BRANCH   9  16
ATOM     13  C   UNL     1       6.885   5.070  15.972  0.00  0.00    +0.000 A 
ATOM     14  C   UNL     1       5.719   5.778  15.694  0.00  0.00    +0.000 A 
ATOM     15  C   UNL     1       4.798   6.061  16.707  0.00  0.00    +0.000 A 
ATOM     16  C   UNL     1       5.019   5.626  18.013  0.00  0.00    +0.000 A 
ATOM     17  C   UNL     1       6.210   4.946  18.300  0.00  0.00    +0.000 A 
ATOM     18  C   UNL     1       7.130   4.652  17.279  0.00  0.00    +0.000 A 
BRANCH  13  20
ATOM     19  C   UNL     1       7.000   4.533  13.668  0.00  0.00    +0.000 C 
ATOM     20  O   UNL     1       7.675   4.823  14.884  0.00  0.00    +0.000 OA
ENDBRANCH  13  20
ENDBRANCH   9  16
ENDBRANCH   8  10
ENDBRANCH   3   8
ENDBRANCH   1   5
BRANCH   2  21
ATOM     21  C   UNL     1      -0.038  12.476  21.819  0.00  0.00    +0.000 C 
ATOM     22  O   UNL     1      -0.561  12.357  22.928  0.00  0.00    +0.000 OA
BRANCH  21  23
ATOM     23  C   UNL     1      -0.082  13.787  21.085  0.00  0.00    +0.000 C 
ATOM     24  C   UNL     1      -1.280  14.360  20.800  0.00  0.00    +0.000 C 
ATOM     25  C   UNL     1      -1.417  15.639  20.063  0.00  0.00    +0.000 A 
ATOM     26  C   UNL     1      -2.527  16.480  20.231  0.00  0.00    +0.000 A 
ATOM     27  C   UNL     1      -2.645  17.665  19.495  0.00  0.00    +0.000 A 
ATOM     28  C   UNL     1      -1.663  18.022  18.568  0.00  0.00    +0.000 A 
ATOM     29  C   UNL     1      -0.548  17.210  18.394  0.00  0.00    +0.000 A 
ATOM     30  C   UNL     1      -0.441  16.034  19.142  0.00  0.00    +0.000 A 
ATOM     31  S   UNL     1       1.024  15.067  19.076  0.00  0.00    +0.000 S 
ATOM     32  O   UNL     1       2.137  15.964  18.848  0.00  0.00    +0.000 OA
ATOM     33  O   UNL     1       0.784  13.917  18.233  0.00  0.00    +0.000 OA
ATOM     34  N   UNL     1       1.086  14.542  20.694  0.00  0.00    +0.000 N 
ATOM     35  C   UNL     1       2.422  14.396  21.280  0.00  0.00    +0.000 C 
BRANCH  24  36
ATOM     36  O   UNL     1      -2.501  13.786  21.123  0.00  0.00    +0.000 OA
ATOM     37  H   UNL     1      -2.473  12.827  20.913  0.00  0.00    +0.000 HD
ENDBRANCH  24  36
ENDBRANCH  21  23
ENDBRANCH   2  21
TORSDOF 8
ENDMDL
MODEL 7
REMARK VINA RESULT:      -7.2      7.188      7.831
REMARK  Name = 
REMARK  10 active torsions:
REMARK  status: ('A' for Active; 'I' for Inactive)
REMARK    1  A    between atoms: C_1  and  O_2
REMARK    2  A    between atoms: O_2  and  C_3
REMARK    3  A    between atoms: C_6  and  N_7
REMARK    4  A    between atoms: C_8  and  C_10
REMARK    5  A    between atoms: C_10  and  N_11
REMARK    6  A    between atoms: C_13  and  C_14
REMARK    7  A    between atoms: C_15  and  C_16
REMARK    8  A    between atoms: C_16  and  C_18
REMARK    9  A    between atoms: C_19  and  O_20
REMARK   10  A    between atoms: N_30  and  C_31
REMARK                            x       y       z     vdW  Elec       q    Type
REMARK                         _______ _______ _______ _____ _____    ______ ____
ROOT
ATOM      1  C   UNL     1       9.014  10.575  19.063  0.00  0.00    +0.000 C 
ATOM      2  C   UNL     1       9.334  10.747  20.357  0.00  0.00    +0.000 C 
ENDROOT
BRANCH   1   5
ATOM      3  N   UNL     1       7.890   7.317  18.202  0.00  0.00    +0.000 N 
ATOM      4  C   UNL     1       8.441   8.124  19.158  0.00  0.00    +0.000 A 
ATOM      5  C   UNL     1       8.515   9.349  18.539  0.00  0.00    +0.000 A 
ATOM      6  N   UNL     1       8.042   9.249  17.260  0.00  0.00    +0.000 NA
ATOM      7  N   UNL     1       7.653   7.997  17.063  0.00  0.00    +0.000 NA
BRANCH   3   8
ATOM      8  C   UNL     1       7.467   5.939  18.320  0.00  0.00    +0.000 C 
BRANCH   8  10
ATOM      9  N   UNL     1       6.742   5.557  15.980  0.00  0.00    +0.000 N 
ATOM     10  C   UNL     1       7.520   5.126  17.042  0.00  0.00    +0.000 C 
ATOM     11  O   UNL     1       8.213   4.105  17.038  0.00  0.00    +0.000 OA
ATOM     12  H   UNL     1       6.332   6.488  16.045  0.00  0.00    +0.000 HD
BRANCH   9  16
ATOM     13  C   UNL     1       6.520   3.573  12.243  0.00  0.00    +0.000 A 
ATOM     14  C   UNL     1       5.583   3.294  13.235  0.00  0.00    +0.000 A 
ATOM     15  C   UNL     1       5.626   3.957  14.465  0.00  0.00    +0.000 A 
ATOM     16  C   UNL     1       6.618   4.900  14.731  0.00  0.00    +0.000 A 
ATOM     17  C   UNL     1       7.538   5.208  13.721  0.00  0.00    +0.000 A 
ATOM     18  C   UNL     1       7.501   4.532  12.489  0.00  0.00    +0.000 A 
BRANCH  13  20
ATOM     19  C   UNL     1       5.638   1.623  11.229  0.00  0.00    +0.000 C 
ATOM     20  O   UNL     1       6.391   2.823  11.108  0.00  0.00    +0.000 OA
ENDBRANCH  13  20
ENDBRANCH   9  16
ENDBRANCH   8  10
ENDBRANCH   3   8
ENDBRANCH   1   5
BRANCH   2  21
ATOM     21  C   UNL     1       9.786  12.056  20.883  0.00  0.00    +0.000 C 
ATOM     22  O   UNL     1       9.695  12.317  22.084  0.00  0.00    +0.000 OA
BRANCH  21  23
ATOM     23  C   UNL     1      10.263  13.091  19.904  0.00  0.00    +0.000 C 
ATOM     24  C   UNL     1       9.734  14.342  19.935  0.00  0.00    +0.000 C 
ATOM     25  C   UNL     1      10.132  15.417  18.995  0.00  0.00    +0.000 A 
ATOM     26  C   UNL     1      10.027  16.776  19.330  0.00  0.00    +0.000 A 
ATOM     27  C   UNL     1      10.378  17.769  18.408  0.00  0.00    +0.000 A 
ATOM     28  C   UNL     1      10.824  17.423  17.131  0.00  0.00    +0.000 A 
ATOM     29  C   UNL     1      10.947  16.083  16.780  0.00  0.00    +0.000 A 
ATOM     30  C   UNL     1      10.600  15.103  17.715  0.00  0.00    +0.000 A 
ATOM     31  S   UNL     1      10.897  13.404  17.375  0.00  0.00    +0.000 S 
ATOM     32  O   UNL     1      12.075  13.320  16.538  0.00  0.00    +0.000 OA
ATOM     33  O   UNL     1       9.647  12.781  17.002  0.00  0.00    +0.000 OA
ATOM     34  N   UNL     1      11.315  12.876  18.938  0.00  0.00    +0.000 N 
ATOM     35  C   UNL     1      12.333  11.824  19.018  0.00  0.00    +0.000 C 
BRANCH  24  36
ATOM     36  O   UNL     1       8.733  14.731  20.813  0.00  0.00    +0.000 OA
ATOM     37  H   UNL     1       7.899  14.863  20.312  0.00  0.00    +0.000 HD
ENDBRANCH  24  36
ENDBRANCH  21  23
ENDBRANCH   2  21
TORSDOF 8
ENDMDL
MODEL 8
REMARK VINA RESULT:      -7.2      5.762      7.974
REMARK  Name = 
REMARK  10 active torsions:
REMARK  status: ('A' for Active; 'I' for Inactive)
REMARK    1  A    between atoms: C_1  and  O_2
REMARK    2  A    between atoms: O_2  and  C_3
REMARK    3  A    between atoms: C_6  and  N_7
REMARK    4  A    between atoms: C_8  and  C_10
REMARK    5  A    between atoms: C_10  and  N_11
REMARK    6  A    between atoms: C_13  and  C_14
REMARK    7  A    between atoms: C_15  and  C_16
REMARK    8  A    between atoms: C_16  and  C_18
REMARK    9  A    between atoms: C_19  and  O_20
REMARK   10  A    between atoms: N_30  and  C_31
REMARK                            x       y       z     vdW  Elec       q    Type
REMARK                         _______ _______ _______ _____ _____    ______ ____
ROOT
ATOM      1  C   UNL     1       9.129   9.442  19.028  0.00  0.00    +0.000 C 
ATOM      2  C   UNL     1       9.186  10.675  18.495  0.00  0.00    +0.000 C 
ENDROOT
BRANCH   1   5
ATOM      3  N   UNL     1       7.132   7.113  17.238  0.00  0.00    +0.000 N 
ATOM      4  C   UNL     1       7.556   8.408  17.356  0.00  0.00    +0.000 A 
ATOM      5  C   UNL     1       8.399   8.372  18.441  0.00  0.00    +0.000 A 
ATOM      6  N   UNL     1       8.445   7.102  18.946  0.00  0.00    +0.000 NA
ATOM      7  N   UNL     1       7.669   6.332  18.196  0.00  0.00    +0.000 NA
BRANCH   3   8
ATOM      8  C   UNL     1       6.316   6.523  16.200  0.00  0.00    +0.000 C 
BRANCH   8  10
ATOM      9  N   UNL     1       4.775   5.692  17.955  0.00  0.00    +0.000 N 
ATOM     10  C   UNL     1       5.274   5.530  16.672  0.00  0.00    +0.000 C 
ATOM     11  O   UNL     1       4.966   4.611  15.910  0.00  0.00    +0.000 OA
ATOM     12  H   UNL     1       4.986   6.567  18.435  0.00  0.00    +0.000 HD
BRANCH   9  16
ATOM     13  C   UNL     1       2.099   3.070  19.931  0.00  0.00    +0.000 A 
ATOM     14  C   UNL     1       1.751   4.405  19.743  0.00  0.00    +0.000 A 
ATOM     15  C   UNL     1       2.611   5.279  19.072  0.00  0.00    +0.000 A 
ATOM     16  C   UNL     1       3.842   4.836  18.590  0.00  0.00    +0.000 A 
ATOM     17  C   UNL     1       4.176   3.485  18.746  0.00  0.00    +0.000 A 
ATOM     18  C   UNL     1       3.317   2.610  19.432  0.00  0.00    +0.000 A 
BRANCH  13  20
ATOM     19  C   UNL     1       1.203   2.516  22.052  0.00  0.00    +0.000 C 
ATOM     20  O   UNL     1       1.190   2.337  20.642  0.00  0.00    +0.000 OA
ENDBRANCH  13  20
ENDBRANCH   9  16
ENDBRANCH   8  10
ENDBRANCH   3   8
ENDBRANCH   1   5
BRANCH   2  21
ATOM     21  C   UNL     1      10.012  11.749  19.095  0.00  0.00    +0.000 C 
ATOM     22  O   UNL     1      10.769  11.510  20.036  0.00  0.00    +0.000 OA
BRANCH  21  23
ATOM     23  C   UNL     1       9.828  13.153  18.592  0.00  0.00    +0.000 C 
ATOM     24  C   UNL     1      10.847  14.045  18.695  0.00  0.00    +0.000 C 
ATOM     25  C   UNL     1      10.745  15.453  18.244  0.00  0.00    +0.000 A 
ATOM     26  C   UNL     1      11.872  16.191  17.848  0.00  0.00    +0.000 A 
ATOM     27  C   UNL     1      11.749  17.531  17.460  0.00  0.00    +0.000 A 
ATOM     28  C   UNL     1      10.502  18.160  17.475  0.00  0.00    +0.000 A 
ATOM     29  C   UNL     1       9.371  17.445  17.852  0.00  0.00    +0.000 A 
ATOM     30  C   UNL     1       9.509  16.106  18.230  0.00  0.00    +0.000 A 
ATOM     31  S   UNL     1       8.090  15.121  18.551  0.00  0.00    +0.000 S 
ATOM     32  O   UNL     1       7.018  15.599  17.704  0.00  0.00    +0.000 OA
ATOM     33  O   UNL     1       7.932  14.989  19.983  0.00  0.00    +0.000 OA
ATOM     34  N   UNL     1       8.636  13.633  17.931  0.00  0.00    +0.000 N 
ATOM     35  C   UNL     1       7.626  12.786  17.290  0.00  0.00    +0.000 C 
BRANCH  24  36
ATOM     36  O   UNL     1      12.070  13.748  19.279  0.00  0.00    +0.000 OA
ATOM     37  H   UNL     1      12.503  13.029  18.770  0.00  0.00    +0.000 HD
ENDBRANCH  24  36
ENDBRANCH  21  23
ENDBRANCH   2  21
TORSDOF 8
ENDMDL
MODEL 9
REMARK VINA RESULT:      -7.2      3.478      4.453
REMARK  Name = 
REMARK  10 active torsions:
REMARK  status: ('A' for Active; 'I' for Inactive)
REMARK    1  A    between atoms: C_1  and  O_2
REMARK    2  A    between atoms: O_2  and  C_3
REMARK    3  A    between atoms: C_6  and  N_7
REMARK    4  A    between atoms: C_8  and  C_10
REMARK    5  A    between atoms: C_10  and  N_11
REMARK    6  A    between atoms: C_13  and  C_14
REMARK    7  A    between atoms: C_15  and  C_16
REMARK    8  A    between atoms: C_16  and  C_18
REMARK    9  A    between atoms: C_19  and  O_20
REMARK   10  A    between atoms: N_30  and  C_31
REMARK                            x       y       z     vdW  Elec       q    Type
REMARK                         _______ _______ _______ _____ _____    ______ ____
ROOT
ATOM      1  C   UNL     1       1.479   8.372  19.957  0.00  0.00    +0.000 C 
ATOM      2  C   UNL     1       1.617   9.045  18.802  0.00  0.00    +0.000 C 
ENDROOT
BRANCH   1   5
ATOM      3  N   UNL     1       2.911   5.123  20.053  0.00  0.00    +0.000 N 
ATOM      4  C   UNL     1       2.955   6.380  19.516  0.00  0.00    +0.000 A 
ATOM      5  C   UNL     1       1.912   7.028  20.133  0.00  0.00    +0.000 A 
ATOM      6  N   UNL     1       1.273   6.168  20.983  0.00  0.00    +0.000 NA
ATOM      7  N   UNL     1       1.898   5.001  20.934  0.00  0.00    +0.000 NA
BRANCH   3   8
ATOM      8  C   UNL     1       3.841   4.030  19.867  0.00  0.00    +0.000 C 
BRANCH   8  10
ATOM      9  N   UNL     1       4.404   4.468  17.493  0.00  0.00    +0.000 N 
ATOM     10  C   UNL     1       4.872   4.227  18.775  0.00  0.00    +0.000 C 
ATOM     11  O   UNL     1       6.062   4.114  19.078  0.00  0.00    +0.000 OA
ATOM     12  H   UNL     1       3.415   4.689  17.387  0.00  0.00    +0.000 HD
BRANCH   9  16
ATOM     13  C   UNL     1       6.935   4.931  14.127  0.00  0.00    +0.000 A 
ATOM     14  C   UNL     1       5.895   4.006  14.092  0.00  0.00    +0.000 A 
ATOM     15  C   UNL     1       5.035   3.857  15.184  0.00  0.00    +0.000 A 
ATOM     16  C   UNL     1       5.210   4.620  16.338  0.00  0.00    +0.000 A 
ATOM     17  C   UNL     1       6.232   5.577  16.359  0.00  0.00    +0.000 A 
ATOM     18  C   UNL     1       7.104   5.717  15.266  0.00  0.00    +0.000 A 
BRANCH  13  20
ATOM     19  C   UNL     1       7.265   4.183  11.905  0.00  0.00    +0.000 C 
ATOM     20  O   UNL     1       7.727   4.943  13.013  0.00  0.00    +0.000 OA
ENDBRANCH  13  20
ENDBRANCH   9  16
ENDBRANCH   8  10
ENDBRANCH   3   8
ENDBRANCH   1   5
BRANCH   2  21
ATOM     21  C   UNL     1       1.218  10.466  18.671  0.00  0.00    +0.000 C 
ATOM     22  O   UNL     1       2.039  11.323  18.342  0.00  0.00    +0.000 OA
BRANCH  21  23
ATOM     23  C   UNL     1      -0.186  10.848  19.047  0.00  0.00    +0.000 C 
ATOM     24  C   UNL     1      -1.197  10.652  18.163  0.00  0.00    +0.000 C 
ATOM     25  C   UNL     1      -2.606  11.018  18.443  0.00  0.00    +0.000 A 
ATOM     26  C   UNL     1      -3.683  10.363  17.825  0.00  0.00    +0.000 A 
ATOM     27  C   UNL     1      -5.002  10.755  18.083  0.00  0.00    +0.000 A 
ATOM     28  C   UNL     1      -5.268  11.817  18.951  0.00  0.00    +0.000 A 
ATOM     29  C   UNL     1      -4.217  12.472  19.584  0.00  0.00    +0.000 A 
ATOM     30  C   UNL     1      -2.906  12.064  19.322  0.00  0.00    +0.000 A 
ATOM     31  S   UNL     1      -1.563  12.750  20.224  0.00  0.00    +0.000 S 
ATOM     32  O   UNL     1      -2.041  13.075  21.551  0.00  0.00    +0.000 OA
ATOM     33  O   UNL     1      -0.896  13.725  19.391  0.00  0.00    +0.000 OA
ATOM     34  N   UNL     1      -0.570  11.372  20.338  0.00  0.00    +0.000 N 
ATOM     35  C   UNL     1       0.207  11.231  21.573  0.00  0.00    +0.000 C 
BRANCH  24  36
ATOM     36  O   UNL     1      -1.013  10.136  16.889  0.00  0.00    +0.000 OA
ATOM     37  H   UNL     1      -1.440  10.731  16.235  0.00  0.00    +0.000 HD
ENDBRANCH  24  36
ENDBRANCH  21  23
ENDBRANCH   2  21
TORSDOF 8
ENDMDL
