MODEL 1
REMARK VINA RESULT:      -8.2      0.000      0.000
REMARK  Name = 
REMARK  7 active torsions:
REMARK  status: ('A' for Active; 'I' for Inactive)
REMARK    1  A    between atoms: C_2  and  O_3
REMARK    2  A    between atoms: C_2  and  C_4
REMARK    3  A    between atoms: C_4  and  N_5
REMARK    4  A    between atoms: C_9  and  C_10
REMARK    5  A    between atoms: C_13  and  C_14
REMARK    6  A    between atoms: C_15  and  C_16
REMARK    7  A    between atoms: C_16  and  C_18
REMARK                            x       y       z     vdW  Elec       q    Type
REMARK                         _______ _______ _______ _____ _____    ______ ____
ROOT
ATOM      1  C   UNL     1       6.033   5.772  17.281  0.00  0.00    +0.000 A 
ATOM      2  C   UNL     1       5.934   7.095  16.837  0.00  0.00    +0.000 A 
ATOM      3  C   UNL     1       6.847   8.059  17.278  0.00  0.00    +0.000 A 
ATOM      4  C   UNL     1       7.862   7.722  18.184  0.00  0.00    +0.000 A 
ATOM      5  C   UNL     1       7.986   6.383  18.578  0.00  0.00    +0.000 A 
ATOM      6  C   UNL     1       7.077   5.416  18.137  0.00  0.00    +0.000 A 
ENDROOT
BRANCH   1  11
ATOM      7  N   UNL     1       2.610   4.017  19.470  0.00  0.00    +0.000 N 
ATOM      8  C   UNL     1       3.719   4.707  19.017  0.00  0.00    +0.000 C 
ATOM      9  O   UNL     1       4.310   5.564  19.662  0.00  0.00    +0.000 OA
ATOM     10  C   UNL     1       4.053   4.300  17.625  0.00  0.00    +0.000 C 
ATOM     11  C   UNL     1       5.048   4.775  16.861  0.00  0.00    +0.000 C 
ATOM     12  S   UNL     1       2.933   3.104  17.086  0.00  0.00    +0.000 S 
ATOM     13  C   UNL     1       2.062   3.088  18.616  0.00  0.00    +0.000 C 
ATOM     14  S   UNL     1       0.748   2.097  18.888  0.00  0.00    +0.000 S 
BRANCH   7  15
ATOM     15  C   UNL     1       2.132   4.311  20.819  0.00  0.00    +0.000 C 
BRANCH  15  17
ATOM     16  O   UNL     1       1.253   2.678  22.403  0.00  0.00    +0.000 OA
ATOM     17  C   UNL     1       2.177   3.072  21.705  0.00  0.00    +0.000 C 
BRANCH  17  18
ATOM     18  O   UNL     1       3.376   2.441  21.678  0.00  0.00    +0.000 OA
ATOM     19  H   UNL     1       3.777   2.258  22.551  0.00  0.00    +0.000 HD
ENDBRANCH  17  18
ENDBRANCH  15  17
ENDBRANCH   7  15
ENDBRANCH   1  11
BRANCH   4  20
ATOM     20  C   UNL     1       8.766   8.776  18.676  0.00  0.00    +0.000 C 
ATOM     21  C   UNL     1       8.766  10.031  18.200  0.00  0.00    +0.000 C 
BRANCH  21  22
ATOM     22  C   UNL     1       9.744  11.033  18.701  0.00  0.00    +0.000 C 
ATOM     23  O   UNL     1      10.846  11.185  18.184  0.00  0.00    +0.000 OA
BRANCH  22  24
ATOM     24  C   UNL     1       9.323  11.893  19.840  0.00  0.00    +0.000 A 
ATOM     25  C   UNL     1       9.246  11.320  21.118  0.00  0.00    +0.000 A 
ATOM     26  C   UNL     1       8.813  12.080  22.207  0.00  0.00    +0.000 A 
ATOM     27  C   UNL     1       8.444  13.412  22.022  0.00  0.00    +0.000 A 
ATOM     28  C   UNL     1       8.517  13.981  20.751  0.00  0.00    +0.000 A 
ATOM     29 CL   UNL     1       8.048  15.621  20.523  0.00  0.00    +0.000 Cl
ATOM     30  C   UNL     1       8.953  13.231  19.658  0.00  0.00    +0.000 A 
ENDBRANCH  22  24
ENDBRANCH  21  22
ENDBRANCH   4  20
TORSDOF 7
ENDMDL
MODEL 2
REMARK VINA RESULT:      -8.2      0.685      1.272
REMARK  Name = 
REMARK  7 active torsions:
REMARK  status: ('A' for Active; 'I' for Inactive)
REMARK    1  A    between atoms: C_2  and  O_3
REMARK    2  A    between atoms: C_2  and  C_4
REMARK    3  A    between atoms: C_4  and  N_5
REMARK    4  A    between atoms: C_9  and  C_10
REMARK    5  A    between atoms: C_13  and  C_14
REMARK    6  A    between atoms: C_15  and  C_16
REMARK    7  A    between atoms: C_16  and  C_18
REMARK                            x       y       z     vdW  Elec       q    Type
REMARK                         _______ _______ _______ _____ _____    ______ ____
ROOT
ATOM      1  C   UNL     1       6.054   5.871  17.408  0.00  0.00    +0.000 A 
ATOM      2  C   UNL     1       7.112   5.534  18.258  0.00  0.00    +0.000 A 
ATOM      3  C   UNL     1       8.033   6.508  18.660  0.00  0.00    +0.000 A 
ATOM      4  C   UNL     1       7.923   7.829  18.205  0.00  0.00    +0.000 A 
ATOM      5  C   UNL     1       6.826   8.167  17.400  0.00  0.00    +0.000 A 
ATOM      6  C   UNL     1       5.903   7.196  16.998  0.00  0.00    +0.000 A 
ENDROOT
BRANCH   1  11
ATOM      7  N   UNL     1       2.580   4.023  19.434  0.00  0.00    +0.000 N 
ATOM      8  C   UNL     1       3.689   4.744  19.033  0.00  0.00    +0.000 C 
ATOM      9  O   UNL     1       4.221   5.621  19.702  0.00  0.00    +0.000 OA
ATOM     10  C   UNL     1       4.103   4.341  17.661  0.00  0.00    +0.000 C 
ATOM     11  C   UNL     1       5.121   4.843  16.945  0.00  0.00    +0.000 C 
ATOM     12  S   UNL     1       3.048   3.110  17.074  0.00  0.00    +0.000 S 
ATOM     13  C   UNL     1       2.102   3.074  18.558  0.00  0.00    +0.000 C 
ATOM     14  S   UNL     1       0.807   2.045  18.771  0.00  0.00    +0.000 S 
BRANCH   7  15
ATOM     15  C   UNL     1       2.027   4.307  20.756  0.00  0.00    +0.000 C 
BRANCH  15  17
ATOM     16  O   UNL     1       3.205   2.481  21.863  0.00  0.00    +0.000 OA
ATOM     17  C   UNL     1       2.171   3.109  21.687  0.00  0.00    +0.000 C 
BRANCH  17  18
ATOM     18  O   UNL     1       1.010   2.767  22.299  0.00  0.00    +0.000 OA
ATOM     19  H   UNL     1       1.080   2.559  23.251  0.00  0.00    +0.000 HD
ENDBRANCH  17  18
ENDBRANCH  15  17
ENDBRANCH   7  15
ENDBRANCH   1  11
BRANCH   4  20
ATOM     20  C   UNL     1       8.946   8.813  18.597  0.00  0.00    +0.000 C 
ATOM     21  C   UNL     1       8.778  10.140  18.484  0.00  0.00    +0.000 C 
BRANCH  21  22
ATOM     22  C   UNL     1       9.875  11.078  18.845  0.00  0.00    +0.000 C 
ATOM     23  O   UNL     1      10.866  11.225  18.138  0.00  0.00    +0.000 OA
BRANCH  22  24
ATOM     24  C   UNL     1       9.711  11.879  20.087  0.00  0.00    +0.000 A 
ATOM     25  C   UNL     1       8.982  11.326  21.150  0.00  0.00    +0.000 A 
ATOM     26  C   UNL     1       8.768  12.062  22.317  0.00  0.00    +0.000 A 
ATOM     27  C   UNL     1       9.270  13.359  22.424  0.00  0.00    +0.000 A 
ATOM     28  C   UNL     1       9.992  13.911  21.366  0.00  0.00    +0.000 A 
ATOM     29 CL   UNL     1      10.599  15.516  21.495  0.00  0.00    +0.000 Cl
ATOM     30  C   UNL     1      10.215  13.182  20.198  0.00  0.00    +0.000 A 
ENDBRANCH  22  24
ENDBRANCH  21  22
ENDBRANCH   4  20
TORSDOF 7
ENDMDL
MODEL 3
REMARK VINA RESULT:      -8.1      1.044      1.602
REMARK  Name = 
REMARK  7 active torsions:
REMARK  status: ('A' for Active; 'I' for Inactive)
REMARK    1  A    between atoms: C_2  and  O_3
REMARK    2  A    between atoms: C_2  and  C_4
REMARK    3  A    between atoms: C_4  and  N_5
REMARK    4  A    between atoms: C_9  and  C_10
REMARK    5  A    between atoms: C_13  and  C_14
REMARK    6  A    between atoms: C_15  and  C_16
REMARK    7  A    between atoms: C_16  and  C_18
REMARK                            x       y       z     vdW  Elec       q    Type
REMARK                         _______ _______ _______ _____ _____    ______ ____
ROOT
ATOM      1  C   UNL     1       5.991   5.906  17.353  0.00  0.00    +0.000 A 
ATOM      2  C   UNL     1       7.075   5.547  18.160  0.00  0.00    +0.000 A 
ATOM      3  C   UNL     1       8.017   6.507  18.547  0.00  0.00    +0.000 A 
ATOM      4  C   UNL     1       7.902   7.837  18.119  0.00  0.00    +0.000 A 
ATOM      5  C   UNL     1       6.781   8.197  17.358  0.00  0.00    +0.000 A 
ATOM      6  C   UNL     1       5.837   7.240  16.972  0.00  0.00    +0.000 A 
ENDROOT
BRANCH   1  11
ATOM      7  N   UNL     1       2.578   4.044  19.467  0.00  0.00    +0.000 N 
ATOM      8  C   UNL     1       3.678   4.765  19.040  0.00  0.00    +0.000 C 
ATOM      9  O   UNL     1       4.239   5.625  19.706  0.00  0.00    +0.000 OA
ATOM     10  C   UNL     1       4.040   4.386  17.647  0.00  0.00    +0.000 C 
ATOM     11  C   UNL     1       5.035   4.894  16.905  0.00  0.00    +0.000 C 
ATOM     12  S   UNL     1       2.956   3.173  17.075  0.00  0.00    +0.000 S 
ATOM     13  C   UNL     1       2.063   3.115  18.591  0.00  0.00    +0.000 C 
ATOM     14  S   UNL     1       0.768   2.091  18.830  0.00  0.00    +0.000 S 
BRANCH   7  15
ATOM     15  C   UNL     1       2.075   4.306  20.813  0.00  0.00    +0.000 C 
BRANCH  15  17
ATOM     16  O   UNL     1       1.230   2.650  22.390  0.00  0.00    +0.000 OA
ATOM     17  C   UNL     1       2.140   3.058  21.683  0.00  0.00    +0.000 C 
BRANCH  17  18
ATOM     18  O   UNL     1       3.342   2.433  21.631  0.00  0.00    +0.000 OA
ATOM     19  H   UNL     1       3.367   1.607  21.111  0.00  0.00    +0.000 HD
ENDBRANCH  17  18
ENDBRANCH  15  17
ENDBRANCH   7  15
ENDBRANCH   1  11
BRANCH   4  20
ATOM     20  C   UNL     1       8.946   8.806  18.493  0.00  0.00    +0.000 C 
ATOM     21  C   UNL     1       8.691  10.090  18.791  0.00  0.00    +0.000 C 
BRANCH  21  22
ATOM     22  C   UNL     1       9.799  11.031  19.105  0.00  0.00    +0.000 C 
ATOM     23  O   UNL     1      10.830  11.068  18.443  0.00  0.00    +0.000 OA
BRANCH  22  24
ATOM     24  C   UNL     1       9.598  11.974  20.239  0.00  0.00    +0.000 A 
ATOM     25  C   UNL     1      10.065  13.289  20.106  0.00  0.00    +0.000 A 
ATOM     26  C   UNL     1       9.937  14.193  21.162  0.00  0.00    +0.000 A 
ATOM     27  C   UNL     1       9.351  13.785  22.360  0.00  0.00    +0.000 A 
ATOM     28  C   UNL     1       8.890  12.476  22.494  0.00  0.00    +0.000 A 
ATOM     29 CL   UNL     1       8.179  11.971  23.978  0.00  0.00    +0.000 Cl
ATOM     30  C   UNL     1       9.009  11.567  21.443  0.00  0.00    +0.000 A 
ENDBRANCH  22  24
ENDBRANCH  21  22
ENDBRANCH   4  20
TORSDOF 7
ENDMDL
MODEL 4
REMARK VINA RESULT:      -8.1      6.768      9.812
REMARK  Name = 
REMARK  7 active torsions:
REMARK  status: ('A' for Active; 'I' for Inactive)
REMARK    1  A    between atoms: C_2  and  O_3
REMARK    2  A    between atoms: C_2  and  C_4
REMARK    3  A    between atoms: C_4  and  N_5
REMARK    4  A    between atoms: C_9  and  C_10
REMARK    5  A    between atoms: C_13  and  C_14
REMARK    6  A    between atoms: C_15  and  C_16
REMARK    7  A    between atoms: C_16  and  C_18
REMARK                            x       y       z     vdW  Elec       q    Type
REMARK                         _______ _______ _______ _____ _____    ______ ____
ROOT
ATOM      1  C   UNL     1       0.486  10.104  19.313  0.00  0.00    +0.000 A 
ATOM      2  C   UNL     1       0.883   9.321  20.402  0.00  0.00    +0.000 A 
ATOM      3  C   UNL     1       1.684   8.191  20.206  0.00  0.00    +0.000 A 
ATOM      4  C   UNL     1       2.086   7.812  18.917  0.00  0.00    +0.000 A 
ATOM      5  C   UNL     1       1.730   8.636  17.840  0.00  0.00    +0.000 A 
ATOM      6  C   UNL     1       0.931   9.768  18.033  0.00  0.00    +0.000 A 
ENDROOT
BRANCH   1  11
ATOM      7  N   UNL     1       1.425  14.419  19.607  0.00  0.00    +0.000 N 
ATOM      8  C   UNL     1       1.402  13.042  19.483  0.00  0.00    +0.000 C 
ATOM      9  O   UNL     1       2.389  12.353  19.260  0.00  0.00    +0.000 OA
ATOM     10  C   UNL     1       0.009  12.531  19.603  0.00  0.00    +0.000 C 
ATOM     11  C   UNL     1      -0.394  11.256  19.512  0.00  0.00    +0.000 C 
ATOM     12  S   UNL     1      -1.072  13.850  19.863  0.00  0.00    +0.000 S 
ATOM     13  C   UNL     1       0.222  15.043  19.852  0.00  0.00    +0.000 C 
ATOM     14  S   UNL     1      -0.059  16.672  20.068  0.00  0.00    +0.000 S 
BRANCH   7  15
ATOM     15  C   UNL     1       2.717  15.089  19.495  0.00  0.00    +0.000 C 
BRANCH  15  17
ATOM     16  O   UNL     1       2.675  16.623  17.599  0.00  0.00    +0.000 OA
ATOM     17  C   UNL     1       2.988  15.536  18.064  0.00  0.00    +0.000 C 
BRANCH  17  18
ATOM     18  O   UNL     1       3.596  14.584  17.314  0.00  0.00    +0.000 OA
ATOM     19  H   UNL     1       3.150  14.359  16.474  0.00  0.00    +0.000 HD
ENDBRANCH  17  18
ENDBRANCH  15  17
ENDBRANCH   7  15
ENDBRANCH   1  11
BRANCH   4  20
ATOM     20  C   UNL     1       2.875   6.581  18.742  0.00  0.00    +0.000 C 
ATOM     21  C   UNL     1       3.049   5.670  19.713  0.00  0.00    +0.000 C 
BRANCH  21  22
ATOM     22  C   UNL     1       3.905   4.475  19.487  0.00  0.00    +0.000 C 
ATOM     23  O   UNL     1       3.619   3.373  19.943  0.00  0.00    +0.000 OA
BRANCH  22  24
ATOM     24  C   UNL     1       5.116   4.648  18.641  0.00  0.00    +0.000 A 
ATOM     25  C   UNL     1       6.225   5.312  19.185  0.00  0.00    +0.000 A 
ATOM     26  C   UNL     1       7.365   5.534  18.410  0.00  0.00    +0.000 A 
ATOM     27  C   UNL     1       7.399   5.104  17.084  0.00  0.00    +0.000 A 
ATOM     28  C   UNL     1       6.295   4.448  16.541  0.00  0.00    +0.000 A 
ATOM     29 CL   UNL     1       6.335   3.931  14.900  0.00  0.00    +0.000 Cl
ATOM     30  C   UNL     1       5.154   4.217  17.308  0.00  0.00    +0.000 A 
ENDBRANCH  22  24
ENDBRANCH  21  22
ENDBRANCH   4  20
TORSDOF 7
ENDMDL
MODEL 5
REMARK VINA RESULT:      -7.9      7.545     11.002
REMARK  Name = 
REMARK  7 active torsions:
REMARK  status: ('A' for Active; 'I' for Inactive)
REMARK    1  A    between atoms: C_2  and  O_3
REMARK    2  A    between atoms: C_2  and  C_4
REMARK    3  A    between atoms: C_4  and  N_5
REMARK    4  A    between atoms: C_9  and  C_10
REMARK    5  A    between atoms: C_13  and  C_14
REMARK    6  A    between atoms: C_15  and  C_16
REMARK    7  A    between atoms: C_16  and  C_18
REMARK                            x       y       z     vdW  Elec       q    Type
REMARK                         _______ _______ _______ _____ _____    ______ ____
ROOT
ATOM      1  C   UNL     1      -0.075  11.625  19.698  0.00  0.00    +0.000 A 
ATOM      2  C   UNL     1       0.143  11.043  18.445  0.00  0.00    +0.000 A 
ATOM      3  C   UNL     1       0.812   9.817  18.342  0.00  0.00    +0.000 A 
ATOM      4  C   UNL     1       1.291   9.164  19.486  0.00  0.00    +0.000 A 
ATOM      5  C   UNL     1       1.016   9.729  20.739  0.00  0.00    +0.000 A 
ATOM      6  C   UNL     1       0.346  10.952  20.846  0.00  0.00    +0.000 A 
ENDROOT
BRANCH   1  11
ATOM      7  N   UNL     1       1.601  15.709  19.376  0.00  0.00    +0.000 N 
ATOM      8  C   UNL     1       1.335  14.353  19.431  0.00  0.00    +0.000 C 
ATOM      9  O   UNL     1       2.170  13.478  19.236  0.00  0.00    +0.000 OA
ATOM     10  C   UNL     1      -0.108  14.116  19.704  0.00  0.00    +0.000 C 
ATOM     11  C   UNL     1      -0.727  12.931  19.803  0.00  0.00    +0.000 C 
ATOM     12  S   UNL     1      -0.925  15.627  19.862  0.00  0.00    +0.000 S 
ATOM     13  C   UNL     1       0.547  16.561  19.616  0.00  0.00    +0.000 C 
ATOM     14  S   UNL     1       0.564  18.229  19.640  0.00  0.00    +0.000 S 
BRANCH   7  15
ATOM     15  C   UNL     1       2.974  16.121  19.096  0.00  0.00    +0.000 C 
BRANCH  15  17
ATOM     16  O   UNL     1       2.929  17.372  17.004  0.00  0.00    +0.000 OA
ATOM     17  C   UNL     1       3.194  16.341  17.605  0.00  0.00    +0.000 C 
BRANCH  17  18
ATOM     18  O   UNL     1       3.695  15.251  16.974  0.00  0.00    +0.000 OA
ATOM     19  H   UNL     1       3.033  14.625  16.621  0.00  0.00    +0.000 HD
ENDBRANCH  17  18
ENDBRANCH  15  17
ENDBRANCH   7  15
ENDBRANCH   1  11
BRANCH   4  20
ATOM     20  C   UNL     1       2.046   7.909  19.335  0.00  0.00    +0.000 C 
ATOM     21  C   UNL     1       2.650   7.543  18.193  0.00  0.00    +0.000 C 
BRANCH  21  22
ATOM     22  C   UNL     1       3.349   6.234  18.090  0.00  0.00    +0.000 C 
ATOM     23  O   UNL     1       4.488   6.137  17.645  0.00  0.00    +0.000 OA
BRANCH  22  24
ATOM     24  C   UNL     1       2.633   5.032  18.594  0.00  0.00    +0.000 A 
ATOM     25  C   UNL     1       1.698   4.409  17.755  0.00  0.00    +0.000 A 
ATOM     26  C   UNL     1       0.971   3.305  18.204  0.00  0.00    +0.000 A 
ATOM     27  C   UNL     1       1.168   2.823  19.498  0.00  0.00    +0.000 A 
ATOM     28  C   UNL     1       2.095   3.444  20.334  0.00  0.00    +0.000 A 
ATOM     29 CL   UNL     1       2.325   2.856  21.936  0.00  0.00    +0.000 Cl
ATOM     30  C   UNL     1       2.828   4.545  19.893  0.00  0.00    +0.000 A 
ENDBRANCH  22  24
ENDBRANCH  21  22
ENDBRANCH   4  20
TORSDOF 7
ENDMDL
MODEL 6
REMARK VINA RESULT:      -7.9      6.867      9.811
REMARK  Name = 
REMARK  7 active torsions:
REMARK  status: ('A' for Active; 'I' for Inactive)
REMARK    1  A    between atoms: C_2  and  O_3
REMARK    2  A    between atoms: C_2  and  C_4
REMARK    3  A    between atoms: C_4  and  N_5
REMARK    4  A    between atoms: C_9  and  C_10
REMARK    5  A    between atoms: C_13  and  C_14
REMARK    6  A    between atoms: C_15  and  C_16
REMARK    7  A    between atoms: C_16  and  C_18
REMARK                            x       y       z     vdW  Elec       q    Type
REMARK                         _______ _______ _______ _____ _____    ______ ____
ROOT
ATOM      1  C   UNL     1       0.376   9.927  19.375  0.00  0.00    +0.000 A 
ATOM      2  C   UNL     1       0.711   9.200  20.521  0.00  0.00    +0.000 A 
ATOM      3  C   UNL     1       1.592   8.115  20.437  0.00  0.00    +0.000 A 
ATOM      4  C   UNL     1       2.136   7.727  19.204  0.00  0.00    +0.000 A 
ATOM      5  C   UNL     1       1.837   8.499  18.073  0.00  0.00    +0.000 A 
ATOM      6  C   UNL     1       0.959   9.585  18.154  0.00  0.00    +0.000 A 
ENDROOT
BRANCH   1  11
ATOM      7  N   UNL     1       1.016  14.254  20.050  0.00  0.00    +0.000 N 
ATOM      8  C   UNL     1       1.089  12.887  19.859  0.00  0.00    +0.000 C 
ATOM      9  O   UNL     1       2.135  12.253  19.800  0.00  0.00    +0.000 OA
ATOM     10  C   UNL     1      -0.273  12.313  19.681  0.00  0.00    +0.000 C 
ATOM     11  C   UNL     1      -0.585  11.029  19.452  0.00  0.00    +0.000 C 
ATOM     12  S   UNL     1      -1.451  13.568  19.788  0.00  0.00    +0.000 S 
ATOM     13  C   UNL     1      -0.241  14.813  20.086  0.00  0.00    +0.000 C 
ATOM     14  S   UNL     1      -0.643  16.415  20.320  0.00  0.00    +0.000 S 
BRANCH   7  15
ATOM     15  C   UNL     1       2.270  14.983  20.223  0.00  0.00    +0.000 C 
BRANCH  15  17
ATOM     16  O   UNL     1       2.470  16.035  22.413  0.00  0.00    +0.000 OA
ATOM     17  C   UNL     1       2.664  15.068  21.692  0.00  0.00    +0.000 C 
BRANCH  17  18
ATOM     18  O   UNL     1       3.298  13.955  22.139  0.00  0.00    +0.000 OA
ATOM     19  H   UNL     1       3.146  13.731  23.078  0.00  0.00    +0.000 HD
ENDBRANCH  17  18
ENDBRANCH  15  17
ENDBRANCH   7  15
ENDBRANCH   1  11
BRANCH   4  20
ATOM     20  C   UNL     1       3.007   6.542  19.143  0.00  0.00    +0.000 C 
ATOM     21  C   UNL     1       2.664   5.403  18.520  0.00  0.00    +0.000 C 
BRANCH  21  22
ATOM     22  C   UNL     1       3.568   4.223  18.545  0.00  0.00    +0.000 C 
ATOM     23  O   UNL     1       3.304   3.212  19.188  0.00  0.00    +0.000 OA
BRANCH  22  24
ATOM     24  C   UNL     1       4.802   4.285  17.716  0.00  0.00    +0.000 A 
ATOM     25  C   UNL     1       6.015   4.599  18.344  0.00  0.00    +0.000 A 
ATOM     26  C   UNL     1       7.189   4.711  17.596  0.00  0.00    +0.000 A 
ATOM     27  C   UNL     1       7.154   4.521  16.215  0.00  0.00    +0.000 A 
ATOM     28  C   UNL     1       5.947   4.214  15.589  0.00  0.00    +0.000 A 
ATOM     29 CL   UNL     1       5.905   3.994  13.882  0.00  0.00    +0.000 Cl
ATOM     30  C   UNL     1       4.770   4.095  16.328  0.00  0.00    +0.000 A 
ENDBRANCH  22  24
ENDBRANCH  21  22
ENDBRANCH   4  20
TORSDOF 7
ENDMDL
MODEL 7
REMARK VINA RESULT:      -7.8      6.621      9.841
REMARK  Name = 
REMARK  7 active torsions:
REMARK  status: ('A' for Active; 'I' for Inactive)
REMARK    1  A    between atoms: C_2  and  O_3
REMARK    2  A    between atoms: C_2  and  C_4
REMARK    3  A    between atoms: C_4  and  N_5
REMARK    4  A    between atoms: C_9  and  C_10
REMARK    5  A    between atoms: C_13  and  C_14
REMARK    6  A    between atoms: C_15  and  C_16
REMARK    7  A    between atoms: C_16  and  C_18
REMARK                            x       y       z     vdW  Elec       q    Type
REMARK                         _______ _______ _______ _____ _____    ______ ____
ROOT
ATOM      1  C   UNL     1       0.504  10.097  19.450  0.00  0.00    +0.000 A 
ATOM      2  C   UNL     1       1.011   9.196  20.391  0.00  0.00    +0.000 A 
ATOM      3  C   UNL     1       1.756   8.086  19.977  0.00  0.00    +0.000 A 
ATOM      4  C   UNL     1       1.990   7.848  18.615  0.00  0.00    +0.000 A 
ATOM      5  C   UNL     1       1.525   8.789  17.686  0.00  0.00    +0.000 A 
ATOM      6  C   UNL     1       0.782   9.901  18.097  0.00  0.00    +0.000 A 
ENDROOT
BRANCH   1  11
ATOM      7  N   UNL     1       1.521  14.381  19.897  0.00  0.00    +0.000 N 
ATOM      8  C   UNL     1       1.464  13.018  19.678  0.00  0.00    +0.000 C 
ATOM      9  O   UNL     1       2.392  12.350  19.241  0.00  0.00    +0.000 OA
ATOM     10  C   UNL     1       0.106  12.496  19.995  0.00  0.00    +0.000 C 
ATOM     11  C   UNL     1      -0.319  11.229  19.879  0.00  0.00    +0.000 C 
ATOM     12  S   UNL     1      -0.903  13.788  20.530  0.00  0.00    +0.000 S 
ATOM     13  C   UNL     1       0.384  14.982  20.388  0.00  0.00    +0.000 C 
ATOM     14  S   UNL     1       0.159  16.591  20.768  0.00  0.00    +0.000 S 
BRANCH   7  15
ATOM     15  C   UNL     1       2.782  15.062  19.617  0.00  0.00    +0.000 C 
BRANCH  15  17
ATOM     16  O   UNL     1       2.358  16.626  17.795  0.00  0.00    +0.000 OA
ATOM     17  C   UNL     1       2.833  15.568  18.181  0.00  0.00    +0.000 C 
BRANCH  17  18
ATOM     18  O   UNL     1       3.440  14.702  17.332  0.00  0.00    +0.000 OA
ATOM     19  H   UNL     1       3.228  13.758  17.468  0.00  0.00    +0.000 HD
ENDBRANCH  17  18
ENDBRANCH  15  17
ENDBRANCH   7  15
ENDBRANCH   1  11
BRANCH   4  20
ATOM     20  C   UNL     1       2.722   6.636  18.211  0.00  0.00    +0.000 C 
ATOM     21  C   UNL     1       2.414   5.406  18.651  0.00  0.00    +0.000 C 
BRANCH  21  22
ATOM     22  C   UNL     1       3.231   4.229  18.249  0.00  0.00    +0.000 C 
ATOM     23  O   UNL     1       2.763   3.097  18.199  0.00  0.00    +0.000 OA
BRANCH  22  24
ATOM     24  C   UNL     1       4.645   4.477  17.858  0.00  0.00    +0.000 A 
ATOM     25  C   UNL     1       5.046   4.147  16.556  0.00  0.00    +0.000 A 
ATOM     26  C   UNL     1       6.375   4.322  16.161  0.00  0.00    +0.000 A 
ATOM     27  C   UNL     1       7.310   4.818  17.069  0.00  0.00    +0.000 A 
ATOM     28  C   UNL     1       6.911   5.142  18.365  0.00  0.00    +0.000 A 
ATOM     29 CL   UNL     1       8.072   5.741  19.488  0.00  0.00    +0.000 Cl
ATOM     30  C   UNL     1       5.587   4.975  18.767  0.00  0.00    +0.000 A 
ENDBRANCH  22  24
ENDBRANCH  21  22
ENDBRANCH   4  20
TORSDOF 7
ENDMDL
MODEL 8
REMARK VINA RESULT:      -7.8      6.713      9.850
REMARK  Name = 
REMARK  7 active torsions:
REMARK  status: ('A' for Active; 'I' for Inactive)
REMARK    1  A    between atoms: C_2  and  O_3
REMARK    2  A    between atoms: C_2  and  C_4
REMARK    3  A    between atoms: C_4  and  N_5
REMARK    4  A    between atoms: C_9  and  C_10
REMARK    5  A    between atoms: C_13  and  C_14
REMARK    6  A    between atoms: C_15  and  C_16
REMARK    7  A    between atoms: C_16  and  C_18
REMARK                            x       y       z     vdW  Elec       q    Type
REMARK                         _______ _______ _______ _____ _____    ______ ____
ROOT
ATOM      1  C   UNL     1       0.521   9.887  19.251  0.00  0.00    +0.000 A 
ATOM      2  C   UNL     1       0.924   9.184  20.391  0.00  0.00    +0.000 A 
ATOM      3  C   UNL     1       1.775   8.079  20.276  0.00  0.00    +0.000 A 
ATOM      4  C   UNL     1       2.221   7.646  19.019  0.00  0.00    +0.000 A 
ATOM      5  C   UNL     1       1.856   8.392  17.890  0.00  0.00    +0.000 A 
ATOM      6  C   UNL     1       1.008   9.499  18.001  0.00  0.00    +0.000 A 
ENDROOT
BRANCH   1  11
ATOM      7  N   UNL     1       1.206  14.238  18.820  0.00  0.00    +0.000 N 
ATOM      8  C   UNL     1       1.260  12.859  18.900  0.00  0.00    +0.000 C 
ATOM      9  O   UNL     1       2.265  12.194  18.684  0.00  0.00    +0.000 OA
ATOM     10  C   UNL     1      -0.081  12.304  19.229  0.00  0.00    +0.000 C 
ATOM     11  C   UNL     1      -0.409  11.011  19.365  0.00  0.00    +0.000 C 
ATOM     12  S   UNL     1      -1.217  13.591  19.400  0.00  0.00    +0.000 S 
ATOM     13  C   UNL     1      -0.006  14.832  19.089  0.00  0.00    +0.000 C 
ATOM     14  S   UNL     1      -0.370  16.460  19.092  0.00  0.00    +0.000 S 
BRANCH   7  15
ATOM     15  C   UNL     1       2.439  14.947  18.485  0.00  0.00    +0.000 C 
BRANCH  15  17
ATOM     16  O   UNL     1       4.526  14.751  19.730  0.00  0.00    +0.000 OA
ATOM     17  C   UNL     1       3.349  15.082  19.698  0.00  0.00    +0.000 C 
BRANCH  17  18
ATOM     18  O   UNL     1       2.716  15.585  20.787  0.00  0.00    +0.000 OA
ATOM     19  H   UNL     1       1.755  15.413  20.834  0.00  0.00    +0.000 HD
ENDBRANCH  17  18
ENDBRANCH  15  17
ENDBRANCH   7  15
ENDBRANCH   1  11
BRANCH   4  20
ATOM     20  C   UNL     1       3.062   6.440  18.930  0.00  0.00    +0.000 C 
ATOM     21  C   UNL     1       2.699   5.333  18.264  0.00  0.00    +0.000 C 
BRANCH  21  22
ATOM     22  C   UNL     1       3.572   4.128  18.262  0.00  0.00    +0.000 C 
ATOM     23  O   UNL     1       3.247   3.087  18.822  0.00  0.00    +0.000 OA
BRANCH  22  24
ATOM     24  C   UNL     1       4.852   4.210  17.508  0.00  0.00    +0.000 A 
ATOM     25  C   UNL     1       6.017   4.561  18.204  0.00  0.00    +0.000 A 
ATOM     26  C   UNL     1       7.232   4.691  17.526  0.00  0.00    +0.000 A 
ATOM     27  C   UNL     1       7.285   4.483  16.149  0.00  0.00    +0.000 A 
ATOM     28  C   UNL     1       6.125   4.137  15.456  0.00  0.00    +0.000 A 
ATOM     29 CL   UNL     1       6.192   3.894  13.753  0.00  0.00    +0.000 Cl
ATOM     30  C   UNL     1       4.909   4.000  16.124  0.00  0.00    +0.000 A 
ENDBRANCH  22  24
ENDBRANCH  21  22
ENDBRANCH   4  20
TORSDOF 7
ENDMDL
MODEL 9
REMARK VINA RESULT:      -7.7      7.278     10.814
REMARK  Name = 
REMARK  7 active torsions:
REMARK  status: ('A' for Active; 'I' for Inactive)
REMARK    1  A    between atoms: C_2  and  O_3
REMARK    2  A    between atoms: C_2  and  C_4
REMARK    3  A    between atoms: C_4  and  N_5
REMARK    4  A    between atoms: C_9  and  C_10
REMARK    5  A    between atoms: C_13  and  C_14
REMARK    6  A    between atoms: C_15  and  C_16
REMARK    7  A    between atoms: C_16  and  C_18
REMARK                            x       y       z     vdW  Elec       q    Type
REMARK                         _______ _______ _______ _____ _____    ______ ____
ROOT
ATOM      1  C   UNL     1       0.311  11.184  19.471  0.00  0.00    +0.000 A 
ATOM      2  C   UNL     1       0.719  10.424  20.571  0.00  0.00    +0.000 A 
ATOM      3  C   UNL     1       1.371   9.200  20.382  0.00  0.00    +0.000 A 
ATOM      4  C   UNL     1       1.608   8.707  19.091  0.00  0.00    +0.000 A 
ATOM      5  C   UNL     1       1.245   9.504  17.997  0.00  0.00    +0.000 A 
ATOM      6  C   UNL     1       0.596  10.729  18.182  0.00  0.00    +0.000 A 
ENDROOT
BRANCH   1  11
ATOM      7  N   UNL     1       1.743  15.371  19.438  0.00  0.00    +0.000 N 
ATOM      8  C   UNL     1       1.558  14.002  19.397  0.00  0.00    +0.000 C 
ATOM      9  O   UNL     1       2.441  13.194  19.140  0.00  0.00    +0.000 OA
ATOM     10  C   UNL     1       0.131  13.662  19.653  0.00  0.00    +0.000 C 
ATOM     11  C   UNL     1      -0.417  12.439  19.668  0.00  0.00    +0.000 C 
ATOM     12  S   UNL     1      -0.772  15.108  19.916  0.00  0.00    +0.000 S 
ATOM     13  C   UNL     1       0.642  16.142  19.737  0.00  0.00    +0.000 C 
ATOM     14  S   UNL     1       0.562  17.802  19.877  0.00  0.00    +0.000 S 
BRANCH   7  15
ATOM     15  C   UNL     1       3.089  15.882  19.187  0.00  0.00    +0.000 C 
BRANCH  15  17
ATOM     16  O   UNL     1       3.081  17.301  17.205  0.00  0.00    +0.000 OA
ATOM     17  C   UNL     1       3.293  16.210  17.714  0.00  0.00    +0.000 C 
BRANCH  17  18
ATOM     18  O   UNL     1       3.711  15.147  16.984  0.00  0.00    +0.000 OA
ATOM     19  H   UNL     1       3.242  14.307  17.154  0.00  0.00    +0.000 HD
ENDBRANCH  17  18
ENDBRANCH  15  17
ENDBRANCH   7  15
ENDBRANCH   1  11
BRANCH   4  20
ATOM     20  C   UNL     1       2.238   7.386  18.930  0.00  0.00    +0.000 C 
ATOM     21  C   UNL     1       3.173   7.120  18.003  0.00  0.00    +0.000 C 
BRANCH  21  22
ATOM     22  C   UNL     1       3.728   5.748  17.857  0.00  0.00    +0.000 C 
ATOM     23  O   UNL     1       4.811   5.537  17.321  0.00  0.00    +0.000 OA
BRANCH  22  24
ATOM     24  C   UNL     1       2.940   4.624  18.429  0.00  0.00    +0.000 A 
ATOM     25  C   UNL     1       1.976   4.003  17.622  0.00  0.00    +0.000 A 
ATOM     26  C   UNL     1       1.184   2.973  18.134  0.00  0.00    +0.000 A 
ATOM     27  C   UNL     1       1.343   2.566  19.458  0.00  0.00    +0.000 A 
ATOM     28  C   UNL     1       2.299   3.186  20.262  0.00  0.00    +0.000 A 
ATOM     29 CL   UNL     1       2.483   2.691  21.901  0.00  0.00    +0.000 Cl
ATOM     30  C   UNL     1       3.098   4.212  19.759  0.00  0.00    +0.000 A 
ENDBRANCH  22  24
ENDBRANCH  21  22
ENDBRANCH   4  20
TORSDOF 7
ENDMDL
