MODEL 1
REMARK VINA RESULT:      -8.5      0.000      0.000
REMARK  Name = 
REMARK  7 active torsions:
REMARK  status: ('A' for Active; 'I' for Inactive)
REMARK    1  A    between atoms: C_1  and  O_2
REMARK    2  A    between atoms: O_2  and  C_3
REMARK    3  A    between atoms: C_5  and  C_6
REMARK    4  A    between atoms: C_11  and  C_12
REMARK    5  A    between atoms: N_16  and  C_17
REMARK    6  A    between atoms: C_17  and  C_18
REMARK    7  A    between atoms: C_17  and  C_19
REMARK                            x       y       z     vdW  Elec       q    Type
REMARK                         _______ _______ _______ _____ _____    ______ ____
ROOT
ATOM      1  C   UNL     1       2.214   7.452  18.994  0.00  0.00    +0.000 A 
ATOM      2  C   UNL     1       2.903   6.915  17.913  0.00  0.00    +0.000 A 
ATOM      3  C   UNL     1       3.404   5.633  18.261  0.00  0.00    +0.000 A 
ATOM      4  C   UNL     1       4.266   4.682  17.675  0.00  0.00    +0.000 A 
ATOM      5  N   UNL     1       4.817   4.876  16.409  0.00  0.00    +0.000 N 
ATOM      6  N   UNL     1       4.601   3.603  18.423  0.00  0.00    +0.000 NA
ATOM      7  C   UNL     1       4.063   3.476  19.659  0.00  0.00    +0.000 A 
ATOM      8  N   UNL     1       3.219   4.311  20.296  0.00  0.00    +0.000 NA
ATOM      9  C   UNL     1       2.938   5.381  19.546  0.00  0.00    +0.000 A 
ATOM     10  N   UNL     1       2.170   6.450  19.945  0.00  0.00    +0.000 N 
ATOM     11  H   UNL     1       4.113   4.923  15.683  0.00  0.00    +0.000 HD
ATOM     12  H   UNL     1       1.736   6.524  20.850  0.00  0.00    +0.000 HD
ENDROOT
BRANCH   1  18
ATOM     13  C   UNL     1       1.087   9.315  20.359  0.00  0.00    +0.000 A 
ATOM     14  C   UNL     1       0.693  10.667  20.426  0.00  0.00    +0.000 A 
ATOM     15  C   UNL     1       0.852  11.528  19.335  0.00  0.00    +0.000 A 
ATOM     16  C   UNL     1       1.498  11.055  18.196  0.00  0.00    +0.000 A 
ATOM     17  C   UNL     1       1.944   9.732  18.143  0.00  0.00    +0.000 A 
ATOM     18  C   UNL     1       1.736   8.832  19.204  0.00  0.00    +0.000 A 
BRANCH  15  19
ATOM     19  C   UNL     1       0.335  12.926  19.317  0.00  0.00    +0.000 C 
ATOM     20  N   UNL     1       0.722  13.785  20.309  0.00  0.00    +0.000 N 
ATOM     21  O   UNL     1      -0.451  13.303  18.456  0.00  0.00    +0.000 OA
ATOM     22  H   UNL     1       1.305  13.555  21.095  0.00  0.00    +0.000 HD
ATOM     23  H   UNL     1       0.287  14.700  20.300  0.00  0.00    +0.000 HD
ENDBRANCH  15  19
BRANCH  13  25
ATOM     24  C   UNL     1      -0.428   8.587  22.022  0.00  0.00    +0.000 C 
ATOM     25  O   UNL     1       0.862   8.453  21.410  0.00  0.00    +0.000 OA
ENDBRANCH  13  25
ENDBRANCH   1  18
BRANCH   5  26
ATOM     26  C   UNL     1       6.069   4.214  16.055  0.00  0.00    +0.000 C 
ATOM     27  C   UNL     1       7.185   4.862  16.887  0.00  0.00    +0.000 C 
BRANCH  26  28
ATOM     28  C   UNL     1       6.396   4.295  14.568  0.00  0.00    +0.000 A 
ATOM     29  C   UNL     1       5.698   3.479  13.659  0.00  0.00    +0.000 A 
ATOM     30  C   UNL     1       6.029   3.457  12.300  0.00  0.00    +0.000 A 
ATOM     31  C   UNL     1       7.063   4.256  11.821  0.00  0.00    +0.000 A 
ATOM     32  C   UNL     1       7.766   5.076  12.702  0.00  0.00    +0.000 A 
ATOM     33  C   UNL     1       7.436   5.096  14.063  0.00  0.00    +0.000 A 
ENDBRANCH  26  28
ENDBRANCH   5  26
TORSDOF 5
ENDMDL
MODEL 2
REMARK VINA RESULT:      -8.5      0.638      1.097
REMARK  Name = 
REMARK  7 active torsions:
REMARK  status: ('A' for Active; 'I' for Inactive)
REMARK    1  A    between atoms: C_1  and  O_2
REMARK    2  A    between atoms: O_2  and  C_3
REMARK    3  A    between atoms: C_5  and  C_6
REMARK    4  A    between atoms: C_11  and  C_12
REMARK    5  A    between atoms: N_16  and  C_17
REMARK    6  A    between atoms: C_17  and  C_18
REMARK    7  A    between atoms: C_17  and  C_19
REMARK                            x       y       z     vdW  Elec       q    Type
REMARK                         _______ _______ _______ _____ _____    ______ ____
ROOT
ATOM      1  C   UNL     1       2.141   7.587  18.948  0.00  0.00    +0.000 A 
ATOM      2  C   UNL     1       2.920   7.110  17.901  0.00  0.00    +0.000 A 
ATOM      3  C   UNL     1       3.418   5.821  18.230  0.00  0.00    +0.000 A 
ATOM      4  C   UNL     1       4.341   4.911  17.672  0.00  0.00    +0.000 A 
ATOM      5  N   UNL     1       4.983   5.170  16.463  0.00  0.00    +0.000 N 
ATOM      6  N   UNL     1       4.639   3.806  18.396  0.00  0.00    +0.000 NA
ATOM      7  C   UNL     1       4.010   3.614  19.580  0.00  0.00    +0.000 A 
ATOM      8  N   UNL     1       3.103   4.406  20.186  0.00  0.00    +0.000 NA
ATOM      9  C   UNL     1       2.860   5.505  19.463  0.00  0.00    +0.000 A 
ATOM     10  N   UNL     1       2.043   6.542  19.847  0.00  0.00    +0.000 N 
ATOM     11  H   UNL     1       4.336   5.239  15.687  0.00  0.00    +0.000 HD
ATOM     12  H   UNL     1       1.539   6.569  20.719  0.00  0.00    +0.000 HD
ENDROOT
BRANCH   1  18
ATOM     13  C   UNL     1       0.896   9.373  20.312  0.00  0.00    +0.000 A 
ATOM     14  C   UNL     1       0.469  10.714  20.405  0.00  0.00    +0.000 A 
ATOM     15  C   UNL     1       0.672  11.619  19.358  0.00  0.00    +0.000 A 
ATOM     16  C   UNL     1       1.393  11.202  18.242  0.00  0.00    +0.000 A 
ATOM     17  C   UNL     1       1.870   9.891  18.166  0.00  0.00    +0.000 A 
ATOM     18  C   UNL     1       1.621   8.948  19.180  0.00  0.00    +0.000 A 
BRANCH  15  19
ATOM     19  C   UNL     1       0.127  13.006  19.361  0.00  0.00    +0.000 C 
ATOM     20  N   UNL     1      -0.780  13.360  18.401  0.00  0.00    +0.000 N 
ATOM     21  O   UNL     1       0.501  13.835  20.183  0.00  0.00    +0.000 OA
ATOM     22  H   UNL     1      -1.098  12.777  17.646  0.00  0.00    +0.000 HD
ATOM     23  H   UNL     1      -1.066  14.331  18.395  0.00  0.00    +0.000 HD
ENDBRANCH  15  19
BRANCH  13  25
ATOM     24  C   UNL     1      -0.440   8.850  22.192  0.00  0.00    +0.000 C 
ATOM     25  O   UNL     1       0.630   8.468  21.316  0.00  0.00    +0.000 OA
ENDBRANCH  13  25
ENDBRANCH   1  18
BRANCH   5  26
ATOM     26  C   UNL     1       6.271   4.545  16.178  0.00  0.00    +0.000 C 
ATOM     27  C   UNL     1       7.358   5.406  16.837  0.00  0.00    +0.000 C 
BRANCH  26  28
ATOM     28  C   UNL     1       6.549   4.384  14.688  0.00  0.00    +0.000 A 
ATOM     29  C   UNL     1       7.539   5.175  14.077  0.00  0.00    +0.000 A 
ATOM     30  C   UNL     1       7.762   5.123  12.696  0.00  0.00    +0.000 A 
ATOM     31  C   UNL     1       7.002   4.271  11.900  0.00  0.00    +0.000 A 
ATOM     32  C   UNL     1       6.020   3.474  12.483  0.00  0.00    +0.000 A 
ATOM     33  C   UNL     1       5.794   3.529  13.864  0.00  0.00    +0.000 A 
ENDBRANCH  26  28
ENDBRANCH   5  26
TORSDOF 5
ENDMDL
MODEL 3
REMARK VINA RESULT:      -8.4      2.975      9.328
REMARK  Name = 
REMARK  7 active torsions:
REMARK  status: ('A' for Active; 'I' for Inactive)
REMARK    1  A    between atoms: C_1  and  O_2
REMARK    2  A    between atoms: O_2  and  C_3
REMARK    3  A    between atoms: C_5  and  C_6
REMARK    4  A    between atoms: C_11  and  C_12
REMARK    5  A    between atoms: N_16  and  C_17
REMARK    6  A    between atoms: C_17  and  C_18
REMARK    7  A    between atoms: C_17  and  C_19
REMARK                            x       y       z     vdW  Elec       q    Type
REMARK                         _______ _______ _______ _____ _____    ______ ____
ROOT
ATOM      1  C   UNL     1       2.885   7.404  18.575  0.00  0.00    +0.000 A 
ATOM      2  C   UNL     1       2.205   8.589  18.320  0.00  0.00    +0.000 A 
ATOM      3  C   UNL     1       1.349   8.888  19.414  0.00  0.00    +0.000 A 
ATOM      4  C   UNL     1       0.338   9.833  19.689  0.00  0.00    +0.000 A 
ATOM      5  N   UNL     1       0.003  10.831  18.776  0.00  0.00    +0.000 N 
ATOM      6  N   UNL     1      -0.349   9.688  20.847  0.00  0.00    +0.000 NA
ATOM      7  C   UNL     1      -0.005   8.684  21.687  0.00  0.00    +0.000 A 
ATOM      8  N   UNL     1       0.953   7.749  21.528  0.00  0.00    +0.000 NA
ATOM      9  C   UNL     1       1.586   7.898  20.360  0.00  0.00    +0.000 A 
ATOM     10  N   UNL     1       2.558   7.057  19.873  0.00  0.00    +0.000 N 
ATOM     11  H   UNL     1       0.770  11.465  18.594  0.00  0.00    +0.000 HD
ATOM     12  H   UNL     1       2.893   6.241  20.359  0.00  0.00    +0.000 HD
ENDROOT
BRANCH   1  18
ATOM     13  C   UNL     1       3.690   5.159  17.619  0.00  0.00    +0.000 A 
ATOM     14  C   UNL     1       4.497   4.490  16.675  0.00  0.00    +0.000 A 
ATOM     15  C   UNL     1       5.360   5.191  15.826  0.00  0.00    +0.000 A 
ATOM     16  C   UNL     1       5.348   6.583  15.857  0.00  0.00    +0.000 A 
ATOM     17  C   UNL     1       4.509   7.256  16.750  0.00  0.00    +0.000 A 
ATOM     18  C   UNL     1       3.681   6.569  17.656  0.00  0.00    +0.000 A 
BRANCH  15  19
ATOM     19  C   UNL     1       6.321   4.520  14.905  0.00  0.00    +0.000 C 
ATOM     20  N   UNL     1       7.549   5.087  14.705  0.00  0.00    +0.000 N 
ATOM     21  O   UNL     1       6.017   3.495  14.304  0.00  0.00    +0.000 OA
ATOM     22  H   UNL     1       7.867   5.958  15.095  0.00  0.00    +0.000 HD
ATOM     23  H   UNL     1       8.139   4.639  14.015  0.00  0.00    +0.000 HD
ENDBRANCH  15  19
BRANCH  13  25
ATOM     24  C   UNL     1       1.741   3.853  17.907  0.00  0.00    +0.000 C 
ATOM     25  O   UNL     1       2.896   4.461  18.501  0.00  0.00    +0.000 OA
ENDBRANCH  13  25
ENDBRANCH   1  18
BRANCH   5  26
ATOM     26  C   UNL     1      -1.332  11.422  18.807  0.00  0.00    +0.000 C 
ATOM     27  C   UNL     1      -1.924  11.301  17.396  0.00  0.00    +0.000 C 
BRANCH  26  28
ATOM     28  C   UNL     1      -1.338  12.876  19.266  0.00  0.00    +0.000 A 
ATOM     29  C   UNL     1      -0.427  13.787  18.700  0.00  0.00    +0.000 A 
ATOM     30  C   UNL     1      -0.339  15.106  19.158  0.00  0.00    +0.000 A 
ATOM     31  C   UNL     1      -1.168  15.544  20.186  0.00  0.00    +0.000 A 
ATOM     32  C   UNL     1      -2.082  14.662  20.759  0.00  0.00    +0.000 A 
ATOM     33  C   UNL     1      -2.167  13.340  20.304  0.00  0.00    +0.000 A 
ENDBRANCH  26  28
ENDBRANCH   5  26
TORSDOF 5
ENDMDL
MODEL 4
REMARK VINA RESULT:      -8.3      1.378      2.179
REMARK  Name = 
REMARK  7 active torsions:
REMARK  status: ('A' for Active; 'I' for Inactive)
REMARK    1  A    between atoms: C_1  and  O_2
REMARK    2  A    between atoms: O_2  and  C_3
REMARK    3  A    between atoms: C_5  and  C_6
REMARK    4  A    between atoms: C_11  and  C_12
REMARK    5  A    between atoms: N_16  and  C_17
REMARK    6  A    between atoms: C_17  and  C_18
REMARK    7  A    between atoms: C_17  and  C_19
REMARK                            x       y       z     vdW  Elec       q    Type
REMARK                         _______ _______ _______ _____ _____    ______ ____
ROOT
ATOM      1  C   UNL     1       2.039   7.027  19.787  0.00  0.00    +0.000 A 
ATOM      2  C   UNL     1       2.842   6.881  18.662  0.00  0.00    +0.000 A 
ATOM      3  C   UNL     1       3.490   5.618  18.705  0.00  0.00    +0.000 A 
ATOM      4  C   UNL     1       4.497   4.964  17.963  0.00  0.00    +0.000 A 
ATOM      5  N   UNL     1       5.077   5.551  16.840  0.00  0.00    +0.000 N 
ATOM      6  N   UNL     1       4.936   3.770  18.430  0.00  0.00    +0.000 NA
ATOM      7  C   UNL     1       4.361   3.256  19.543  0.00  0.00    +0.000 A 
ATOM      8  N   UNL     1       3.385   3.787  20.305  0.00  0.00    +0.000 NA
ATOM      9  C   UNL     1       3.002   4.980  19.838  0.00  0.00    +0.000 A 
ATOM     10  N   UNL     1       2.082   5.808  20.438  0.00  0.00    +0.000 N 
ATOM     11  H   UNL     1       4.409   5.711  16.097  0.00  0.00    +0.000 HD
ATOM     12  H   UNL     1       1.598   5.587  21.293  0.00  0.00    +0.000 HD
ENDROOT
BRANCH   1  18
ATOM     13  C   UNL     1       1.091   9.406  19.573  0.00  0.00    +0.000 A 
ATOM     14  C   UNL     1       0.438  10.486  20.202  0.00  0.00    +0.000 A 
ATOM     15  C   UNL     1       0.136  10.461  21.567  0.00  0.00    +0.000 A 
ATOM     16  C   UNL     1       0.409   9.305  22.293  0.00  0.00    +0.000 A 
ATOM     17  C   UNL     1       1.005   8.208  21.666  0.00  0.00    +0.000 A 
ATOM     18  C   UNL     1       1.374   8.236  20.309  0.00  0.00    +0.000 A 
BRANCH  15  19
ATOM     19  C   UNL     1      -0.436  11.628  22.296  0.00  0.00    +0.000 C 
ATOM     20  N   UNL     1      -0.285  12.878  21.763  0.00  0.00    +0.000 N 
ATOM     21  O   UNL     1      -1.004  11.489  23.374  0.00  0.00    +0.000 OA
ATOM     22  H   UNL     1       0.221  13.105  20.924  0.00  0.00    +0.000 HD
ATOM     23  H   UNL     1      -0.622  13.647  22.329  0.00  0.00    +0.000 HD
ENDBRANCH  15  19
BRANCH  13  25
ATOM     24  C   UNL     1       2.193  10.636  17.881  0.00  0.00    +0.000 C 
ATOM     25  O   UNL     1       1.451   9.464  18.244  0.00  0.00    +0.000 OA
ENDBRANCH  13  25
ENDBRANCH   1  18
BRANCH   5  26
ATOM     26  C   UNL     1       6.421   5.156  16.429  0.00  0.00    +0.000 C 
ATOM     27  C   UNL     1       7.375   6.298  16.809  0.00  0.00    +0.000 C 
BRANCH  26  28
ATOM     28  C   UNL     1       6.530   4.843  14.940  0.00  0.00    +0.000 A 
ATOM     29  C   UNL     1       5.643   3.920  14.359  0.00  0.00    +0.000 A 
ATOM     30  C   UNL     1       5.767   3.537  13.019  0.00  0.00    +0.000 A 
ATOM     31  C   UNL     1       6.779   4.078  12.231  0.00  0.00    +0.000 A 
ATOM     32  C   UNL     1       7.667   4.998  12.783  0.00  0.00    +0.000 A 
ATOM     33  C   UNL     1       7.545   5.378  14.126  0.00  0.00    +0.000 A 
ENDBRANCH  26  28
ENDBRANCH   5  26
TORSDOF 5
ENDMDL
MODEL 5
REMARK VINA RESULT:      -8.3      2.961      9.347
REMARK  Name = 
REMARK  7 active torsions:
REMARK  status: ('A' for Active; 'I' for Inactive)
REMARK    1  A    between atoms: C_1  and  O_2
REMARK    2  A    between atoms: O_2  and  C_3
REMARK    3  A    between atoms: C_5  and  C_6
REMARK    4  A    between atoms: C_11  and  C_12
REMARK    5  A    between atoms: N_16  and  C_17
REMARK    6  A    between atoms: C_17  and  C_18
REMARK    7  A    between atoms: C_17  and  C_19
REMARK                            x       y       z     vdW  Elec       q    Type
REMARK                         _______ _______ _______ _____ _____    ______ ____
ROOT
ATOM      1  C   UNL     1       2.917   7.330  18.612  0.00  0.00    +0.000 A 
ATOM      2  C   UNL     1       2.249   8.521  18.353  0.00  0.00    +0.000 A 
ATOM      3  C   UNL     1       1.376   8.817  19.432  0.00  0.00    +0.000 A 
ATOM      4  C   UNL     1       0.365   9.767  19.695  0.00  0.00    +0.000 A 
ATOM      5  N   UNL     1       0.053  10.773  18.783  0.00  0.00    +0.000 N 
ATOM      6  N   UNL     1      -0.345   9.618  20.839  0.00  0.00    +0.000 NA
ATOM      7  C   UNL     1      -0.022   8.606  21.678  0.00  0.00    +0.000 A 
ATOM      8  N   UNL     1       0.932   7.666  21.530  0.00  0.00    +0.000 NA
ATOM      9  C   UNL     1       1.588   7.819  20.376  0.00  0.00    +0.000 A 
ATOM     10  N   UNL     1       2.564   6.975  19.900  0.00  0.00    +0.000 N 
ATOM     11  H   UNL     1       0.828  11.404  18.620  0.00  0.00    +0.000 HD
ATOM     12  H   UNL     1       2.885   6.154  20.387  0.00  0.00    +0.000 HD
ENDROOT
BRANCH   1  18
ATOM     13  C   UNL     1       3.688   5.089  17.618  0.00  0.00    +0.000 A 
ATOM     14  C   UNL     1       4.514   4.422  16.689  0.00  0.00    +0.000 A 
ATOM     15  C   UNL     1       5.438   5.118  15.903  0.00  0.00    +0.000 A 
ATOM     16  C   UNL     1       5.472   6.507  15.980  0.00  0.00    +0.000 A 
ATOM     17  C   UNL     1       4.617   7.181  16.856  0.00  0.00    +0.000 A 
ATOM     18  C   UNL     1       3.726   6.496  17.701  0.00  0.00    +0.000 A 
BRANCH  15  19
ATOM     19  C   UNL     1       6.416   4.442  15.004  0.00  0.00    +0.000 C 
ATOM     20  N   UNL     1       6.020   3.327  14.318  0.00  0.00    +0.000 N 
ATOM     21  O   UNL     1       7.568   4.846  14.899  0.00  0.00    +0.000 OA
ATOM     22  H   UNL     1       5.123   2.878  14.388  0.00  0.00    +0.000 HD
ATOM     23  H   UNL     1       6.738   2.857  13.780  0.00  0.00    +0.000 HD
ENDBRANCH  15  19
BRANCH  13  25
ATOM     24  C   UNL     1       1.579   4.043  17.834  0.00  0.00    +0.000 C 
ATOM     25  O   UNL     1       2.831   4.392  18.441  0.00  0.00    +0.000 OA
ENDBRANCH  13  25
ENDBRANCH   1  18
BRANCH   5  26
ATOM     26  C   UNL     1      -1.278  11.373  18.794  0.00  0.00    +0.000 C 
ATOM     27  C   UNL     1      -1.794  11.378  17.348  0.00  0.00    +0.000 C 
BRANCH  26  28
ATOM     28  C   UNL     1      -1.301  12.783  19.374  0.00  0.00    +0.000 A 
ATOM     29  C   UNL     1      -2.284  13.128  20.319  0.00  0.00    +0.000 A 
ATOM     30  C   UNL     1      -2.396  14.435  20.807  0.00  0.00    +0.000 A 
ATOM     31  C   UNL     1      -1.521  15.421  20.364  0.00  0.00    +0.000 A 
ATOM     32  C   UNL     1      -0.535  15.103  19.433  0.00  0.00    +0.000 A 
ATOM     33  C   UNL     1      -0.426  13.795  18.941  0.00  0.00    +0.000 A 
ENDBRANCH  26  28
ENDBRANCH   5  26
TORSDOF 5
ENDMDL
MODEL 6
REMARK VINA RESULT:      -8.1      1.837      2.608
REMARK  Name = 
REMARK  7 active torsions:
REMARK  status: ('A' for Active; 'I' for Inactive)
REMARK    1  A    between atoms: C_1  and  O_2
REMARK    2  A    between atoms: O_2  and  C_3
REMARK    3  A    between atoms: C_5  and  C_6
REMARK    4  A    between atoms: C_11  and  C_12
REMARK    5  A    between atoms: N_16  and  C_17
REMARK    6  A    between atoms: C_17  and  C_18
REMARK    7  A    between atoms: C_17  and  C_19
REMARK                            x       y       z     vdW  Elec       q    Type
REMARK                         _______ _______ _______ _____ _____    ______ ____
ROOT
ATOM      1  C   UNL     1       1.549   7.470  20.234  0.00  0.00    +0.000 A 
ATOM      2  C   UNL     1       2.437   7.385  19.168  0.00  0.00    +0.000 A 
ATOM      3  C   UNL     1       3.068   6.113  19.178  0.00  0.00    +0.000 A 
ATOM      4  C   UNL     1       4.124   5.492  18.477  0.00  0.00    +0.000 A 
ATOM      5  N   UNL     1       4.796   6.142  17.443  0.00  0.00    +0.000 N 
ATOM      6  N   UNL     1       4.513   4.265  18.897  0.00  0.00    +0.000 NA
ATOM      7  C   UNL     1       3.847   3.689  19.926  0.00  0.00    +0.000 A 
ATOM      8  N   UNL     1       2.819   4.185  20.643  0.00  0.00    +0.000 NA
ATOM      9  C   UNL     1       2.485   5.411  20.226  0.00  0.00    +0.000 A 
ATOM     10  N   UNL     1       1.529   6.211  20.805  0.00  0.00    +0.000 N 
ATOM     11  H   UNL     1       4.189   6.359  16.661  0.00  0.00    +0.000 HD
ATOM     12  H   UNL     1       0.978   5.943  21.604  0.00  0.00    +0.000 HD
ENDROOT
BRANCH   1  18
ATOM     13  C   UNL     1       0.345   9.731  20.027  0.00  0.00    +0.000 A 
ATOM     14  C   UNL     1      -0.306  10.795  20.685  0.00  0.00    +0.000 A 
ATOM     15  C   UNL     1      -0.384  10.852  22.080  0.00  0.00    +0.000 A 
ATOM     16  C   UNL     1       0.115   9.786  22.824  0.00  0.00    +0.000 A 
ATOM     17  C   UNL     1       0.711   8.700  22.178  0.00  0.00    +0.000 A 
ATOM     18  C   UNL     1       0.857   8.653  20.780  0.00  0.00    +0.000 A 
BRANCH  15  19
ATOM     19  C   UNL     1      -0.948  12.017  22.818  0.00  0.00    +0.000 C 
ATOM     20  N   UNL     1      -2.252  11.970  23.227  0.00  0.00    +0.000 N 
ATOM     21  O   UNL     1      -0.278  13.021  23.031  0.00  0.00    +0.000 OA
ATOM     22  H   UNL     1      -2.903  11.226  23.042  0.00  0.00    +0.000 HD
ATOM     23  H   UNL     1      -2.615  12.812  23.656  0.00  0.00    +0.000 HD
ENDBRANCH  15  19
BRANCH  13  25
ATOM     24  C   UNL     1      -0.687  10.132  17.938  0.00  0.00    +0.000 C 
ATOM     25  O   UNL     1       0.483   9.715  18.657  0.00  0.00    +0.000 OA
ENDBRANCH  13  25
ENDBRANCH   1  18
BRANCH   5  26
ATOM     26  C   UNL     1       6.164   5.755  17.112  0.00  0.00    +0.000 C 
ATOM     27  C   UNL     1       7.036   7.015  17.203  0.00  0.00    +0.000 C 
BRANCH  26  28
ATOM     28  C   UNL     1       6.295   5.113  15.735  0.00  0.00    +0.000 A 
ATOM     29  C   UNL     1       7.434   5.375  14.953  0.00  0.00    +0.000 A 
ATOM     30  C   UNL     1       7.551   4.879  13.650  0.00  0.00    +0.000 A 
ATOM     31  C   UNL     1       6.531   4.105  13.105  0.00  0.00    +0.000 A 
ATOM     32  C   UNL     1       5.395   3.827  13.863  0.00  0.00    +0.000 A 
ATOM     33  C   UNL     1       5.277   4.327  15.166  0.00  0.00    +0.000 A 
ENDBRANCH  26  28
ENDBRANCH   5  26
TORSDOF 5
ENDMDL
MODEL 7
REMARK VINA RESULT:      -8.0      1.597      1.946
REMARK  Name = 
REMARK  7 active torsions:
REMARK  status: ('A' for Active; 'I' for Inactive)
REMARK    1  A    between atoms: C_1  and  O_2
REMARK    2  A    between atoms: O_2  and  C_3
REMARK    3  A    between atoms: C_5  and  C_6
REMARK    4  A    between atoms: C_11  and  C_12
REMARK    5  A    between atoms: N_16  and  C_17
REMARK    6  A    between atoms: C_17  and  C_18
REMARK    7  A    between atoms: C_17  and  C_19
REMARK                            x       y       z     vdW  Elec       q    Type
REMARK                         _______ _______ _______ _____ _____    ______ ____
ROOT
ATOM      1  C   UNL     1       1.878   9.090  18.516  0.00  0.00    +0.000 A 
ATOM      2  C   UNL     1       2.699   8.471  17.582  0.00  0.00    +0.000 A 
ATOM      3  C   UNL     1       3.055   7.178  18.049  0.00  0.00    +0.000 A 
ATOM      4  C   UNL     1       3.941   6.156  17.645  0.00  0.00    +0.000 A 
ATOM      5  N   UNL     1       4.702   6.266  16.483  0.00  0.00    +0.000 N 
ATOM      6  N   UNL     1       4.082   5.093  18.473  0.00  0.00    +0.000 NA
ATOM      7  C   UNL     1       3.343   5.048  19.606  0.00  0.00    +0.000 A 
ATOM      8  N   UNL     1       2.459   5.955  20.067  0.00  0.00    +0.000 NA
ATOM      9  C   UNL     1       2.372   7.007  19.247  0.00  0.00    +0.000 A 
ATOM     10  N   UNL     1       1.617   8.132  19.478  0.00  0.00    +0.000 N 
ATOM     11  H   UNL     1       4.131   6.322  15.649  0.00  0.00    +0.000 HD
ATOM     12  H   UNL     1       1.045   8.269  20.296  0.00  0.00    +0.000 HD
ENDROOT
BRANCH   1  18
ATOM     13  C   UNL     1       0.155  10.961  18.884  0.00  0.00    +0.000 A 
ATOM     14  C   UNL     1      -0.100  12.347  18.942  0.00  0.00    +0.000 A 
ATOM     15  C   UNL     1       0.892  13.285  18.639  0.00  0.00    +0.000 A 
ATOM     16  C   UNL     1       2.180  12.834  18.363  0.00  0.00    +0.000 A 
ATOM     17  C   UNL     1       2.456  11.464  18.360  0.00  0.00    +0.000 A 
ATOM     18  C   UNL     1       1.458  10.502  18.599  0.00  0.00    +0.000 A 
BRANCH  15  19
ATOM     19  C   UNL     1       0.632  14.751  18.563  0.00  0.00    +0.000 C 
ATOM     20  N   UNL     1      -0.657  15.197  18.649  0.00  0.00    +0.000 N 
ATOM     21  O   UNL     1       1.545  15.551  18.391  0.00  0.00    +0.000 OA
ATOM     22  H   UNL     1      -1.478  14.621  18.721  0.00  0.00    +0.000 HD
ATOM     23  H   UNL     1      -0.794  16.192  18.517  0.00  0.00    +0.000 HD
ENDBRANCH  15  19
BRANCH  13  25
ATOM     24  C   UNL     1      -1.990  10.185  18.263  0.00  0.00    +0.000 C 
ATOM     25  O   UNL     1      -0.844  10.041  19.114  0.00  0.00    +0.000 OA
ENDBRANCH  13  25
ENDBRANCH   1  18
BRANCH   5  26
ATOM     26  C   UNL     1       5.952   5.521  16.363  0.00  0.00    +0.000 C 
ATOM     27  C   UNL     1       7.083   6.433  16.859  0.00  0.00    +0.000 C 
BRANCH  26  28
ATOM     28  C   UNL     1       6.237   5.043  14.943  0.00  0.00    +0.000 A 
ATOM     29  C   UNL     1       5.366   4.121  14.334  0.00  0.00    +0.000 A 
ATOM     30  C   UNL     1       5.641   3.588  13.069  0.00  0.00    +0.000 A 
ATOM     31  C   UNL     1       6.789   3.974  12.385  0.00  0.00    +0.000 A 
ATOM     32  C   UNL     1       7.664   4.890  12.965  0.00  0.00    +0.000 A 
ATOM     33  C   UNL     1       7.391   5.420  14.233  0.00  0.00    +0.000 A 
ENDBRANCH  26  28
ENDBRANCH   5  26
TORSDOF 5
ENDMDL
MODEL 8
REMARK VINA RESULT:      -7.9      1.861      2.619
REMARK  Name = 
REMARK  7 active torsions:
REMARK  status: ('A' for Active; 'I' for Inactive)
REMARK    1  A    between atoms: C_1  and  O_2
REMARK    2  A    between atoms: O_2  and  C_3
REMARK    3  A    between atoms: C_5  and  C_6
REMARK    4  A    between atoms: C_11  and  C_12
REMARK    5  A    between atoms: N_16  and  C_17
REMARK    6  A    between atoms: C_17  and  C_18
REMARK    7  A    between atoms: C_17  and  C_19
REMARK                            x       y       z     vdW  Elec       q    Type
REMARK                         _______ _______ _______ _____ _____    ______ ____
ROOT
ATOM      1  C   UNL     1       1.448   7.691  20.339  0.00  0.00    +0.000 A 
ATOM      2  C   UNL     1       2.343   7.588  19.281  0.00  0.00    +0.000 A 
ATOM      3  C   UNL     1       2.930   6.294  19.281  0.00  0.00    +0.000 A 
ATOM      4  C   UNL     1       3.970   5.646  18.582  0.00  0.00    +0.000 A 
ATOM      5  N   UNL     1       4.674   6.285  17.563  0.00  0.00    +0.000 N 
ATOM      6  N   UNL     1       4.312   4.401  18.991  0.00  0.00    +0.000 NA
ATOM      7  C   UNL     1       3.617   3.836  20.006  0.00  0.00    +0.000 A 
ATOM      8  N   UNL     1       2.600   4.359  20.719  0.00  0.00    +0.000 NA
ATOM      9  C   UNL     1       2.313   5.601  20.315  0.00  0.00    +0.000 A 
ATOM     10  N   UNL     1       1.379   6.427  20.894  0.00  0.00    +0.000 N 
ATOM     11  H   UNL     1       4.084   6.532  16.778  0.00  0.00    +0.000 HD
ATOM     12  H   UNL     1       0.811   6.168  21.685  0.00  0.00    +0.000 HD
ENDROOT
BRANCH   1  18
ATOM     13  C   UNL     1       0.757  10.165  20.290  0.00  0.00    +0.000 A 
ATOM     14  C   UNL     1       0.080  11.223  20.932  0.00  0.00    +0.000 A 
ATOM     15  C   UNL     1      -0.488  11.063  22.200  0.00  0.00    +0.000 A 
ATOM     16  C   UNL     1      -0.459   9.804  22.794  0.00  0.00    +0.000 A 
ATOM     17  C   UNL     1       0.159   8.735  22.140  0.00  0.00    +0.000 A 
ATOM     18  C   UNL     1       0.792   8.890  20.893  0.00  0.00    +0.000 A 
BRANCH  15  19
ATOM     19  C   UNL     1      -1.099  12.185  22.967  0.00  0.00    +0.000 C 
ATOM     20  N   UNL     1      -2.429  12.126  23.276  0.00  0.00    +0.000 N 
ATOM     21  O   UNL     1      -0.440  13.167  23.293  0.00  0.00    +0.000 OA
ATOM     22  H   UNL     1      -3.068  11.401  22.997  0.00  0.00    +0.000 HD
ATOM     23  H   UNL     1      -2.818  12.943  23.731  0.00  0.00    +0.000 HD
ENDBRANCH  15  19
BRANCH  13  25
ATOM     24  C   UNL     1       1.528  11.720  18.685  0.00  0.00    +0.000 C 
ATOM     25  O   UNL     1       1.377  10.348  19.074  0.00  0.00    +0.000 OA
ENDBRANCH  13  25
ENDBRANCH   1  18
BRANCH   5  26
ATOM     26  C   UNL     1       6.031   5.854  17.240  0.00  0.00    +0.000 C 
ATOM     27  C   UNL     1       6.953   7.071  17.403  0.00  0.00    +0.000 C 
BRANCH  26  28
ATOM     28  C   UNL     1       6.163   5.268  15.838  0.00  0.00    +0.000 A 
ATOM     29  C   UNL     1       5.149   4.432  15.338  0.00  0.00    +0.000 A 
ATOM     30  C   UNL     1       5.274   3.802  14.094  0.00  0.00    +0.000 A 
ATOM     31  C   UNL     1       6.414   4.004  13.323  0.00  0.00    +0.000 A 
ATOM     32  C   UNL     1       7.430   4.832  13.795  0.00  0.00    +0.000 A 
ATOM     33  C   UNL     1       7.306   5.459  15.042  0.00  0.00    +0.000 A 
ENDBRANCH  26  28
ENDBRANCH   5  26
TORSDOF 5
ENDMDL
MODEL 9
REMARK VINA RESULT:      -7.9      3.294      8.726
REMARK  Name = 
REMARK  7 active torsions:
REMARK  status: ('A' for Active; 'I' for Inactive)
REMARK    1  A    between atoms: C_1  and  O_2
REMARK    2  A    between atoms: O_2  and  C_3
REMARK    3  A    between atoms: C_5  and  C_6
REMARK    4  A    between atoms: C_11  and  C_12
REMARK    5  A    between atoms: N_16  and  C_17
REMARK    6  A    between atoms: C_17  and  C_18
REMARK    7  A    between atoms: C_17  and  C_19
REMARK                            x       y       z     vdW  Elec       q    Type
REMARK                         _______ _______ _______ _____ _____    ______ ____
ROOT
ATOM      1  C   UNL     1       2.816   7.458  18.742  0.00  0.00    +0.000 A 
ATOM      2  C   UNL     1       2.339   8.750  18.551  0.00  0.00    +0.000 A 
ATOM      3  C   UNL     1       1.396   9.061  19.567  0.00  0.00    +0.000 A 
ATOM      4  C   UNL     1       0.493  10.112  19.833  0.00  0.00    +0.000 A 
ATOM      5  N   UNL     1       0.415  11.234  19.010  0.00  0.00    +0.000 N 
ATOM      6  N   UNL     1      -0.352   9.956  20.880  0.00  0.00    +0.000 NA
ATOM      7  C   UNL     1      -0.256   8.834  21.631  0.00  0.00    +0.000 A 
ATOM      8  N   UNL     1       0.581   7.788  21.475  0.00  0.00    +0.000 NA
ATOM      9  C   UNL     1       1.375   7.958  20.413  0.00  0.00    +0.000 A 
ATOM     10  N   UNL     1       2.281   7.036  19.945  0.00  0.00    +0.000 N 
ATOM     11  H   UNL     1       1.277  11.764  18.992  0.00  0.00    +0.000 HD
ATOM     12  H   UNL     1       2.438   6.136  20.368  0.00  0.00    +0.000 HD
ENDROOT
BRANCH   1  18
ATOM     13  C   UNL     1       3.564   5.203  17.765  0.00  0.00    +0.000 A 
ATOM     14  C   UNL     1       4.372   4.522  16.831  0.00  0.00    +0.000 A 
ATOM     15  C   UNL     1       5.284   5.205  16.019  0.00  0.00    +0.000 A 
ATOM     16  C   UNL     1       5.323   6.595  16.078  0.00  0.00    +0.000 A 
ATOM     17  C   UNL     1       4.485   7.283  16.959  0.00  0.00    +0.000 A 
ATOM     18  C   UNL     1       3.607   6.611  17.829  0.00  0.00    +0.000 A 
BRANCH  15  19
ATOM     19  C   UNL     1       6.244   4.515  15.113  0.00  0.00    +0.000 C 
ATOM     20  N   UNL     1       7.454   5.102  14.863  0.00  0.00    +0.000 N 
ATOM     21  O   UNL     1       5.956   3.456  14.566  0.00  0.00    +0.000 OA
ATOM     22  H   UNL     1       7.757   5.997  15.207  0.00  0.00    +0.000 HD
ATOM     23  H   UNL     1       8.043   4.637  14.184  0.00  0.00    +0.000 HD
ENDBRANCH  15  19
BRANCH  13  25
ATOM     24  C   UNL     1       1.613   3.883  17.960  0.00  0.00    +0.000 C 
ATOM     25  O   UNL     1       2.720   4.519  18.612  0.00  0.00    +0.000 OA
ENDBRANCH  13  25
ENDBRANCH   1  18
BRANCH   5  26
ATOM     26  C   UNL     1      -0.822  12.008  18.957  0.00  0.00    +0.000 C 
ATOM     27  C   UNL     1      -1.245  12.301  20.403  0.00  0.00    +0.000 C 
BRANCH  26  28
ATOM     28  C   UNL     1      -1.945  11.304  18.204  0.00  0.00    +0.000 A 
ATOM     29  C   UNL     1      -1.629  10.395  17.178  0.00  0.00    +0.000 A 
ATOM     30  C   UNL     1      -2.629   9.797  16.404  0.00  0.00    +0.000 A 
ATOM     31  C   UNL     1      -3.968  10.091  16.646  0.00  0.00    +0.000 A 
ATOM     32  C   UNL     1      -4.306  10.984  17.660  0.00  0.00    +0.000 A 
ATOM     33  C   UNL     1      -3.304  11.586  18.433  0.00  0.00    +0.000 A 
ENDBRANCH  26  28
ENDBRANCH   5  26
TORSDOF 5
ENDMDL
