MODEL 1
REMARK VINA RESULT:      -6.8      0.000      0.000
REMARK  Name = 
REMARK  10 active torsions:
REMARK  status: ('A' for Active; 'I' for Inactive)
REMARK    1  A    between atoms: C_1  and  C_2
REMARK    2  A    between atoms: C_2  and  C_3
REMARK    3  A    between atoms: C_2  and  C_4
REMARK    4  A    between atoms: C_4  and  C_5
REMARK    5  A    between atoms: C_5  and  O_7
REMARK    6  A    between atoms: O_7  and  C_8
REMARK    7  A    between atoms: C_21  and  C_22
REMARK    8  A    between atoms: C_21  and  C_23
REMARK    9  A    between atoms: C_24  and  O_25
REMARK   10  A    between atoms: O_25  and  C_26
REMARK                            x       y       z     vdW  Elec       q    Type
REMARK                         _______ _______ _______ _____ _____    ______ ____
ROOT
ATOM      1  C   UNL     1      -1.370  12.222  20.122  0.00  0.00    +0.000 C 
ATOM      2  C   UNL     1      -2.861  12.375  20.042  0.00  0.00    +0.000 A 
ATOM      3  C   UNL     1      -3.613  12.747  21.151  0.00  0.00    +0.000 A 
ATOM      4  C   UNL     1      -5.011  12.689  21.097  0.00  0.00    +0.000 A 
ATOM      5  C   UNL     1      -5.666  12.240  19.941  0.00  0.00    +0.000 A 
ATOM      6  C   UNL     1      -4.927  11.933  18.800  0.00  0.00    +0.000 A 
ATOM      7  C   UNL     1      -5.529  11.392  17.592  0.00  0.00    +0.000 A 
ATOM      8  C   UNL     1      -4.754  11.060  16.552  0.00  0.00    +0.000 A 
ATOM      9  C   UNL     1      -3.303  11.274  16.555  0.00  0.00    +0.000 A 
ATOM     10  O   UNL     1      -2.614  11.001  15.577  0.00  0.00    +0.000 OA
ATOM     11  O   UNL     1      -2.759  11.835  17.700  0.00  0.00    +0.000 OA
ATOM     12  C   UNL     1      -3.544  12.063  18.847  0.00  0.00    +0.000 A 
ATOM     13  O   UNL     1      -3.069  13.204  22.318  0.00  0.00    +0.000 OA
ATOM     14  C   UNL     1      -1.670  12.909  22.556  0.00  0.00    +0.000 C 
ATOM     15  C   UNL     1      -1.221  13.926  23.626  0.00  0.00    +0.000 C 
ATOM     16  C   UNL     1      -1.612  11.502  23.175  0.00  0.00    +0.000 C 
ATOM     17  C   UNL     1      -0.789  13.085  21.273  0.00  0.00    +0.000 C 
ENDROOT
BRANCH   1  18
ATOM     18  O   UNL     1      -0.912  10.853  20.334  0.00  0.00    +0.000 OA
BRANCH  18  19
ATOM     19  C   UNL     1      -0.140  10.217  19.418  0.00  0.00    +0.000 C 
ATOM     20  O   UNL     1      -0.412  10.048  18.239  0.00  0.00    +0.000 OA
BRANCH  19  21
ATOM     21  C   UNL     1       1.118   9.684  20.055  0.00  0.00    +0.000 C 
BRANCH  21  23
ATOM     22  C   UNL     1       1.539   7.313  20.811  0.00  0.00    +0.000 C 
ATOM     23  C   UNL     1       0.816   8.626  21.119  0.00  0.00    +0.000 C 
ATOM     24  C   UNL     1       1.214   9.136  22.504  0.00  0.00    +0.000 C 
ENDBRANCH  21  23
ENDBRANCH  19  21
ENDBRANCH  18  19
ENDBRANCH   1  18
BRANCH  17  25
ATOM     25  O   UNL     1       0.619  12.841  21.573  0.00  0.00    +0.000 OA
BRANCH  25  26
ATOM     26  C   UNL     1       1.490  13.936  21.269  0.00  0.00    +0.000 C 
ATOM     27  C   UNL     1       0.773  15.092  20.563  0.00  0.00    +0.000 C 
ATOM     28  C   UNL     1       0.829  15.115  19.040  0.00  0.00    +0.000 C 
ATOM     29  C   UNL     1       1.942  14.296  18.402  0.00  0.00    +0.000 C 
ATOM     30  C   UNL     1       2.439  13.142  19.251  0.00  0.00    +0.000 C 
ATOM     31  O   UNL     1       2.673  13.541  20.594  0.00  0.00    +0.000 OA
ENDBRANCH  25  26
ENDBRANCH  17  25
TORSDOF 6
ENDMDL
MODEL 2
REMARK VINA RESULT:      -6.3      2.564      6.442
REMARK  Name = 
REMARK  10 active torsions:
REMARK  status: ('A' for Active; 'I' for Inactive)
REMARK    1  A    between atoms: C_1  and  C_2
REMARK    2  A    between atoms: C_2  and  C_3
REMARK    3  A    between atoms: C_2  and  C_4
REMARK    4  A    between atoms: C_4  and  C_5
REMARK    5  A    between atoms: C_5  and  O_7
REMARK    6  A    between atoms: O_7  and  C_8
REMARK    7  A    between atoms: C_21  and  C_22
REMARK    8  A    between atoms: C_21  and  C_23
REMARK    9  A    between atoms: C_24  and  O_25
REMARK   10  A    between atoms: O_25  and  C_26
REMARK                            x       y       z     vdW  Elec       q    Type
REMARK                         _______ _______ _______ _____ _____    ______ ____
ROOT
ATOM      1  C   UNL     1      -3.332  13.535  21.932  0.00  0.00    +0.000 C 
ATOM      2  C   UNL     1      -2.883  14.460  23.025  0.00  0.00    +0.000 A 
ATOM      3  C   UNL     1      -1.670  14.275  23.680  0.00  0.00    +0.000 A 
ATOM      4  C   UNL     1      -1.372  15.030  24.821  0.00  0.00    +0.000 A 
ATOM      5  C   UNL     1      -2.290  15.961  25.326  0.00  0.00    +0.000 A 
ATOM      6  C   UNL     1      -3.477  16.206  24.638  0.00  0.00    +0.000 A 
ATOM      7  C   UNL     1      -4.509  17.100  25.139  0.00  0.00    +0.000 A 
ATOM      8  C   UNL     1      -5.654  17.245  24.460  0.00  0.00    +0.000 A 
ATOM      9  C   UNL     1      -5.896  16.573  23.179  0.00  0.00    +0.000 A 
ATOM     10  O   UNL     1      -6.935  16.749  22.550  0.00  0.00    +0.000 OA
ATOM     11  O   UNL     1      -4.878  15.764  22.698  0.00  0.00    +0.000 OA
ATOM     12  C   UNL     1      -3.728  15.499  23.468  0.00  0.00    +0.000 A 
ATOM     13  O   UNL     1      -0.708  13.399  23.262  0.00  0.00    +0.000 OA
ATOM     14  C   UNL     1      -1.121  12.345  22.356  0.00  0.00    +0.000 C 
ATOM     15  C   UNL     1       0.181  11.860  21.684  0.00  0.00    +0.000 C 
ATOM     16  C   UNL     1      -1.667  11.201  23.228  0.00  0.00    +0.000 C 
ATOM     17  C   UNL     1      -2.115  12.849  21.257  0.00  0.00    +0.000 C 
ENDROOT
BRANCH   1  18
ATOM     18  O   UNL     1      -4.238  12.477  22.367  0.00  0.00    +0.000 OA
BRANCH  18  19
ATOM     19  C   UNL     1      -5.564  12.523  22.085  0.00  0.00    +0.000 C 
ATOM     20  O   UNL     1      -6.477  12.341  22.877  0.00  0.00    +0.000 OA
BRANCH  19  21
ATOM     21  C   UNL     1      -5.792  12.794  20.620  0.00  0.00    +0.000 C 
BRANCH  21  23
ATOM     22  C   UNL     1      -7.632  12.907  18.896  0.00  0.00    +0.000 C 
ATOM     23  C   UNL     1      -7.091  12.159  20.116  0.00  0.00    +0.000 C 
ATOM     24  C   UNL     1      -6.866  10.686  19.776  0.00  0.00    +0.000 C 
ENDBRANCH  21  23
ENDBRANCH  19  21
ENDBRANCH  18  19
ENDBRANCH   1  18
BRANCH  17  25
ATOM     25  O   UNL     1      -2.454  11.771  20.331  0.00  0.00    +0.000 OA
BRANCH  25  26
ATOM     26  C   UNL     1      -2.367  12.128  18.946  0.00  0.00    +0.000 C 
ATOM     27  C   UNL     1      -3.503  11.535  18.104  0.00  0.00    +0.000 C 
ATOM     28  C   UNL     1      -3.222  10.215  17.395  0.00  0.00    +0.000 C 
ATOM     29  C   UNL     1      -1.756   9.860  17.202  0.00  0.00    +0.000 C 
ATOM     30  C   UNL     1      -0.818  10.496  18.211  0.00  0.00    +0.000 C 
ATOM     31  O   UNL     1      -1.090  11.879  18.383  0.00  0.00    +0.000 OA
ENDBRANCH  25  26
ENDBRANCH  17  25
TORSDOF 6
ENDMDL
MODEL 3
REMARK VINA RESULT:      -6.3      2.532      6.283
REMARK  Name = 
REMARK  10 active torsions:
REMARK  status: ('A' for Active; 'I' for Inactive)
REMARK    1  A    between atoms: C_1  and  C_2
REMARK    2  A    between atoms: C_2  and  C_3
REMARK    3  A    between atoms: C_2  and  C_4
REMARK    4  A    between atoms: C_4  and  C_5
REMARK    5  A    between atoms: C_5  and  O_7
REMARK    6  A    between atoms: O_7  and  C_8
REMARK    7  A    between atoms: C_21  and  C_22
REMARK    8  A    between atoms: C_21  and  C_23
REMARK    9  A    between atoms: C_24  and  O_25
REMARK   10  A    between atoms: O_25  and  C_26
REMARK                            x       y       z     vdW  Elec       q    Type
REMARK                         _______ _______ _______ _____ _____    ______ ____
ROOT
ATOM      1  C   UNL     1      -4.069  13.047  20.697  0.00  0.00    +0.000 C 
ATOM      2  C   UNL     1      -3.483  12.208  19.600  0.00  0.00    +0.000 A 
ATOM      3  C   UNL     1      -4.278  11.670  18.593  0.00  0.00    +0.000 A 
ATOM      4  C   UNL     1      -3.737  10.736  17.702  0.00  0.00    +0.000 A 
ATOM      5  C   UNL     1      -2.405  10.318  17.822  0.00  0.00    +0.000 A 
ATOM      6  C   UNL     1      -1.578  10.902  18.781  0.00  0.00    +0.000 A 
ATOM      7  C   UNL     1      -0.210  10.467  19.013  0.00  0.00    +0.000 A 
ATOM      8  C   UNL     1       0.511  11.029  19.992  0.00  0.00    +0.000 A 
ATOM      9  C   UNL     1      -0.009  12.123  20.820  0.00  0.00    +0.000 A 
ATOM     10  O   UNL     1       0.680  12.652  21.686  0.00  0.00    +0.000 OA
ATOM     11  O   UNL     1      -1.299  12.551  20.547  0.00  0.00    +0.000 OA
ATOM     12  C   UNL     1      -2.111  11.880  19.613  0.00  0.00    +0.000 A 
ATOM     13  O   UNL     1      -5.583  12.019  18.390  0.00  0.00    +0.000 OA
ATOM     14  C   UNL     1      -6.278  12.654  19.492  0.00  0.00    +0.000 C 
ATOM     15  C   UNL     1      -7.488  13.364  18.849  0.00  0.00    +0.000 C 
ATOM     16  C   UNL     1      -6.806  11.525  20.393  0.00  0.00    +0.000 C 
ATOM     17  C   UNL     1      -5.393  13.711  20.235  0.00  0.00    +0.000 C 
ENDROOT
BRANCH   1  18
ATOM     18  O   UNL     1      -4.358  12.319  21.928  0.00  0.00    +0.000 OA
BRANCH  18  19
ATOM     19  C   UNL     1      -3.572  12.449  23.026  0.00  0.00    +0.000 C 
ATOM     20  O   UNL     1      -2.813  11.601  23.474  0.00  0.00    +0.000 OA
BRANCH  19  21
ATOM     21  C   UNL     1      -3.780  13.792  23.678  0.00  0.00    +0.000 C 
BRANCH  21  23
ATOM     22  C   UNL     1      -1.610  14.956  23.124  0.00  0.00    +0.000 C 
ATOM     23  C   UNL     1      -2.474  14.363  24.239  0.00  0.00    +0.000 C 
ATOM     24  C   UNL     1      -2.770  15.422  25.299  0.00  0.00    +0.000 C 
ENDBRANCH  21  23
ENDBRANCH  19  21
ENDBRANCH  18  19
ENDBRANCH   1  18
BRANCH  17  25
ATOM     25  O   UNL     1      -6.152  14.370  21.295  0.00  0.00    +0.000 OA
BRANCH  25  26
ATOM     26  C   UNL     1      -6.324  15.781  21.114  0.00  0.00    +0.000 C 
ATOM     27  C   UNL     1      -4.996  16.531  20.967  0.00  0.00    +0.000 C 
ATOM     28  C   UNL     1      -4.404  17.145  22.231  0.00  0.00    +0.000 C 
ATOM     29  C   UNL     1      -5.373  17.364  23.382  0.00  0.00    +0.000 C 
ATOM     30  C   UNL     1      -6.579  16.443  23.372  0.00  0.00    +0.000 C 
ATOM     31  O   UNL     1      -7.174  16.370  22.085  0.00  0.00    +0.000 OA
ENDBRANCH  25  26
ENDBRANCH  17  25
TORSDOF 6
ENDMDL
MODEL 4
REMARK VINA RESULT:      -6.3      1.551      2.348
REMARK  Name = 
REMARK  10 active torsions:
REMARK  status: ('A' for Active; 'I' for Inactive)
REMARK    1  A    between atoms: C_1  and  C_2
REMARK    2  A    between atoms: C_2  and  C_3
REMARK    3  A    between atoms: C_2  and  C_4
REMARK    4  A    between atoms: C_4  and  C_5
REMARK    5  A    between atoms: C_5  and  O_7
REMARK    6  A    between atoms: O_7  and  C_8
REMARK    7  A    between atoms: C_21  and  C_22
REMARK    8  A    between atoms: C_21  and  C_23
REMARK    9  A    between atoms: C_24  and  O_25
REMARK   10  A    between atoms: O_25  and  C_26
REMARK                            x       y       z     vdW  Elec       q    Type
REMARK                         _______ _______ _______ _____ _____    ______ ____
ROOT
ATOM      1  C   UNL     1      -2.619  13.090  20.306  0.00  0.00    +0.000 C 
ATOM      2  C   UNL     1      -3.964  13.041  20.970  0.00  0.00    +0.000 A 
ATOM      3  C   UNL     1      -4.103  13.214  22.342  0.00  0.00    +0.000 A 
ATOM      4  C   UNL     1      -5.337  12.968  22.956  0.00  0.00    +0.000 A 
ATOM      5  C   UNL     1      -6.436  12.528  22.205  0.00  0.00    +0.000 A 
ATOM      6  C   UNL     1      -6.330  12.419  20.819  0.00  0.00    +0.000 A 
ATOM      7  C   UNL     1      -7.401  11.900  19.984  0.00  0.00    +0.000 A 
ATOM      8  C   UNL     1      -7.212  11.763  18.665  0.00  0.00    +0.000 A 
ATOM      9  C   UNL     1      -5.970  12.175  18.004  0.00  0.00    +0.000 A 
ATOM     10  O   UNL     1      -5.829  12.080  16.788  0.00  0.00    +0.000 OA
ATOM     11  O   UNL     1      -4.981  12.712  18.815  0.00  0.00    +0.000 OA
ATOM     12  C   UNL     1      -5.117  12.736  20.217  0.00  0.00    +0.000 A 
ATOM     13  O   UNL     1      -3.095  13.646  23.158  0.00  0.00    +0.000 OA
ATOM     14  C   UNL     1      -1.740  13.530  22.655  0.00  0.00    +0.000 C 
ATOM     15  C   UNL     1      -0.909  14.510  23.509  0.00  0.00    +0.000 C 
ATOM     16  C   UNL     1      -1.272  12.099  22.970  0.00  0.00    +0.000 C 
ATOM     17  C   UNL     1      -1.621  13.930  21.146  0.00  0.00    +0.000 C 
ENDROOT
BRANCH   1  18
ATOM     18  O   UNL     1      -2.006  11.785  20.082  0.00  0.00    +0.000 OA
BRANCH  18  19
ATOM     19  C   UNL     1      -1.698  11.355  18.833  0.00  0.00    +0.000 C 
ATOM     20  O   UNL     1      -2.000  11.906  17.785  0.00  0.00    +0.000 OA
BRANCH  19  21
ATOM     21  C   UNL     1      -0.949  10.048  18.886  0.00  0.00    +0.000 C 
BRANCH  21  23
ATOM     22  C   UNL     1       0.792   9.435  20.608  0.00  0.00    +0.000 C 
ATOM     23  C   UNL     1       0.502  10.239  19.339  0.00  0.00    +0.000 C 
ATOM     24  C   UNL     1       1.464   9.831  18.223  0.00  0.00    +0.000 C 
ENDBRANCH  21  23
ENDBRANCH  19  21
ENDBRANCH  18  19
ENDBRANCH   1  18
BRANCH  17  25
ATOM     25  O   UNL     1      -0.232  13.859  20.699  0.00  0.00    +0.000 OA
BRANCH  25  26
ATOM     26  C   UNL     1       0.041  14.578  19.490  0.00  0.00    +0.000 C 
ATOM     27  C   UNL     1       0.982  13.822  18.545  0.00  0.00    +0.000 C 
ATOM     28  C   UNL     1       2.467  14.154  18.634  0.00  0.00    +0.000 C 
ATOM     29  C   UNL     1       2.814  15.485  19.283  0.00  0.00    +0.000 C 
ATOM     30  C   UNL     1       1.771  16.001  20.256  0.00  0.00    +0.000 C 
ATOM     31  O   UNL     1       0.460  15.914  19.716  0.00  0.00    +0.000 OA
ENDBRANCH  25  26
ENDBRANCH  17  25
TORSDOF 6
ENDMDL
MODEL 5
REMARK VINA RESULT:      -6.3      2.067      6.431
REMARK  Name = 
REMARK  10 active torsions:
REMARK  status: ('A' for Active; 'I' for Inactive)
REMARK    1  A    between atoms: C_1  and  C_2
REMARK    2  A    between atoms: C_2  and  C_3
REMARK    3  A    between atoms: C_2  and  C_4
REMARK    4  A    between atoms: C_4  and  C_5
REMARK    5  A    between atoms: C_5  and  O_7
REMARK    6  A    between atoms: O_7  and  C_8
REMARK    7  A    between atoms: C_21  and  C_22
REMARK    8  A    between atoms: C_21  and  C_23
REMARK    9  A    between atoms: C_24  and  O_25
REMARK   10  A    between atoms: O_25  and  C_26
REMARK                            x       y       z     vdW  Elec       q    Type
REMARK                         _______ _______ _______ _____ _____    ______ ____
ROOT
ATOM      1  C   UNL     1      -0.717  12.861  18.913  0.00  0.00    +0.000 C 
ATOM      2  C   UNL     1       0.575  13.582  18.667  0.00  0.00    +0.000 A 
ATOM      3  C   UNL     1       1.782  12.898  18.569  0.00  0.00    +0.000 A 
ATOM      4  C   UNL     1       2.987  13.610  18.538  0.00  0.00    +0.000 A 
ATOM      5  C   UNL     1       2.996  15.009  18.624  0.00  0.00    +0.000 A 
ATOM      6  C   UNL     1       1.791  15.710  18.650  0.00  0.00    +0.000 A 
ATOM      7  C   UNL     1       1.721  17.154  18.814  0.00  0.00    +0.000 A 
ATOM      8  C   UNL     1       0.529  17.759  18.894  0.00  0.00    +0.000 A 
ATOM      9  C   UNL     1      -0.733  17.024  18.763  0.00  0.00    +0.000 A 
ATOM     10  O   UNL     1      -1.816  17.601  18.799  0.00  0.00    +0.000 OA
ATOM     11  O   UNL     1      -0.640  15.656  18.560  0.00  0.00    +0.000 OA
ATOM     12  C   UNL     1       0.601  14.992  18.610  0.00  0.00    +0.000 A 
ATOM     13  O   UNL     1       1.877  11.539  18.472  0.00  0.00    +0.000 OA
ATOM     14  C   UNL     1       0.726  10.763  18.891  0.00  0.00    +0.000 C 
ATOM     15  C   UNL     1       0.907   9.383  18.224  0.00  0.00    +0.000 C 
ATOM     16  C   UNL     1       0.846  10.581  20.414  0.00  0.00    +0.000 C 
ATOM     17  C   UNL     1      -0.629  11.391  18.422  0.00  0.00    +0.000 C 
ENDROOT
BRANCH   1  18
ATOM     18  O   UNL     1      -1.136  12.826  20.310  0.00  0.00    +0.000 OA
BRANCH  18  19
ATOM     19  C   UNL     1      -2.293  13.406  20.715  0.00  0.00    +0.000 C 
ATOM     20  O   UNL     1      -3.423  12.993  20.496  0.00  0.00    +0.000 OA
BRANCH  19  21
ATOM     21  C   UNL     1      -2.018  14.689  21.456  0.00  0.00    +0.000 C 
BRANCH  21  23
ATOM     22  C   UNL     1       0.117  15.808  22.206  0.00  0.00    +0.000 C 
ATOM     23  C   UNL     1      -0.780  14.577  22.351  0.00  0.00    +0.000 C 
ATOM     24  C   UNL     1      -1.195  14.394  23.811  0.00  0.00    +0.000 C 
ENDBRANCH  21  23
ENDBRANCH  19  21
ENDBRANCH  18  19
ENDBRANCH   1  18
BRANCH  17  25
ATOM     25  O   UNL     1      -1.755  10.545  18.811  0.00  0.00    +0.000 OA
BRANCH  25  26
ATOM     26  C   UNL     1      -2.368   9.837  17.727  0.00  0.00    +0.000 C 
ATOM     27  C   UNL     1      -2.149  10.515  16.370  0.00  0.00    +0.000 C 
ATOM     28  C   UNL     1      -3.244  11.455  15.880  0.00  0.00    +0.000 C 
ATOM     29  C   UNL     1      -4.611  11.278  16.524  0.00  0.00    +0.000 C 
ATOM     30  C   UNL     1      -4.578  10.665  17.911  0.00  0.00    +0.000 C 
ATOM     31  O   UNL     1      -3.732   9.526  17.962  0.00  0.00    +0.000 OA
ENDBRANCH  25  26
ENDBRANCH  17  25
TORSDOF 6
ENDMDL
MODEL 6
REMARK VINA RESULT:      -6.2      2.075      3.084
REMARK  Name = 
REMARK  10 active torsions:
REMARK  status: ('A' for Active; 'I' for Inactive)
REMARK    1  A    between atoms: C_1  and  C_2
REMARK    2  A    between atoms: C_2  and  C_3
REMARK    3  A    between atoms: C_2  and  C_4
REMARK    4  A    between atoms: C_4  and  C_5
REMARK    5  A    between atoms: C_5  and  O_7
REMARK    6  A    between atoms: O_7  and  C_8
REMARK    7  A    between atoms: C_21  and  C_22
REMARK    8  A    between atoms: C_21  and  C_23
REMARK    9  A    between atoms: C_24  and  O_25
REMARK   10  A    between atoms: O_25  and  C_26
REMARK                            x       y       z     vdW  Elec       q    Type
REMARK                         _______ _______ _______ _____ _____    ______ ____
ROOT
ATOM      1  C   UNL     1      -2.497  12.981  20.159  0.00  0.00    +0.000 C 
ATOM      2  C   UNL     1      -3.816  13.026  20.872  0.00  0.00    +0.000 A 
ATOM      3  C   UNL     1      -3.901  13.343  22.223  0.00  0.00    +0.000 A 
ATOM      4  C   UNL     1      -5.115  13.184  22.902  0.00  0.00    +0.000 A 
ATOM      5  C   UNL     1      -6.248  12.690  22.240  0.00  0.00    +0.000 A 
ATOM      6  C   UNL     1      -6.195  12.436  20.870  0.00  0.00    +0.000 A 
ATOM      7  C   UNL     1      -7.304  11.853  20.132  0.00  0.00    +0.000 A 
ATOM      8  C   UNL     1      -7.166  11.577  18.829  0.00  0.00    +0.000 A 
ATOM      9  C   UNL     1      -5.943  11.896  18.085  0.00  0.00    +0.000 A 
ATOM     10  O   UNL     1      -5.850  11.672  16.882  0.00  0.00    +0.000 OA
ATOM     11  O   UNL     1      -4.918  12.495  18.800  0.00  0.00    +0.000 OA
ATOM     12  C   UNL     1      -5.001  12.666  20.196  0.00  0.00    +0.000 A 
ATOM     13  O   UNL     1      -2.857  13.838  22.953  0.00  0.00    +0.000 OA
ATOM     14  C   UNL     1      -1.525  13.646  22.417  0.00  0.00    +0.000 C 
ATOM     15  C   UNL     1      -0.647  14.693  23.135  0.00  0.00    +0.000 C 
ATOM     16  C   UNL     1      -1.066  12.246  22.863  0.00  0.00    +0.000 C 
ATOM     17  C   UNL     1      -1.455  13.885  20.871  0.00  0.00    +0.000 C 
ENDROOT
BRANCH   1  18
ATOM     18  O   UNL     1      -1.911  11.649  20.050  0.00  0.00    +0.000 OA
BRANCH  18  19
ATOM     19  C   UNL     1      -1.204  11.276  18.954  0.00  0.00    +0.000 C 
ATOM     20  O   UNL     1      -0.107  10.736  18.953  0.00  0.00    +0.000 OA
BRANCH  19  21
ATOM     21  C   UNL     1      -1.933  11.655  17.692  0.00  0.00    +0.000 C 
BRANCH  21  23
ATOM     22  C   UNL     1      -3.231   9.495  17.553  0.00  0.00    +0.000 C 
ATOM     23  C   UNL     1      -2.261  10.432  16.831  0.00  0.00    +0.000 C 
ATOM     24  C   UNL     1      -2.847  10.868  15.489  0.00  0.00    +0.000 C 
ENDBRANCH  21  23
ENDBRANCH  19  21
ENDBRANCH  18  19
ENDBRANCH   1  18
BRANCH  17  25
ATOM     25  O   UNL     1      -0.085  13.742  20.385  0.00  0.00    +0.000 OA
BRANCH  25  26
ATOM     26  C   UNL     1       0.210  14.502  19.207  0.00  0.00    +0.000 C 
ATOM     27  C   UNL     1       1.600  14.202  18.635  0.00  0.00    +0.000 C 
ATOM     28  C   UNL     1       2.737  15.125  19.059  0.00  0.00    +0.000 C 
ATOM     29  C   UNL     1       2.324  16.484  19.605  0.00  0.00    +0.000 C 
ATOM     30  C   UNL     1       0.932  16.522  20.207  0.00  0.00    +0.000 C 
ATOM     31  O   UNL     1      -0.022  15.892  19.365  0.00  0.00    +0.000 OA
ENDBRANCH  25  26
ENDBRANCH  17  25
TORSDOF 6
ENDMDL
MODEL 7
REMARK VINA RESULT:      -6.2      0.921      1.436
REMARK  Name = 
REMARK  10 active torsions:
REMARK  status: ('A' for Active; 'I' for Inactive)
REMARK    1  A    between atoms: C_1  and  C_2
REMARK    2  A    between atoms: C_2  and  C_3
REMARK    3  A    between atoms: C_2  and  C_4
REMARK    4  A    between atoms: C_4  and  C_5
REMARK    5  A    between atoms: C_5  and  O_7
REMARK    6  A    between atoms: O_7  and  C_8
REMARK    7  A    between atoms: C_21  and  C_22
REMARK    8  A    between atoms: C_21  and  C_23
REMARK    9  A    between atoms: C_24  and  O_25
REMARK   10  A    between atoms: O_25  and  C_26
REMARK                            x       y       z     vdW  Elec       q    Type
REMARK                         _______ _______ _______ _____ _____    ______ ____
ROOT
ATOM      1  C   UNL     1      -1.497  12.423  20.208  0.00  0.00    +0.000 C 
ATOM      2  C   UNL     1      -2.996  12.482  20.194  0.00  0.00    +0.000 A 
ATOM      3  C   UNL     1      -3.721  12.814  21.333  0.00  0.00    +0.000 A 
ATOM      4  C   UNL     1      -5.113  12.669  21.342  0.00  0.00    +0.000 A 
ATOM      5  C   UNL     1      -5.789  12.172  20.218  0.00  0.00    +0.000 A 
ATOM      6  C   UNL     1      -5.083  11.904  19.047  0.00  0.00    +0.000 A 
ATOM      7  C   UNL     1      -5.703  11.319  17.868  0.00  0.00    +0.000 A 
ATOM      8  C   UNL     1      -4.955  11.028  16.796  0.00  0.00    +0.000 A 
ATOM      9  C   UNL     1      -3.522  11.333  16.734  0.00  0.00    +0.000 A 
ATOM     10  O   UNL     1      -2.860  11.096  15.728  0.00  0.00    +0.000 OA
ATOM     11  O   UNL     1      -2.964  11.935  17.852  0.00  0.00    +0.000 OA
ATOM     12  C   UNL     1      -3.710  12.121  19.032  0.00  0.00    +0.000 A 
ATOM     13  O   UNL     1      -3.155  13.312  22.473  0.00  0.00    +0.000 OA
ATOM     14  C   UNL     1      -1.731  13.107  22.650  0.00  0.00    +0.000 C 
ATOM     15  C   UNL     1      -1.300  14.158  23.695  0.00  0.00    +0.000 C 
ATOM     16  C   UNL     1      -1.558  11.710  23.272  0.00  0.00    +0.000 C 
ATOM     17  C   UNL     1      -0.921  13.329  21.329  0.00  0.00    +0.000 C 
ENDROOT
BRANCH   1  18
ATOM     18  O   UNL     1      -0.944  11.087  20.406  0.00  0.00    +0.000 OA
BRANCH  18  19
ATOM     19  C   UNL     1      -0.149  10.507  19.472  0.00  0.00    +0.000 C 
ATOM     20  O   UNL     1      -0.388  10.418  18.276  0.00  0.00    +0.000 OA
BRANCH  19  21
ATOM     21  C   UNL     1       1.087   9.925  20.108  0.00  0.00    +0.000 C 
BRANCH  21  23
ATOM     22  C   UNL     1       1.506   7.512  20.716  0.00  0.00    +0.000 C 
ATOM     23  C   UNL     1       0.749   8.791  21.080  0.00  0.00    +0.000 C 
ATOM     24  C   UNL     1       1.074   9.207  22.514  0.00  0.00    +0.000 C 
ENDBRANCH  21  23
ENDBRANCH  19  21
ENDBRANCH  18  19
ENDBRANCH   1  18
BRANCH  17  25
ATOM     25  O   UNL     1       0.512  13.175  21.567  0.00  0.00    +0.000 OA
BRANCH  25  26
ATOM     26  C   UNL     1       1.345  13.964  20.710  0.00  0.00    +0.000 C 
ATOM     27  C   UNL     1       2.796  13.471  20.667  0.00  0.00    +0.000 C 
ATOM     28  C   UNL     1       3.783  14.140  21.617  0.00  0.00    +0.000 C 
ATOM     29  C   UNL     1       3.370  15.500  22.158  0.00  0.00    +0.000 C 
ATOM     30  C   UNL     1       1.872  15.736  22.189  0.00  0.00    +0.000 C 
ATOM     31  O   UNL     1       1.255  15.356  20.968  0.00  0.00    +0.000 OA
ENDBRANCH  25  26
ENDBRANCH  17  25
TORSDOF 6
ENDMDL
MODEL 8
REMARK VINA RESULT:      -6.2      1.290      1.636
REMARK  Name = 
REMARK  10 active torsions:
REMARK  status: ('A' for Active; 'I' for Inactive)
REMARK    1  A    between atoms: C_1  and  C_2
REMARK    2  A    between atoms: C_2  and  C_3
REMARK    3  A    between atoms: C_2  and  C_4
REMARK    4  A    between atoms: C_4  and  C_5
REMARK    5  A    between atoms: C_5  and  O_7
REMARK    6  A    between atoms: O_7  and  C_8
REMARK    7  A    between atoms: C_21  and  C_22
REMARK    8  A    between atoms: C_21  and  C_23
REMARK    9  A    between atoms: C_24  and  O_25
REMARK   10  A    between atoms: O_25  and  C_26
REMARK                            x       y       z     vdW  Elec       q    Type
REMARK                         _______ _______ _______ _____ _____    ______ ____
ROOT
ATOM      1  C   UNL     1      -2.300  12.978  20.399  0.00  0.00    +0.000 C 
ATOM      2  C   UNL     1      -3.761  13.046  20.731  0.00  0.00    +0.000 A 
ATOM      3  C   UNL     1      -4.211  13.616  21.917  0.00  0.00    +0.000 A 
ATOM      4  C   UNL     1      -5.554  13.488  22.288  0.00  0.00    +0.000 A 
ATOM      5  C   UNL     1      -6.455  12.772  21.486  0.00  0.00    +0.000 A 
ATOM      6  C   UNL     1      -6.033  12.258  20.261  0.00  0.00    +0.000 A 
ATOM      7  C   UNL     1      -6.888  11.443  19.411  0.00  0.00    +0.000 A 
ATOM      8  C   UNL     1      -6.402  10.927  18.275  0.00  0.00    +0.000 A 
ATOM      9  C   UNL     1      -5.038  11.199  17.811  0.00  0.00    +0.000 A 
ATOM     10  O   UNL     1      -4.622  10.751  16.747  0.00  0.00    +0.000 OA
ATOM     11  O   UNL     1      -4.258  12.017  18.614  0.00  0.00    +0.000 OA
ATOM     12  C   UNL     1      -4.712  12.454  19.874  0.00  0.00    +0.000 A 
ATOM     13  O   UNL     1      -3.414  14.337  22.761  0.00  0.00    +0.000 OA
ATOM     14  C   UNL     1      -1.981  14.162  22.631  0.00  0.00    +0.000 C 
ATOM     15  C   UNL     1      -1.361  15.405  23.304  0.00  0.00    +0.000 C 
ATOM     16  C   UNL     1      -1.608  12.925  23.468  0.00  0.00    +0.000 C 
ATOM     17  C   UNL     1      -1.515  14.094  21.138  0.00  0.00    +0.000 C 
ENDROOT
BRANCH   1  18
ATOM     18  O   UNL     1      -1.661  11.708  20.730  0.00  0.00    +0.000 OA
BRANCH  18  19
ATOM     19  C   UNL     1      -0.853  11.072  19.845  0.00  0.00    +0.000 C 
ATOM     20  O   UNL     1      -1.075  10.911  18.654  0.00  0.00    +0.000 OA
BRANCH  19  21
ATOM     21  C   UNL     1       0.374  10.531  20.532  0.00  0.00    +0.000 C 
BRANCH  21  23
ATOM     22  C   UNL     1       1.110   8.178  21.071  0.00  0.00    +0.000 C 
ATOM     23  C   UNL     1       0.066   9.265  21.337  0.00  0.00    +0.000 C 
ATOM     24  C   UNL     1       0.006   9.586  22.829  0.00  0.00    +0.000 C 
ENDBRANCH  21  23
ENDBRANCH  19  21
ENDBRANCH  18  19
ENDBRANCH   1  18
BRANCH  17  25
ATOM     25  O   UNL     1      -0.061  13.981  21.054  0.00  0.00    +0.000 OA
BRANCH  25  26
ATOM     26  C   UNL     1       0.547  14.845  20.087  0.00  0.00    +0.000 C 
ATOM     27  C   UNL     1       0.636  14.214  18.693  0.00  0.00    +0.000 C 
ATOM     28  C   UNL     1       1.940  13.512  18.332  0.00  0.00    +0.000 C 
ATOM     29  C   UNL     1       3.155  13.895  19.163  0.00  0.00    +0.000 C 
ATOM     30  C   UNL     1       2.829  14.416  20.550  0.00  0.00    +0.000 C 
ATOM     31  O   UNL     1       1.788  15.382  20.517  0.00  0.00    +0.000 OA
ENDBRANCH  25  26
ENDBRANCH  17  25
TORSDOF 6
ENDMDL
MODEL 9
REMARK VINA RESULT:      -6.2      1.468      1.788
REMARK  Name = 
REMARK  10 active torsions:
REMARK  status: ('A' for Active; 'I' for Inactive)
REMARK    1  A    between atoms: C_1  and  C_2
REMARK    2  A    between atoms: C_2  and  C_3
REMARK    3  A    between atoms: C_2  and  C_4
REMARK    4  A    between atoms: C_4  and  C_5
REMARK    5  A    between atoms: C_5  and  O_7
REMARK    6  A    between atoms: O_7  and  C_8
REMARK    7  A    between atoms: C_21  and  C_22
REMARK    8  A    between atoms: C_21  and  C_23
REMARK    9  A    between atoms: C_24  and  O_25
REMARK   10  A    between atoms: O_25  and  C_26
REMARK                            x       y       z     vdW  Elec       q    Type
REMARK                         _______ _______ _______ _____ _____    ______ ____
ROOT
ATOM      1  C   UNL     1      -1.868  12.703  20.689  0.00  0.00    +0.000 C 
ATOM      2  C   UNL     1      -3.337  12.647  20.390  0.00  0.00    +0.000 A 
ATOM      3  C   UNL     1      -4.286  12.980  21.350  0.00  0.00    +0.000 A 
ATOM      4  C   UNL     1      -5.642  12.730  21.107  0.00  0.00    +0.000 A 
ATOM      5  C   UNL     1      -6.057  12.128  19.910  0.00  0.00    +0.000 A 
ATOM      6  C   UNL     1      -5.124  11.855  18.912  0.00  0.00    +0.000 A 
ATOM      7  C   UNL     1      -5.467  11.165  17.678  0.00  0.00    +0.000 A 
ATOM      8  C   UNL     1      -4.511  10.879  16.786  0.00  0.00    +0.000 A 
ATOM      9  C   UNL     1      -3.115  11.288  16.974  0.00  0.00    +0.000 A 
ATOM     10  O   UNL     1      -2.259  11.051  16.126  0.00  0.00    +0.000 OA
ATOM     11  O   UNL     1      -2.821  11.986  18.135  0.00  0.00    +0.000 OA
ATOM     12  C   UNL     1      -3.790  12.174  19.141  0.00  0.00    +0.000 A 
ATOM     13  O   UNL     1      -3.983  13.577  22.541  0.00  0.00    +0.000 OA
ATOM     14  C   UNL     1      -2.609  13.490  22.994  0.00  0.00    +0.000 C 
ATOM     15  C   UNL     1      -2.455  14.622  24.032  0.00  0.00    +0.000 C 
ATOM     16  C   UNL     1      -2.468  12.144  23.726  0.00  0.00    +0.000 C 
ATOM     17  C   UNL     1      -1.577  13.706  21.837  0.00  0.00    +0.000 C 
ENDROOT
BRANCH   1  18
ATOM     18  O   UNL     1      -1.278  11.425  21.071  0.00  0.00    +0.000 OA
BRANCH  18  19
ATOM     19  C   UNL     1      -0.000  11.109  20.741  0.00  0.00    +0.000 C 
ATOM     20  O   UNL     1       0.858  10.686  21.501  0.00  0.00    +0.000 OA
BRANCH  19  21
ATOM     21  C   UNL     1       0.261  11.391  19.283  0.00  0.00    +0.000 C 
BRANCH  21  23
ATOM     22  C   UNL     1       1.180   9.443  17.968  0.00  0.00    +0.000 C 
ATOM     23  C   UNL     1       1.527  10.689  18.784  0.00  0.00    +0.000 C 
ATOM     24  C   UNL     1       2.372  11.651  17.948  0.00  0.00    +0.000 C 
ENDBRANCH  21  23
ENDBRANCH  19  21
ENDBRANCH  18  19
ENDBRANCH   1  18
BRANCH  17  25
ATOM     25  O   UNL     1      -0.209  13.673  22.349  0.00  0.00    +0.000 OA
BRANCH  25  26
ATOM     26  C   UNL     1       0.537  14.875  22.128  0.00  0.00    +0.000 C 
ATOM     27  C   UNL     1       0.107  15.622  20.860  0.00  0.00    +0.000 C 
ATOM     28  C   UNL     1       0.900  15.341  19.588  0.00  0.00    +0.000 C 
ATOM     29  C   UNL     1       2.283  14.741  19.785  0.00  0.00    +0.000 C 
ATOM     30  C   UNL     1       2.454  13.966  21.078  0.00  0.00    +0.000 C 
ATOM     31  O   UNL     1       1.941  14.683  22.191  0.00  0.00    +0.000 OA
ENDBRANCH  25  26
ENDBRANCH  17  25
TORSDOF 6
ENDMDL
