MODEL 1
REMARK VINA RESULT:      -7.6      0.000      0.000
REMARK  Name = 
REMARK  8 active torsions:
REMARK  status: ('A' for Active; 'I' for Inactive)
REMARK    1  A    between atoms: C_1  and  O_2
REMARK    2  A    between atoms: O_2  and  C_3
REMARK    3  A    between atoms: C_5  and  S_6
REMARK    4  A    between atoms: S_6  and  N_9
REMARK    5  A    between atoms: C_12  and  C_13
REMARK    6  A    between atoms: C_15  and  O_16
REMARK    7  A    between atoms: O_16  and  C_17
REMARK    8  A    between atoms: C_19  and  C_20
REMARK                            x       y       z     vdW  Elec       q    Type
REMARK                         _______ _______ _______ _____ _____    ______ ____
ROOT
ATOM      1  C   UNL     1       2.900   3.295  18.270  0.00  0.00    +0.000 A 
ATOM      2  C   UNL     1       3.904   3.703  17.391  0.00  0.00    +0.000 A 
ATOM      3  C   UNL     1       4.201   5.056  17.218  0.00  0.00    +0.000 A 
ATOM      4  C   UNL     1       3.390   6.034  17.806  0.00  0.00    +0.000 A 
ATOM      5  C   UNL     1       2.342   5.616  18.639  0.00  0.00    +0.000 A 
ATOM      6  C   UNL     1       2.109   4.256  18.909  0.00  0.00    +0.000 A 
ATOM      7  C   UNL     1       1.004   3.882  19.859  0.00  0.00    +0.000 C 
ENDROOT
BRANCH   3   8
ATOM      8  S   UNL     1       5.595   5.497  16.220  0.00  0.00    +0.000 S 
ATOM      9  O   UNL     1       6.338   4.279  15.949  0.00  0.00    +0.000 OA
ATOM     10  O   UNL     1       5.208   6.426  15.171  0.00  0.00    +0.000 OA
BRANCH   8  11
ATOM     11  N   UNL     1       6.667   6.451  17.227  0.00  0.00    +0.000 N 
ATOM     12  C   UNL     1       7.402   5.871  18.237  0.00  0.00    +0.000 A 
ATOM     13  C   UNL     1       8.189   6.861  18.769  0.00  0.00    +0.000 A 
ATOM     14  C   UNL     1       7.905   8.013  18.002  0.00  0.00    +0.000 A 
ATOM     15  C   UNL     1       8.525   9.358  18.138  0.00  0.00    +0.000 C 
ATOM     16  N   UNL     1       6.983   7.773  17.061  0.00  0.00    +0.000 NA
ENDBRANCH   8  11
ENDBRANCH   3   8
BRANCH   1  18
ATOM     17  C   UNL     1       3.826   1.159  18.603  0.00  0.00    +0.000 C 
ATOM     18  O   UNL     1       2.651   1.972  18.532  0.00  0.00    +0.000 OA
ENDBRANCH   1  18
BRANCH   4  19
ATOM     19  O   UNL     1       3.653   7.344  17.518  0.00  0.00    +0.000 OA
ATOM     20  C   UNL     1       2.695   8.316  17.925  0.00  0.00    +0.000 C 
ENDBRANCH   4  19
TORSDOF 4
ENDMDL
MODEL 2
REMARK VINA RESULT:      -7.0      2.442      3.065
REMARK  Name = 
REMARK  8 active torsions:
REMARK  status: ('A' for Active; 'I' for Inactive)
REMARK    1  A    between atoms: C_1  and  O_2
REMARK    2  A    between atoms: O_2  and  C_3
REMARK    3  A    between atoms: C_5  and  S_6
REMARK    4  A    between atoms: S_6  and  N_9
REMARK    5  A    between atoms: C_12  and  C_13
REMARK    6  A    between atoms: C_15  and  O_16
REMARK    7  A    between atoms: O_16  and  C_17
REMARK    8  A    between atoms: C_19  and  C_20
REMARK                            x       y       z     vdW  Elec       q    Type
REMARK                         _______ _______ _______ _____ _____    ______ ____
ROOT
ATOM      1  C   UNL     1       3.611   3.419  19.573  0.00  0.00    +0.000 A 
ATOM      2  C   UNL     1       4.822   3.750  18.963  0.00  0.00    +0.000 A 
ATOM      3  C   UNL     1       4.992   4.979  18.323  0.00  0.00    +0.000 A 
ATOM      4  C   UNL     1       3.900   5.836  18.147  0.00  0.00    +0.000 A 
ATOM      5  C   UNL     1       2.668   5.468  18.708  0.00  0.00    +0.000 A 
ATOM      6  C   UNL     1       2.518   4.285  19.453  0.00  0.00    +0.000 A 
ATOM      7  C   UNL     1       1.183   3.982  20.077  0.00  0.00    +0.000 C 
ENDROOT
BRANCH   3   8
ATOM      8  S   UNL     1       6.601   5.404  17.720  0.00  0.00    +0.000 S 
ATOM      9  O   UNL     1       6.690   6.853  17.702  0.00  0.00    +0.000 OA
ATOM     10  O   UNL     1       7.621   4.566  18.330  0.00  0.00    +0.000 OA
BRANCH   8  11
ATOM     11  N   UNL     1       6.656   4.940  16.030  0.00  0.00    +0.000 N 
ATOM     12  C   UNL     1       5.723   4.079  15.495  0.00  0.00    +0.000 A 
ATOM     13  C   UNL     1       5.994   3.990  14.153  0.00  0.00    +0.000 A 
ATOM     14  C   UNL     1       7.087   4.859  13.937  0.00  0.00    +0.000 A 
ATOM     15  C   UNL     1       7.748   5.165  12.641  0.00  0.00    +0.000 C 
ATOM     16  N   UNL     1       7.495   5.442  15.072  0.00  0.00    +0.000 NA
ENDBRANCH   8  11
ENDBRANCH   3   8
BRANCH   1  18
ATOM     17  C   UNL     1       4.666   1.696  20.777  0.00  0.00    +0.000 C 
ATOM     18  O   UNL     1       3.445   2.262  20.290  0.00  0.00    +0.000 OA
ENDBRANCH   1  18
BRANCH   4  19
ATOM     19  O   UNL     1       4.090   6.976  17.418  0.00  0.00    +0.000 OA
ATOM     20  C   UNL     1       3.161   8.040  17.600  0.00  0.00    +0.000 C 
ENDBRANCH   4  19
TORSDOF 4
ENDMDL
MODEL 3
REMARK VINA RESULT:      -6.9      2.199      3.081
REMARK  Name = 
REMARK  8 active torsions:
REMARK  status: ('A' for Active; 'I' for Inactive)
REMARK    1  A    between atoms: C_1  and  O_2
REMARK    2  A    between atoms: O_2  and  C_3
REMARK    3  A    between atoms: C_5  and  S_6
REMARK    4  A    between atoms: S_6  and  N_9
REMARK    5  A    between atoms: C_12  and  C_13
REMARK    6  A    between atoms: C_15  and  O_16
REMARK    7  A    between atoms: O_16  and  C_17
REMARK    8  A    between atoms: C_19  and  C_20
REMARK                            x       y       z     vdW  Elec       q    Type
REMARK                         _______ _______ _______ _____ _____    ______ ____
ROOT
ATOM      1  C   UNL     1       3.360   4.808  19.260  0.00  0.00    +0.000 A 
ATOM      2  C   UNL     1       4.726   4.955  19.500  0.00  0.00    +0.000 A 
ATOM      3  C   UNL     1       5.658   4.776  18.477  0.00  0.00    +0.000 A 
ATOM      4  C   UNL     1       5.248   4.293  17.229  0.00  0.00    +0.000 A 
ATOM      5  C   UNL     1       3.877   4.086  17.014  0.00  0.00    +0.000 A 
ATOM      6  C   UNL     1       2.921   4.374  18.004  0.00  0.00    +0.000 A 
ATOM      7  C   UNL     1       1.463   4.185  17.684  0.00  0.00    +0.000 C 
ENDROOT
BRANCH   3   8
ATOM      8  S   UNL     1       7.358   5.143  18.806  0.00  0.00    +0.000 S 
ATOM      9  O   UNL     1       7.525   5.177  20.248  0.00  0.00    +0.000 OA
ATOM     10  O   UNL     1       8.232   4.371  17.936  0.00  0.00    +0.000 OA
BRANCH   8  11
ATOM     11  N   UNL     1       7.637   6.795  18.292  0.00  0.00    +0.000 N 
ATOM     12  C   UNL     1       6.858   7.381  17.318  0.00  0.00    +0.000 A 
ATOM     13  C   UNL     1       7.275   8.684  17.212  0.00  0.00    +0.000 A 
ATOM     14  C   UNL     1       8.290   8.829  18.184  0.00  0.00    +0.000 A 
ATOM     15  C   UNL     1       9.048  10.065  18.514  0.00  0.00    +0.000 C 
ATOM     16  N   UNL     1       8.515   7.687  18.847  0.00  0.00    +0.000 NA
ENDBRANCH   8  11
ENDBRANCH   3   8
BRANCH   1  18
ATOM     17  C   UNL     1       2.263   4.028  21.189  0.00  0.00    +0.000 C 
ATOM     18  O   UNL     1       2.416   5.070  20.220  0.00  0.00    +0.000 OA
ENDBRANCH   1  18
BRANCH   4  19
ATOM     19  O   UNL     1       6.210   4.028  16.295  0.00  0.00    +0.000 OA
ATOM     20  C   UNL     1       5.908   4.319  14.934  0.00  0.00    +0.000 C 
ENDBRANCH   4  19
TORSDOF 4
ENDMDL
MODEL 4
REMARK VINA RESULT:      -6.6      2.846      4.462
REMARK  Name = 
REMARK  8 active torsions:
REMARK  status: ('A' for Active; 'I' for Inactive)
REMARK    1  A    between atoms: C_1  and  O_2
REMARK    2  A    between atoms: O_2  and  C_3
REMARK    3  A    between atoms: C_5  and  S_6
REMARK    4  A    between atoms: S_6  and  N_9
REMARK    5  A    between atoms: C_12  and  C_13
REMARK    6  A    between atoms: C_15  and  O_16
REMARK    7  A    between atoms: O_16  and  C_17
REMARK    8  A    between atoms: C_19  and  C_20
REMARK                            x       y       z     vdW  Elec       q    Type
REMARK                         _______ _______ _______ _____ _____    ______ ____
ROOT
ATOM      1  C   UNL     1       2.549   6.941  19.336  0.00  0.00    +0.000 A 
ATOM      2  C   UNL     1       3.351   5.891  18.889  0.00  0.00    +0.000 A 
ATOM      3  C   UNL     1       3.288   4.633  19.492  0.00  0.00    +0.000 A 
ATOM      4  C   UNL     1       2.533   4.448  20.655  0.00  0.00    +0.000 A 
ATOM      5  C   UNL     1       1.777   5.528  21.137  0.00  0.00    +0.000 A 
ATOM      6  C   UNL     1       1.746   6.764  20.469  0.00  0.00    +0.000 A 
ATOM      7  C   UNL     1       0.867   7.860  21.008  0.00  0.00    +0.000 C 
ENDROOT
BRANCH   3   8
ATOM      8  S   UNL     1       4.204   3.301  18.769  0.00  0.00    +0.000 S 
ATOM      9  O   UNL     1       5.078   2.767  19.798  0.00  0.00    +0.000 OA
ATOM     10  O   UNL     1       3.339   2.456  17.962  0.00  0.00    +0.000 OA
BRANCH   8  11
ATOM     11  N   UNL     1       5.293   4.006  17.590  0.00  0.00    +0.000 N 
ATOM     12  C   UNL     1       6.486   4.579  17.972  0.00  0.00    +0.000 A 
ATOM     13  C   UNL     1       7.130   4.953  16.820  0.00  0.00    +0.000 A 
ATOM     14  C   UNL     1       6.280   4.539  15.770  0.00  0.00    +0.000 A 
ATOM     15  C   UNL     1       6.529   4.668  14.309  0.00  0.00    +0.000 C 
ATOM     16  N   UNL     1       5.163   3.960  16.228  0.00  0.00    +0.000 NA
ENDBRANCH   8  11
ENDBRANCH   3   8
BRANCH   1  18
ATOM     17  C   UNL     1       2.993   8.128  17.355  0.00  0.00    +0.000 C 
ATOM     18  O   UNL     1       2.519   8.158  18.705  0.00  0.00    +0.000 OA
ENDBRANCH   1  18
BRANCH   4  19
ATOM     19  O   UNL     1       2.591   3.229  21.271  0.00  0.00    +0.000 OA
ATOM     20  C   UNL     1       1.358   2.593  21.595  0.00  0.00    +0.000 C 
ENDBRANCH   4  19
TORSDOF 4
ENDMDL
MODEL 5
REMARK VINA RESULT:      -6.4      0.829      1.413
REMARK  Name = 
REMARK  8 active torsions:
REMARK  status: ('A' for Active; 'I' for Inactive)
REMARK    1  A    between atoms: C_1  and  O_2
REMARK    2  A    between atoms: O_2  and  C_3
REMARK    3  A    between atoms: C_5  and  S_6
REMARK    4  A    between atoms: S_6  and  N_9
REMARK    5  A    between atoms: C_12  and  C_13
REMARK    6  A    between atoms: C_15  and  O_16
REMARK    7  A    between atoms: O_16  and  C_17
REMARK    8  A    between atoms: C_19  and  C_20
REMARK                            x       y       z     vdW  Elec       q    Type
REMARK                         _______ _______ _______ _____ _____    ______ ____
ROOT
ATOM      1  C   UNL     1       2.775   3.166  17.754  0.00  0.00    +0.000 A 
ATOM      2  C   UNL     1       3.784   3.743  16.982  0.00  0.00    +0.000 A 
ATOM      3  C   UNL     1       4.039   5.114  17.042  0.00  0.00    +0.000 A 
ATOM      4  C   UNL     1       3.184   5.957  17.761  0.00  0.00    +0.000 A 
ATOM      5  C   UNL     1       2.131   5.377  18.485  0.00  0.00    +0.000 A 
ATOM      6  C   UNL     1       1.938   3.984  18.521  0.00  0.00    +0.000 A 
ATOM      7  C   UNL     1       0.826   3.426  19.367  0.00  0.00    +0.000 C 
ENDROOT
BRANCH   3   8
ATOM      8  S   UNL     1       5.439   5.754  16.169  0.00  0.00    +0.000 S 
ATOM      9  O   UNL     1       5.983   4.673  15.366  0.00  0.00    +0.000 OA
ATOM     10  O   UNL     1       5.149   7.068  15.617  0.00  0.00    +0.000 OA
BRANCH   8  11
ATOM     11  N   UNL     1       6.682   6.084  17.361  0.00  0.00    +0.000 N 
ATOM     12  C   UNL     1       7.348   7.289  17.383  0.00  0.00    +0.000 A 
ATOM     13  C   UNL     1       8.182   7.258  18.472  0.00  0.00    +0.000 A 
ATOM     14  C   UNL     1       7.939   6.011  19.090  0.00  0.00    +0.000 A 
ATOM     15  C   UNL     1       8.556   5.492  20.339  0.00  0.00    +0.000 C 
ATOM     16  N   UNL     1       7.027   5.291  18.423  0.00  0.00    +0.000 NA
ENDBRANCH   8  11
ENDBRANCH   3   8
BRANCH   1  18
ATOM     17  C   UNL     1       3.511   1.092  18.585  0.00  0.00    +0.000 C 
ATOM     18  O   UNL     1       2.564   1.811  17.788  0.00  0.00    +0.000 OA
ENDBRANCH   1  18
BRANCH   4  19
ATOM     19  O   UNL     1       3.409   7.304  17.700  0.00  0.00    +0.000 OA
ATOM     20  C   UNL     1       2.284   8.168  17.816  0.00  0.00    +0.000 C 
ENDBRANCH   4  19
TORSDOF 4
ENDMDL
MODEL 6
REMARK VINA RESULT:      -6.4      2.854      5.270
REMARK  Name = 
REMARK  8 active torsions:
REMARK  status: ('A' for Active; 'I' for Inactive)
REMARK    1  A    between atoms: C_1  and  O_2
REMARK    2  A    between atoms: O_2  and  C_3
REMARK    3  A    between atoms: C_5  and  S_6
REMARK    4  A    between atoms: S_6  and  N_9
REMARK    5  A    between atoms: C_12  and  C_13
REMARK    6  A    between atoms: C_15  and  O_16
REMARK    7  A    between atoms: O_16  and  C_17
REMARK    8  A    between atoms: C_19  and  C_20
REMARK                            x       y       z     vdW  Elec       q    Type
REMARK                         _______ _______ _______ _____ _____    ______ ____
ROOT
ATOM      1  C   UNL     1       5.716   4.285  14.391  0.00  0.00    +0.000 A 
ATOM      2  C   UNL     1       4.999   3.876  15.516  0.00  0.00    +0.000 A 
ATOM      3  C   UNL     1       5.490   4.104  16.803  0.00  0.00    +0.000 A 
ATOM      4  C   UNL     1       6.783   4.607  16.983  0.00  0.00    +0.000 A 
ATOM      5  C   UNL     1       7.525   4.958  15.845  0.00  0.00    +0.000 A 
ATOM      6  C   UNL     1       6.992   4.838  14.549  0.00  0.00    +0.000 A 
ATOM      7  C   UNL     1       7.821   5.290  13.378  0.00  0.00    +0.000 C 
ENDROOT
BRANCH   3   8
ATOM      8  S   UNL     1       4.455   3.714  18.185  0.00  0.00    +0.000 S 
ATOM      9  O   UNL     1       3.470   2.747  17.732  0.00  0.00    +0.000 OA
ATOM     10  O   UNL     1       5.249   3.516  19.387  0.00  0.00    +0.000 OA
BRANCH   8  11
ATOM     11  N   UNL     1       3.522   5.152  18.552  0.00  0.00    +0.000 N 
ATOM     12  C   UNL     1       2.978   5.351  19.802  0.00  0.00    +0.000 A 
ATOM     13  C   UNL     1       2.392   6.591  19.782  0.00  0.00    +0.000 A 
ATOM     14  C   UNL     1       2.654   7.106  18.493  0.00  0.00    +0.000 A 
ATOM     15  C   UNL     1       2.273   8.442  17.965  0.00  0.00    +0.000 C 
ATOM     16  N   UNL     1       3.343   6.239  17.739  0.00  0.00    +0.000 NA
ENDBRANCH   8  11
ENDBRANCH   3   8
BRANCH   1  18
ATOM     17  C   UNL     1       5.720   3.029  12.403  0.00  0.00    +0.000 C 
ATOM     18  O   UNL     1       5.217   4.161  13.120  0.00  0.00    +0.000 OA
ENDBRANCH   1  18
BRANCH   4  19
ATOM     19  O   UNL     1       7.260   4.709  18.259  0.00  0.00    +0.000 OA
ATOM     20  C   UNL     1       7.690   5.992  18.704  0.00  0.00    +0.000 C 
ENDBRANCH   4  19
TORSDOF 4
ENDMDL
MODEL 7
REMARK VINA RESULT:      -6.3      2.589      4.296
REMARK  Name = 
REMARK  8 active torsions:
REMARK  status: ('A' for Active; 'I' for Inactive)
REMARK    1  A    between atoms: C_1  and  O_2
REMARK    2  A    between atoms: O_2  and  C_3
REMARK    3  A    between atoms: C_5  and  S_6
REMARK    4  A    between atoms: S_6  and  N_9
REMARK    5  A    between atoms: C_12  and  C_13
REMARK    6  A    between atoms: C_15  and  O_16
REMARK    7  A    between atoms: O_16  and  C_17
REMARK    8  A    between atoms: C_19  and  C_20
REMARK                            x       y       z     vdW  Elec       q    Type
REMARK                         _______ _______ _______ _____ _____    ______ ____
ROOT
ATOM      1  C   UNL     1       2.923   6.538  19.187  0.00  0.00    +0.000 A 
ATOM      2  C   UNL     1       4.250   6.554  18.755  0.00  0.00    +0.000 A 
ATOM      3  C   UNL     1       5.025   5.393  18.774  0.00  0.00    +0.000 A 
ATOM      4  C   UNL     1       4.531   4.229  19.373  0.00  0.00    +0.000 A 
ATOM      5  C   UNL     1       3.217   4.238  19.865  0.00  0.00    +0.000 A 
ATOM      6  C   UNL     1       2.392   5.370  19.745  0.00  0.00    +0.000 A 
ATOM      7  C   UNL     1       0.973   5.291  20.239  0.00  0.00    +0.000 C 
ENDROOT
BRANCH   3   8
ATOM      8  S   UNL     1       6.641   5.442  18.055  0.00  0.00    +0.000 S 
ATOM      9  O   UNL     1       7.053   6.833  18.004  0.00  0.00    +0.000 OA
ATOM     10  O   UNL     1       7.487   4.397  18.610  0.00  0.00    +0.000 OA
BRANCH   8  11
ATOM     11  N   UNL     1       6.472   4.972  16.375  0.00  0.00    +0.000 N 
ATOM     12  C   UNL     1       5.316   4.384  15.911  0.00  0.00    +0.000 A 
ATOM     13  C   UNL     1       5.473   4.221  14.558  0.00  0.00    +0.000 A 
ATOM     14  C   UNL     1       6.740   4.771  14.263  0.00  0.00    +0.000 A 
ATOM     15  C   UNL     1       7.379   4.887  12.925  0.00  0.00    +0.000 C 
ATOM     16  N   UNL     1       7.354   5.232  15.360  0.00  0.00    +0.000 NA
ENDBRANCH   8  11
ENDBRANCH   3   8
BRANCH   1  18
ATOM     17  C   UNL     1       2.232   8.349  17.855  0.00  0.00    +0.000 C 
ATOM     18  O   UNL     1       2.110   7.638  19.091  0.00  0.00    +0.000 OA
ENDBRANCH   1  18
BRANCH   4  19
ATOM     19  O   UNL     1       5.367   3.151  19.467  0.00  0.00    +0.000 OA
ATOM     20  C   UNL     1       4.856   1.969  20.075  0.00  0.00    +0.000 C 
ENDBRANCH   4  19
TORSDOF 4
ENDMDL
MODEL 8
REMARK VINA RESULT:      -6.2      2.962      5.377
REMARK  Name = 
REMARK  8 active torsions:
REMARK  status: ('A' for Active; 'I' for Inactive)
REMARK    1  A    between atoms: C_1  and  O_2
REMARK    2  A    between atoms: O_2  and  C_3
REMARK    3  A    between atoms: C_5  and  S_6
REMARK    4  A    between atoms: S_6  and  N_9
REMARK    5  A    between atoms: C_12  and  C_13
REMARK    6  A    between atoms: C_15  and  O_16
REMARK    7  A    between atoms: O_16  and  C_17
REMARK    8  A    between atoms: C_19  and  C_20
REMARK                            x       y       z     vdW  Elec       q    Type
REMARK                         _______ _______ _______ _____ _____    ______ ____
ROOT
ATOM      1  C   UNL     1       5.736   4.317  14.418  0.00  0.00    +0.000 A 
ATOM      2  C   UNL     1       4.996   3.918  15.531  0.00  0.00    +0.000 A 
ATOM      3  C   UNL     1       5.469   4.143  16.825  0.00  0.00    +0.000 A 
ATOM      4  C   UNL     1       6.765   4.631  17.025  0.00  0.00    +0.000 A 
ATOM      5  C   UNL     1       7.530   4.970  15.899  0.00  0.00    +0.000 A 
ATOM      6  C   UNL     1       7.016   4.854  14.595  0.00  0.00    +0.000 A 
ATOM      7  C   UNL     1       7.869   5.293  13.436  0.00  0.00    +0.000 C 
ENDROOT
BRANCH   3   8
ATOM      8  S   UNL     1       4.408   3.768  18.192  0.00  0.00    +0.000 S 
ATOM      9  O   UNL     1       3.328   2.937  17.689  0.00  0.00    +0.000 OA
ATOM     10  O   UNL     1       5.185   3.412  19.368  0.00  0.00    +0.000 OA
BRANCH   8  11
ATOM     11  N   UNL     1       3.627   5.265  18.662  0.00  0.00    +0.000 N 
ATOM     12  C   UNL     1       3.556   6.336  17.798  0.00  0.00    +0.000 A 
ATOM     13  C   UNL     1       2.820   7.305  18.433  0.00  0.00    +0.000 A 
ATOM     14  C   UNL     1       2.443   6.735  19.669  0.00  0.00    +0.000 A 
ATOM     15  C   UNL     1       1.596   7.354  20.723  0.00  0.00    +0.000 C 
ATOM     16  N   UNL     1       2.927   5.495  19.817  0.00  0.00    +0.000 NA
ENDBRANCH   8  11
ENDBRANCH   3   8
BRANCH   1  18
ATOM     17  C   UNL     1       5.707   3.023  12.454  0.00  0.00    +0.000 C 
ATOM     18  O   UNL     1       5.256   4.196  13.139  0.00  0.00    +0.000 OA
ENDBRANCH   1  18
BRANCH   4  19
ATOM     19  O   UNL     1       7.223   4.730  18.309  0.00  0.00    +0.000 OA
ATOM     20  C   UNL     1       7.682   6.003  18.752  0.00  0.00    +0.000 C 
ENDBRANCH   4  19
TORSDOF 4
ENDMDL
MODEL 9
REMARK VINA RESULT:      -6.2      2.392      3.310
REMARK  Name = 
REMARK  8 active torsions:
REMARK  status: ('A' for Active; 'I' for Inactive)
REMARK    1  A    between atoms: C_1  and  O_2
REMARK    2  A    between atoms: O_2  and  C_3
REMARK    3  A    between atoms: C_5  and  S_6
REMARK    4  A    between atoms: S_6  and  N_9
REMARK    5  A    between atoms: C_12  and  C_13
REMARK    6  A    between atoms: C_15  and  O_16
REMARK    7  A    between atoms: O_16  and  C_17
REMARK    8  A    between atoms: C_19  and  C_20
REMARK                            x       y       z     vdW  Elec       q    Type
REMARK                         _______ _______ _______ _____ _____    ______ ____
ROOT
ATOM      1  C   UNL     1       3.511   3.361  19.628  0.00  0.00    +0.000 A 
ATOM      2  C   UNL     1       4.692   3.700  18.968  0.00  0.00    +0.000 A 
ATOM      3  C   UNL     1       4.805   4.905  18.272  0.00  0.00    +0.000 A 
ATOM      4  C   UNL     1       3.682   5.722  18.094  0.00  0.00    +0.000 A 
ATOM      5  C   UNL     1       2.479   5.342  18.708  0.00  0.00    +0.000 A 
ATOM      6  C   UNL     1       2.389   4.188  19.506  0.00  0.00    +0.000 A 
ATOM      7  C   UNL     1       1.083   3.874  20.184  0.00  0.00    +0.000 C 
ENDROOT
BRANCH   3   8
ATOM      8  S   UNL     1       6.381   5.351  17.601  0.00  0.00    +0.000 S 
ATOM      9  O   UNL     1       6.484   6.798  17.658  0.00  0.00    +0.000 OA
ATOM     10  O   UNL     1       7.425   4.473  18.105  0.00  0.00    +0.000 OA
BRANCH   8  11
ATOM     11  N   UNL     1       6.336   4.981  15.889  0.00  0.00    +0.000 N 
ATOM     12  C   UNL     1       7.413   5.246  15.072  0.00  0.00    +0.000 A 
ATOM     13  C   UNL     1       7.090   4.767  13.827  0.00  0.00    +0.000 A 
ATOM     14  C   UNL     1       5.810   4.187  13.974  0.00  0.00    +0.000 A 
ATOM     15  C   UNL     1       5.017   3.485  12.930  0.00  0.00    +0.000 C 
ATOM     16  N   UNL     1       5.345   4.310  15.224  0.00  0.00    +0.000 NA
ENDBRANCH   8  11
ENDBRANCH   3   8
BRANCH   1  18
ATOM     17  C   UNL     1       4.657   1.670  20.792  0.00  0.00    +0.000 C 
ATOM     18  O   UNL     1       3.401   2.231  20.398  0.00  0.00    +0.000 OA
ENDBRANCH   1  18
BRANCH   4  19
ATOM     19  O   UNL     1       3.816   6.835  17.312  0.00  0.00    +0.000 OA
ATOM     20  C   UNL     1       3.085   7.998  17.688  0.00  0.00    +0.000 C 
ENDBRANCH   4  19
TORSDOF 4
ENDMDL
