MODEL 1
REMARK VINA RESULT:      -8.0      0.000      0.000
REMARK  Name = 
REMARK  6 active torsions:
REMARK  status: ('A' for Active; 'I' for Inactive)
REMARK    1  A    between atoms: C_2  and  C_3
REMARK    2  A    between atoms: C_8  and  O_9
REMARK    3  A    between atoms: O_9  and  C_10
REMARK    4  A    between atoms: C_10  and  C_11
REMARK    5  A    between atoms: C_15  and  C_16
REMARK    6  A    between atoms: C_22  and  C_23
REMARK                            x       y       z     vdW  Elec       q    Type
REMARK                         _______ _______ _______ _____ _____    ______ ____
ROOT
ATOM      1  C   UNL     1       2.395   7.287  19.238  0.00  0.00    +0.000 C 
ATOM      2  O   UNL     1       2.010   7.409  20.403  0.00  0.00    +0.000 OA
ATOM      3  N   UNL     1       3.265   6.286  18.833  0.00  0.00    +0.000 N 
ATOM      4  N   UNL     1       3.818   6.262  17.580  0.00  0.00    +0.000 NA
ATOM      5  C   UNL     1       4.640   5.256  17.545  0.00  0.00    +0.000 C 
ATOM      6  C   UNL     1       4.737   4.460  18.817  0.00  0.00    +0.000 C 
ATOM      7  C   UNL     1       3.755   5.216  19.700  0.00  0.00    +0.000 C 
ENDROOT
BRANCH   5   8
ATOM      8  C   UNL     1       5.395   4.948  16.354  0.00  0.00    +0.000 A 
ATOM      9  C   UNL     1       4.986   4.202  15.263  0.00  0.00    +0.000 A 
ATOM     10  C   UNL     1       5.999   4.090  14.267  0.00  0.00    +0.000 A 
ATOM     11  C   UNL     1       7.148   4.755  14.627  0.00  0.00    +0.000 A 
ATOM     12  S   UNL     1       6.999   5.510  16.152  0.00  0.00    +0.000 S 
ENDBRANCH   5   8
BRANCH   7  13
ATOM     13  C   UNL     1       2.639   4.324  20.133  0.00  0.00    +0.000 A 
ATOM     14  C   UNL     1       2.209   3.844  21.356  0.00  0.00    +0.000 A 
ATOM     15  C   UNL     1       1.083   3.033  21.097  0.00  0.00    +0.000 A 
ATOM     16  C   UNL     1       0.881   3.080  19.738  0.00  0.00    +0.000 A 
ATOM     17  O   UNL     1       1.811   3.871  19.144  0.00  0.00    +0.000 OA
ENDBRANCH   7  13
BRANCH   1  18
ATOM     18  C   UNL     1       1.882   8.208  18.128  0.00  0.00    +0.000 C 
BRANCH  18  19
ATOM     19  O   UNL     1       1.819   9.561  18.545  0.00  0.00    +0.000 OA
BRANCH  19  25
ATOM     20  C   UNL     1       0.203  11.240  19.503  0.00  0.00    +0.000 A 
ATOM     21  C   UNL     1      -1.126  11.706  19.448  0.00  0.00    +0.000 A 
ATOM     22  C   UNL     1      -2.055  11.141  18.577  0.00  0.00    +0.000 A 
ATOM     23  C   UNL     1      -1.666  10.098  17.749  0.00  0.00    +0.000 A 
ATOM     24  C   UNL     1      -0.352   9.628  17.796  0.00  0.00    +0.000 A 
ATOM     25  C   UNL     1       0.603  10.183  18.668  0.00  0.00    +0.000 A 
BRANCH  20  27
ATOM     26  N   UNL     1       1.754  12.439  21.200  0.00  0.00    +0.000 NA
ATOM     27  C   UNL     1       1.054  11.911  20.442  0.00  0.00    +0.000 C 
ENDBRANCH  20  27
ENDBRANCH  19  25
ENDBRANCH  18  19
ENDBRANCH   1  18
TORSDOF 6
ENDMDL
MODEL 2
REMARK VINA RESULT:      -7.6      0.814      1.096
REMARK  Name = 
REMARK  6 active torsions:
REMARK  status: ('A' for Active; 'I' for Inactive)
REMARK    1  A    between atoms: C_2  and  C_3
REMARK    2  A    between atoms: C_8  and  O_9
REMARK    3  A    between atoms: O_9  and  C_10
REMARK    4  A    between atoms: C_10  and  C_11
REMARK    5  A    between atoms: C_15  and  C_16
REMARK    6  A    between atoms: C_22  and  C_23
REMARK                            x       y       z     vdW  Elec       q    Type
REMARK                         _______ _______ _______ _____ _____    ______ ____
ROOT
ATOM      1  C   UNL     1       2.359   7.479  19.107  0.00  0.00    +0.000 C 
ATOM      2  O   UNL     1       1.862   7.598  20.228  0.00  0.00    +0.000 OA
ATOM      3  N   UNL     1       3.276   6.488  18.790  0.00  0.00    +0.000 N 
ATOM      4  N   UNL     1       3.947   6.469  17.595  0.00  0.00    +0.000 NA
ATOM      5  C   UNL     1       4.781   5.474  17.642  0.00  0.00    +0.000 C 
ATOM      6  C   UNL     1       4.765   4.681  18.920  0.00  0.00    +0.000 C 
ATOM      7  C   UNL     1       3.694   5.426  19.703  0.00  0.00    +0.000 C 
ENDROOT
BRANCH   5   8
ATOM      8  C   UNL     1       5.651   5.173  16.530  0.00  0.00    +0.000 A 
ATOM      9  C   UNL     1       6.916   5.678  16.285  0.00  0.00    +0.000 A 
ATOM     10  C   UNL     1       7.483   5.170  15.081  0.00  0.00    +0.000 A 
ATOM     11  C   UNL     1       6.636   4.292  14.446  0.00  0.00    +0.000 A 
ATOM     12  S   UNL     1       5.173   4.083  15.301  0.00  0.00    +0.000 S 
ENDBRANCH   5   8
BRANCH   7  13
ATOM     13  C   UNL     1       2.552   4.521  20.028  0.00  0.00    +0.000 A 
ATOM     14  C   UNL     1       1.475   4.034  19.311  0.00  0.00    +0.000 A 
ATOM     15  C   UNL     1       0.742   3.213  20.195  0.00  0.00    +0.000 A 
ATOM     16  C   UNL     1       1.421   3.232  21.390  0.00  0.00    +0.000 A 
ATOM     17  O   UNL     1       2.529   4.012  21.296  0.00  0.00    +0.000 OA
ENDBRANCH   7  13
BRANCH   1  18
ATOM     18  C   UNL     1       1.944   8.392  17.950  0.00  0.00    +0.000 C 
BRANCH  18  19
ATOM     19  O   UNL     1       1.814   9.743  18.357  0.00  0.00    +0.000 OA
BRANCH  19  25
ATOM     20  C   UNL     1       0.132  11.246  19.480  0.00  0.00    +0.000 A 
ATOM     21  C   UNL     1      -1.223  11.636  19.492  0.00  0.00    +0.000 A 
ATOM     22  C   UNL     1      -2.142  11.085  18.601  0.00  0.00    +0.000 A 
ATOM     23  C   UNL     1      -1.716  10.134  17.686  0.00  0.00    +0.000 A 
ATOM     24  C   UNL     1      -0.377   9.739  17.666  0.00  0.00    +0.000 A 
ATOM     25  C   UNL     1       0.568  10.281  18.556  0.00  0.00    +0.000 A 
BRANCH  20  27
ATOM     26  N   UNL     1       1.634  12.410  21.244  0.00  0.00    +0.000 NA
ATOM     27  C   UNL     1       0.969  11.892  20.449  0.00  0.00    +0.000 C 
ENDBRANCH  20  27
ENDBRANCH  19  25
ENDBRANCH  18  19
ENDBRANCH   1  18
TORSDOF 6
ENDMDL
MODEL 3
REMARK VINA RESULT:      -7.6      1.538      2.057
REMARK  Name = 
REMARK  6 active torsions:
REMARK  status: ('A' for Active; 'I' for Inactive)
REMARK    1  A    between atoms: C_2  and  C_3
REMARK    2  A    between atoms: C_8  and  O_9
REMARK    3  A    between atoms: O_9  and  C_10
REMARK    4  A    between atoms: C_10  and  C_11
REMARK    5  A    between atoms: C_15  and  C_16
REMARK    6  A    between atoms: C_22  and  C_23
REMARK                            x       y       z     vdW  Elec       q    Type
REMARK                         _______ _______ _______ _____ _____    ______ ____
ROOT
ATOM      1  C   UNL     1       2.482   7.439  19.056  0.00  0.00    +0.000 C 
ATOM      2  O   UNL     1       2.047   7.551  20.204  0.00  0.00    +0.000 OA
ATOM      3  N   UNL     1       3.318   6.403  18.665  0.00  0.00    +0.000 N 
ATOM      4  N   UNL     1       3.928   6.381  17.439  0.00  0.00    +0.000 NA
ATOM      5  C   UNL     1       4.698   5.335  17.415  0.00  0.00    +0.000 C 
ATOM      6  C   UNL     1       4.692   4.503  18.668  0.00  0.00    +0.000 C 
ATOM      7  C   UNL     1       3.709   5.288  19.524  0.00  0.00    +0.000 C 
ENDROOT
BRANCH   5   8
ATOM      8  C   UNL     1       5.494   5.017  16.253  0.00  0.00    +0.000 A 
ATOM      9  C   UNL     1       5.107   4.302  15.133  0.00  0.00    +0.000 A 
ATOM     10  C   UNL     1       6.158   4.168  14.180  0.00  0.00    +0.000 A 
ATOM     11  C   UNL     1       7.313   4.787  14.601  0.00  0.00    +0.000 A 
ATOM     12  S   UNL     1       7.124   5.524  16.130  0.00  0.00    +0.000 S 
ENDBRANCH   5   8
BRANCH   7  13
ATOM     13  C   UNL     1       2.529   4.446  19.879  0.00  0.00    +0.000 A 
ATOM     14  C   UNL     1       1.433   3.978  19.175  0.00  0.00    +0.000 A 
ATOM     15  C   UNL     1       0.663   3.224  20.087  0.00  0.00    +0.000 A 
ATOM     16  C   UNL     1       1.339   3.259  21.283  0.00  0.00    +0.000 A 
ATOM     17  O   UNL     1       2.479   3.987  21.165  0.00  0.00    +0.000 OA
ENDBRANCH   7  13
BRANCH   1  18
ATOM     18  C   UNL     1       2.071   8.413  17.948  0.00  0.00    +0.000 C 
BRANCH  18  19
ATOM     19  O   UNL     1       0.707   8.785  18.046  0.00  0.00    +0.000 OA
BRANCH  19  25
ATOM     20  C   UNL     1      -0.882  10.734  18.206  0.00  0.00    +0.000 A 
ATOM     21  C   UNL     1      -0.971  12.117  18.461  0.00  0.00    +0.000 A 
ATOM     22  C   UNL     1       0.161  12.870  18.770  0.00  0.00    +0.000 A 
ATOM     23  C   UNL     1       1.399  12.246  18.825  0.00  0.00    +0.000 A 
ATOM     24  C   UNL     1       1.498  10.876  18.573  0.00  0.00    +0.000 A 
ATOM     25  C   UNL     1       0.370  10.097  18.259  0.00  0.00    +0.000 A 
BRANCH  20  27
ATOM     26  N   UNL     1      -3.133   9.568  17.662  0.00  0.00    +0.000 NA
ATOM     27  C   UNL     1      -2.122  10.081  17.902  0.00  0.00    +0.000 C 
ENDBRANCH  20  27
ENDBRANCH  19  25
ENDBRANCH  18  19
ENDBRANCH   1  18
TORSDOF 6
ENDMDL
MODEL 4
REMARK VINA RESULT:      -7.6      1.397      1.859
REMARK  Name = 
REMARK  6 active torsions:
REMARK  status: ('A' for Active; 'I' for Inactive)
REMARK    1  A    between atoms: C_2  and  C_3
REMARK    2  A    between atoms: C_8  and  O_9
REMARK    3  A    between atoms: O_9  and  C_10
REMARK    4  A    between atoms: C_10  and  C_11
REMARK    5  A    between atoms: C_15  and  C_16
REMARK    6  A    between atoms: C_22  and  C_23
REMARK                            x       y       z     vdW  Elec       q    Type
REMARK                         _______ _______ _______ _____ _____    ______ ____
ROOT
ATOM      1  C   UNL     1       2.393   7.423  19.161  0.00  0.00    +0.000 C 
ATOM      2  O   UNL     1       1.958   7.527  20.310  0.00  0.00    +0.000 OA
ATOM      3  N   UNL     1       3.246   6.403  18.768  0.00  0.00    +0.000 N 
ATOM      4  N   UNL     1       3.855   6.392  17.541  0.00  0.00    +0.000 NA
ATOM      5  C   UNL     1       4.644   5.359  17.516  0.00  0.00    +0.000 C 
ATOM      6  C   UNL     1       4.654   4.527  18.768  0.00  0.00    +0.000 C 
ATOM      7  C   UNL     1       3.659   5.294  19.626  0.00  0.00    +0.000 C 
ENDROOT
BRANCH   5   8
ATOM      8  C   UNL     1       5.442   5.056  16.352  0.00  0.00    +0.000 A 
ATOM      9  C   UNL     1       5.068   4.331  15.234  0.00  0.00    +0.000 A 
ATOM     10  C   UNL     1       6.119   4.218  14.279  0.00  0.00    +0.000 A 
ATOM     11  C   UNL     1       7.262   4.862  14.696  0.00  0.00    +0.000 A 
ATOM     12  S   UNL     1       7.061   5.597  16.223  0.00  0.00    +0.000 S 
ENDBRANCH   5   8
BRANCH   7  13
ATOM     13  C   UNL     1       2.494   4.431  19.982  0.00  0.00    +0.000 A 
ATOM     14  C   UNL     1       1.396   3.960  19.285  0.00  0.00    +0.000 A 
ATOM     15  C   UNL     1       0.647   3.181  20.194  0.00  0.00    +0.000 A 
ATOM     16  C   UNL     1       1.337   3.208  21.383  0.00  0.00    +0.000 A 
ATOM     17  O   UNL     1       2.467   3.953  21.262  0.00  0.00    +0.000 OA
ENDBRANCH   7  13
BRANCH   1  18
ATOM     18  C   UNL     1       1.964   8.390  18.055  0.00  0.00    +0.000 C 
BRANCH  18  19
ATOM     19  O   UNL     1       0.947   9.278  18.488  0.00  0.00    +0.000 OA
BRANCH  19  25
ATOM     20  C   UNL     1       0.978  11.160  20.164  0.00  0.00    +0.000 A 
ATOM     21  C   UNL     1       1.434  12.473  20.397  0.00  0.00    +0.000 A 
ATOM     22  C   UNL     1       2.182  13.160  19.443  0.00  0.00    +0.000 A 
ATOM     23  C   UNL     1       2.483  12.540  18.239  0.00  0.00    +0.000 A 
ATOM     24  C   UNL     1       2.035  11.240  17.996  0.00  0.00    +0.000 A 
ATOM     25  C   UNL     1       1.279  10.527  18.945  0.00  0.00    +0.000 A 
BRANCH  20  27
ATOM     26  N   UNL     1      -0.399  10.108  22.092  0.00  0.00    +0.000 NA
ATOM     27  C   UNL     1       0.221  10.569  21.229  0.00  0.00    +0.000 C 
ENDBRANCH  20  27
ENDBRANCH  19  25
ENDBRANCH  18  19
ENDBRANCH   1  18
TORSDOF 6
ENDMDL
MODEL 5
REMARK VINA RESULT:      -7.3      1.594      2.098
REMARK  Name = 
REMARK  6 active torsions:
REMARK  status: ('A' for Active; 'I' for Inactive)
REMARK    1  A    between atoms: C_2  and  C_3
REMARK    2  A    between atoms: C_8  and  O_9
REMARK    3  A    between atoms: O_9  and  C_10
REMARK    4  A    between atoms: C_10  and  C_11
REMARK    5  A    between atoms: C_15  and  C_16
REMARK    6  A    between atoms: C_22  and  C_23
REMARK                            x       y       z     vdW  Elec       q    Type
REMARK                         _______ _______ _______ _____ _____    ______ ____
ROOT
ATOM      1  C   UNL     1       2.493   7.500  19.041  0.00  0.00    +0.000 C 
ATOM      2  O   UNL     1       2.025   7.616  20.175  0.00  0.00    +0.000 OA
ATOM      3  N   UNL     1       3.376   6.490  18.689  0.00  0.00    +0.000 N 
ATOM      4  N   UNL     1       4.018   6.470  17.479  0.00  0.00    +0.000 NA
ATOM      5  C   UNL     1       4.827   5.453  17.494  0.00  0.00    +0.000 C 
ATOM      6  C   UNL     1       4.819   4.643  18.761  0.00  0.00    +0.000 C 
ATOM      7  C   UNL     1       3.787   5.405  19.578  0.00  0.00    +0.000 C 
ENDROOT
BRANCH   5   8
ATOM      8  C   UNL     1       5.663   5.145  16.358  0.00  0.00    +0.000 A 
ATOM      9  C   UNL     1       6.919   5.650  16.070  0.00  0.00    +0.000 A 
ATOM     10  C   UNL     1       7.450   5.133  14.853  0.00  0.00    +0.000 A 
ATOM     11  C   UNL     1       6.584   4.249  14.251  0.00  0.00    +0.000 A 
ATOM     12  S   UNL     1       5.149   4.045  15.152  0.00  0.00    +0.000 S 
ENDBRANCH   5   8
BRANCH   7  13
ATOM     13  C   UNL     1       2.630   4.526  19.919  0.00  0.00    +0.000 A 
ATOM     14  C   UNL     1       1.982   4.200  21.096  0.00  0.00    +0.000 A 
ATOM     15  C   UNL     1       0.948   3.303  20.751  0.00  0.00    +0.000 A 
ATOM     16  C   UNL     1       1.013   3.148  19.386  0.00  0.00    +0.000 A 
ATOM     17  O   UNL     1       2.021   3.896  18.870  0.00  0.00    +0.000 OA
ENDBRANCH   7  13
BRANCH   1  18
ATOM     18  C   UNL     1       2.075   8.439  17.906  0.00  0.00    +0.000 C 
BRANCH  18  19
ATOM     19  O   UNL     1       0.708   8.802  17.992  0.00  0.00    +0.000 OA
BRANCH  19  25
ATOM     20  C   UNL     1      -0.898  10.732  18.208  0.00  0.00    +0.000 A 
ATOM     21  C   UNL     1      -0.998  12.107  18.500  0.00  0.00    +0.000 A 
ATOM     22  C   UNL     1       0.128  12.861  18.826  0.00  0.00    +0.000 A 
ATOM     23  C   UNL     1       1.372  12.247  18.861  0.00  0.00    +0.000 A 
ATOM     24  C   UNL     1       1.482  10.885  18.572  0.00  0.00    +0.000 A 
ATOM     25  C   UNL     1       0.360  10.105  18.240  0.00  0.00    +0.000 A 
BRANCH  20  27
ATOM     26  N   UNL     1      -3.140   9.562  17.634  0.00  0.00    +0.000 NA
ATOM     27  C   UNL     1      -2.133  10.076  17.890  0.00  0.00    +0.000 C 
ENDBRANCH  20  27
ENDBRANCH  19  25
ENDBRANCH  18  19
ENDBRANCH   1  18
TORSDOF 6
ENDMDL
MODEL 6
REMARK VINA RESULT:      -7.3      0.994      1.125
REMARK  Name = 
REMARK  6 active torsions:
REMARK  status: ('A' for Active; 'I' for Inactive)
REMARK    1  A    between atoms: C_2  and  C_3
REMARK    2  A    between atoms: C_8  and  O_9
REMARK    3  A    between atoms: O_9  and  C_10
REMARK    4  A    between atoms: C_10  and  C_11
REMARK    5  A    between atoms: C_15  and  C_16
REMARK    6  A    between atoms: C_22  and  C_23
REMARK                            x       y       z     vdW  Elec       q    Type
REMARK                         _______ _______ _______ _____ _____    ______ ____
ROOT
ATOM      1  C   UNL     1       2.372   7.077  19.396  0.00  0.00    +0.000 C 
ATOM      2  O   UNL     1       1.933   7.153  20.546  0.00  0.00    +0.000 OA
ATOM      3  N   UNL     1       3.322   6.143  19.013  0.00  0.00    +0.000 N 
ATOM      4  N   UNL     1       3.925   6.177  17.783  0.00  0.00    +0.000 NA
ATOM      5  C   UNL     1       4.813   5.228  17.768  0.00  0.00    +0.000 C 
ATOM      6  C   UNL     1       4.912   4.419  19.031  0.00  0.00    +0.000 C 
ATOM      7  C   UNL     1       3.847   5.093  19.884  0.00  0.00    +0.000 C 
ENDROOT
BRANCH   5   8
ATOM      8  C   UNL     1       5.634   4.991  16.604  0.00  0.00    +0.000 A 
ATOM      9  C   UNL     1       6.969   5.312  16.431  0.00  0.00    +0.000 A 
ATOM     10  C   UNL     1       7.458   4.941  15.145  0.00  0.00    +0.000 A 
ATOM     11  C   UNL     1       6.483   4.346  14.378  0.00  0.00    +0.000 A 
ATOM     12  S   UNL     1       4.995   4.234  15.208  0.00  0.00    +0.000 S 
ENDBRANCH   5   8
BRANCH   7  13
ATOM     13  C   UNL     1       2.777   4.123  20.257  0.00  0.00    +0.000 A 
ATOM     14  C   UNL     1       2.259   3.676  21.460  0.00  0.00    +0.000 A 
ATOM     15  C   UNL     1       1.249   2.743  21.140  0.00  0.00    +0.000 A 
ATOM     16  C   UNL     1       1.197   2.688  19.767  0.00  0.00    +0.000 A 
ATOM     17  O   UNL     1       2.111   3.531  19.222  0.00  0.00    +0.000 OA
ENDBRANCH   7  13
BRANCH   1  18
ATOM     18  C   UNL     1       1.843   7.981  18.279  0.00  0.00    +0.000 C 
BRANCH  18  19
ATOM     19  O   UNL     1       1.793   9.341  18.673  0.00  0.00    +0.000 OA
BRANCH  19  25
ATOM     20  C   UNL     1       0.006  10.335  20.146  0.00  0.00    +0.000 A 
ATOM     21  C   UNL     1      -1.273  10.928  20.148  0.00  0.00    +0.000 A 
ATOM     22  C   UNL     1      -1.977  11.132  18.963  0.00  0.00    +0.000 A 
ATOM     23  C   UNL     1      -1.410  10.742  17.759  0.00  0.00    +0.000 A 
ATOM     24  C   UNL     1      -0.145  10.152  17.745  0.00  0.00    +0.000 A 
ATOM     25  C   UNL     1       0.585   9.936  18.928  0.00  0.00    +0.000 A 
BRANCH  20  27
ATOM     26  N   UNL     1       1.100  10.061  22.481  0.00  0.00    +0.000 NA
ATOM     27  C   UNL     1       0.620  10.185  21.433  0.00  0.00    +0.000 C 
ENDBRANCH  20  27
ENDBRANCH  19  25
ENDBRANCH  18  19
ENDBRANCH   1  18
TORSDOF 6
ENDMDL
MODEL 7
REMARK VINA RESULT:      -7.3      1.443      1.898
REMARK  Name = 
REMARK  6 active torsions:
REMARK  status: ('A' for Active; 'I' for Inactive)
REMARK    1  A    between atoms: C_2  and  C_3
REMARK    2  A    between atoms: C_8  and  O_9
REMARK    3  A    between atoms: O_9  and  C_10
REMARK    4  A    between atoms: C_10  and  C_11
REMARK    5  A    between atoms: C_15  and  C_16
REMARK    6  A    between atoms: C_22  and  C_23
REMARK                            x       y       z     vdW  Elec       q    Type
REMARK                         _______ _______ _______ _____ _____    ______ ____
ROOT
ATOM      1  C   UNL     1       2.419   7.426  19.155  0.00  0.00    +0.000 C 
ATOM      2  O   UNL     1       1.937   7.516  20.286  0.00  0.00    +0.000 OA
ATOM      3  N   UNL     1       3.322   6.435  18.798  0.00  0.00    +0.000 N 
ATOM      4  N   UNL     1       3.978   6.445  17.595  0.00  0.00    +0.000 NA
ATOM      5  C   UNL     1       4.802   5.440  17.603  0.00  0.00    +0.000 C 
ATOM      6  C   UNL     1       4.794   4.610  18.856  0.00  0.00    +0.000 C 
ATOM      7  C   UNL     1       3.740   5.343  19.674  0.00  0.00    +0.000 C 
ENDROOT
BRANCH   5   8
ATOM      8  C   UNL     1       5.656   5.164  16.471  0.00  0.00    +0.000 A 
ATOM      9  C   UNL     1       6.914   5.680  16.215  0.00  0.00    +0.000 A 
ATOM     10  C   UNL     1       7.464   5.197  14.993  0.00  0.00    +0.000 A 
ATOM     11  C   UNL     1       6.611   4.325  14.356  0.00  0.00    +0.000 A 
ATOM     12  S   UNL     1       5.163   4.093  15.231  0.00  0.00    +0.000 S 
ENDBRANCH   5   8
BRANCH   7  13
ATOM     13  C   UNL     1       2.594   4.440  19.987  0.00  0.00    +0.000 A 
ATOM     14  C   UNL     1       1.953   4.067  21.155  0.00  0.00    +0.000 A 
ATOM     15  C   UNL     1       0.928   3.171  20.782  0.00  0.00    +0.000 A 
ATOM     16  C   UNL     1       0.990   3.063  19.413  0.00  0.00    +0.000 A 
ATOM     17  O   UNL     1       1.989   3.840  18.919  0.00  0.00    +0.000 OA
ENDBRANCH   7  13
BRANCH   1  18
ATOM     18  C   UNL     1       1.998   8.375  18.030  0.00  0.00    +0.000 C 
BRANCH  18  19
ATOM     19  O   UNL     1       0.971   9.262  18.439  0.00  0.00    +0.000 OA
BRANCH  19  25
ATOM     20  C   UNL     1       0.962  11.152  20.106  0.00  0.00    +0.000 A 
ATOM     21  C   UNL     1       1.410  12.467  20.344  0.00  0.00    +0.000 A 
ATOM     22  C   UNL     1       2.178  13.151  19.403  0.00  0.00    +0.000 A 
ATOM     23  C   UNL     1       2.506  12.526  18.209  0.00  0.00    +0.000 A 
ATOM     24  C   UNL     1       2.067  11.224  17.962  0.00  0.00    +0.000 A 
ATOM     25  C   UNL     1       1.290  10.515  18.897  0.00  0.00    +0.000 A 
BRANCH  20  27
ATOM     26  N   UNL     1      -0.434  10.083  22.012  0.00  0.00    +0.000 NA
ATOM     27  C   UNL     1       0.182  10.565  21.157  0.00  0.00    +0.000 C 
ENDBRANCH  20  27
ENDBRANCH  19  25
ENDBRANCH  18  19
ENDBRANCH   1  18
TORSDOF 6
ENDMDL
MODEL 8
REMARK VINA RESULT:      -7.3      3.113      7.022
REMARK  Name = 
REMARK  6 active torsions:
REMARK  status: ('A' for Active; 'I' for Inactive)
REMARK    1  A    between atoms: C_2  and  C_3
REMARK    2  A    between atoms: C_8  and  O_9
REMARK    3  A    between atoms: O_9  and  C_10
REMARK    4  A    between atoms: C_10  and  C_11
REMARK    5  A    between atoms: C_15  and  C_16
REMARK    6  A    between atoms: C_22  and  C_23
REMARK                            x       y       z     vdW  Elec       q    Type
REMARK                         _______ _______ _______ _____ _____    ______ ____
ROOT
ATOM      1  C   UNL     1       6.263   4.426  18.428  0.00  0.00    +0.000 C 
ATOM      2  O   UNL     1       7.371   4.060  18.030  0.00  0.00    +0.000 OA
ATOM      3  N   UNL     1       5.595   5.519  17.896  0.00  0.00    +0.000 N 
ATOM      4  N   UNL     1       4.448   6.016  18.456  0.00  0.00    +0.000 NA
ATOM      5  C   UNL     1       4.122   7.076  17.779  0.00  0.00    +0.000 C 
ATOM      6  C   UNL     1       5.045   7.424  16.644  0.00  0.00    +0.000 C 
ATOM      7  C   UNL     1       6.070   6.305  16.760  0.00  0.00    +0.000 C 
ENDROOT
BRANCH   5   8
ATOM      8  C   UNL     1       2.948   7.847  18.114  0.00  0.00    +0.000 A 
ATOM      9  C   UNL     1       2.351   8.847  17.368  0.00  0.00    +0.000 A 
ATOM     10  C   UNL     1       1.209   9.404  18.014  0.00  0.00    +0.000 A 
ATOM     11  C   UNL     1       0.969   8.810  19.231  0.00  0.00    +0.000 A 
ATOM     12  S   UNL     1       2.110   7.590  19.584  0.00  0.00    +0.000 S 
ENDBRANCH   5   8
BRANCH   7  13
ATOM     13  C   UNL     1       6.097   5.484  15.514  0.00  0.00    +0.000 A 
ATOM     14  C   UNL     1       5.184   4.655  14.887  0.00  0.00    +0.000 A 
ATOM     15  C   UNL     1       5.820   4.162  13.727  0.00  0.00    +0.000 A 
ATOM     16  C   UNL     1       7.072   4.730  13.704  0.00  0.00    +0.000 A 
ATOM     17  O   UNL     1       7.246   5.544  14.777  0.00  0.00    +0.000 OA
ENDBRANCH   7  13
BRANCH   1  18
ATOM     18  C   UNL     1       5.507   3.649  19.508  0.00  0.00    +0.000 C 
BRANCH  18  19
ATOM     19  O   UNL     1       4.351   3.010  18.994  0.00  0.00    +0.000 OA
BRANCH  19  25
ATOM     20  C   UNL     1       1.887   3.376  19.374  0.00  0.00    +0.000 A 
ATOM     21  C   UNL     1       0.850   3.273  20.323  0.00  0.00    +0.000 A 
ATOM     22  C   UNL     1       1.092   2.797  21.610  0.00  0.00    +0.000 A 
ATOM     23  C   UNL     1       2.379   2.418  21.964  0.00  0.00    +0.000 A 
ATOM     24  C   UNL     1       3.414   2.517  21.032  0.00  0.00    +0.000 A 
ATOM     25  C   UNL     1       3.193   2.996  19.728  0.00  0.00    +0.000 A 
BRANCH  20  27
ATOM     26  N   UNL     1       1.191   4.272  17.042  0.00  0.00    +0.000 NA
ATOM     27  C   UNL     1       1.500   3.880  18.088  0.00  0.00    +0.000 C 
ENDBRANCH  20  27
ENDBRANCH  19  25
ENDBRANCH  18  19
ENDBRANCH   1  18
TORSDOF 6
ENDMDL
MODEL 9
REMARK VINA RESULT:      -7.3      1.349      1.893
REMARK  Name = 
REMARK  6 active torsions:
REMARK  status: ('A' for Active; 'I' for Inactive)
REMARK    1  A    between atoms: C_2  and  C_3
REMARK    2  A    between atoms: C_8  and  O_9
REMARK    3  A    between atoms: O_9  and  C_10
REMARK    4  A    between atoms: C_10  and  C_11
REMARK    5  A    between atoms: C_15  and  C_16
REMARK    6  A    between atoms: C_22  and  C_23
REMARK                            x       y       z     vdW  Elec       q    Type
REMARK                         _______ _______ _______ _____ _____    ______ ____
ROOT
ATOM      1  C   UNL     1       2.213   7.425  19.198  0.00  0.00    +0.000 C 
ATOM      2  O   UNL     1       1.814   7.565  20.356  0.00  0.00    +0.000 OA
ATOM      3  N   UNL     1       3.140   6.460  18.832  0.00  0.00    +0.000 N 
ATOM      4  N   UNL     1       3.701   6.423  17.583  0.00  0.00    +0.000 NA
ATOM      5  C   UNL     1       4.579   5.465  17.587  0.00  0.00    +0.000 C 
ATOM      6  C   UNL     1       4.712   4.720  18.887  0.00  0.00    +0.000 C 
ATOM      7  C   UNL     1       3.684   5.451  19.739  0.00  0.00    +0.000 C 
ENDROOT
BRANCH   5   8
ATOM      8  C   UNL     1       5.357   5.158  16.411  0.00  0.00    +0.000 A 
ATOM      9  C   UNL     1       4.976   4.398  15.319  0.00  0.00    +0.000 A 
ATOM     10  C   UNL     1       6.007   4.292  14.341  0.00  0.00    +0.000 A 
ATOM     11  C   UNL     1       7.141   4.976  14.715  0.00  0.00    +0.000 A 
ATOM     12  S   UNL     1       6.956   5.741  16.230  0.00  0.00    +0.000 S 
ENDBRANCH   5   8
BRANCH   7  13
ATOM     13  C   UNL     1       2.617   4.514  20.198  0.00  0.00    +0.000 A 
ATOM     14  C   UNL     1       2.238   4.016  21.432  0.00  0.00    +0.000 A 
ATOM     15  C   UNL     1       1.141   3.159  21.199  0.00  0.00    +0.000 A 
ATOM     16  C   UNL     1       0.904   3.196  19.845  0.00  0.00    +0.000 A 
ATOM     17  O   UNL     1       1.786   4.026  19.230  0.00  0.00    +0.000 OA
ENDBRANCH   7  13
BRANCH   1  18
ATOM     18  C   UNL     1       1.656   8.275  18.054  0.00  0.00    +0.000 C 
BRANCH  18  19
ATOM     19  O   UNL     1       1.754   9.663  18.325  0.00  0.00    +0.000 OA
BRANCH  19  25
ATOM     20  C   UNL     1      -0.591  10.483  18.745  0.00  0.00    +0.000 A 
ATOM     21  C   UNL     1      -1.412  11.179  19.656  0.00  0.00    +0.000 A 
ATOM     22  C   UNL     1      -0.902  11.681  20.851  0.00  0.00    +0.000 A 
ATOM     23  C   UNL     1       0.440  11.493  21.151  0.00  0.00    +0.000 A 
ATOM     24  C   UNL     1       1.262  10.806  20.255  0.00  0.00    +0.000 A 
ATOM     25  C   UNL     1       0.769  10.291  19.043  0.00  0.00    +0.000 A 
BRANCH  20  27
ATOM     26  N   UNL     1      -1.782   9.636  16.603  0.00  0.00    +0.000 NA
ATOM     27  C   UNL     1      -1.243  10.019  17.555  0.00  0.00    +0.000 C 
ENDBRANCH  20  27
ENDBRANCH  19  25
ENDBRANCH  18  19
ENDBRANCH   1  18
TORSDOF 6
ENDMDL
