MODEL 1
REMARK VINA RESULT:      -7.0      0.000      0.000
REMARK  Name = 
REMARK  5 active torsions:
REMARK  status: ('A' for Active; 'I' for Inactive)
REMARK    1  A    between atoms: C_1  and  C_2
REMARK    2  A    between atoms: C_6  and  C_7
REMARK    3  A    between atoms: C_7  and  N_8
REMARK    4  A    between atoms: N_8  and  C_9
REMARK    5  A    between atoms: N_8  and  C_15
REMARK                            x       y       z     vdW  Elec       q    Type
REMARK                         _______ _______ _______ _____ _____    ______ ____
ROOT
ATOM      1  N   UNL     1       4.042   4.728  17.323  0.00  0.00    +0.000 NA
ENDROOT
BRANCH   1   2
ATOM      2  C   UNL     1       3.255   3.539  17.740  0.00  0.00    +0.000 C 
ATOM      3  C   UNL     1       1.755   3.898  17.903  0.00  0.00    +0.000 C 
ATOM      4  C   UNL     1       0.923   2.731  18.419  0.00  0.00    +0.000 C 
ATOM      5  O   UNL     1       1.479   2.223  19.628  0.00  0.00    +0.000 OA
ATOM      6  C   UNL     1       2.795   1.714  19.433  0.00  0.00    +0.000 C 
ATOM      7  C   UNL     1       3.750   2.825  19.009  0.00  0.00    +0.000 C 
ENDBRANCH   1   2
BRANCH   1   8
ATOM      8  C   UNL     1       5.161   4.569  16.379  0.00  0.00    +0.000 C 
ATOM      9  C   UNL     1       5.294   5.503  15.181  0.00  0.00    +0.000 C 
ATOM     10  C   UNL     1       6.576   4.975  14.556  0.00  0.00    +0.000 C 
ATOM     11  N   UNL     1       7.476   4.719  15.689  0.00  0.00    +0.000 NA
ATOM     12  C   UNL     1       6.616   4.531  16.886  0.00  0.00    +0.000 C 
ATOM     13  H   UNL     1       8.065   5.539  15.839  0.00  0.00    +0.000 HD
ENDBRANCH   1   8
BRANCH   1  14
ATOM     14  C   UNL     1       4.306   5.682  18.422  0.00  0.00    +0.000 C 
BRANCH  14  20
ATOM     15  C   UNL     1       0.600   8.067  21.054  0.00  0.00    +0.000 C 
ATOM     16  C   UNL     1       1.548   7.958  19.892  0.00  0.00    +0.000 A 
ATOM     17  C   UNL     1       1.521   8.956  18.904  0.00  0.00    +0.000 A 
ATOM     18  C   UNL     1       2.374   8.895  17.809  0.00  0.00    +0.000 A 
ATOM     19  C   UNL     1       3.258   7.830  17.680  0.00  0.00    +0.000 A 
ATOM     20  C   UNL     1       3.302   6.801  18.639  0.00  0.00    +0.000 A 
ATOM     21  C   UNL     1       2.447   6.881  19.757  0.00  0.00    +0.000 A 
ATOM     22 CL   UNL     1       2.493   5.653  20.984  0.00  0.00    +0.000 Cl
ENDBRANCH  14  20
ENDBRANCH   1  14
TORSDOF 4
ENDMDL
MODEL 2
REMARK VINA RESULT:      -7.0      3.005      4.974
REMARK  Name = 
REMARK  5 active torsions:
REMARK  status: ('A' for Active; 'I' for Inactive)
REMARK    1  A    between atoms: C_1  and  C_2
REMARK    2  A    between atoms: C_6  and  C_7
REMARK    3  A    between atoms: C_7  and  N_8
REMARK    4  A    between atoms: N_8  and  C_9
REMARK    5  A    between atoms: N_8  and  C_15
REMARK                            x       y       z     vdW  Elec       q    Type
REMARK                         _______ _______ _______ _____ _____    ______ ____
ROOT
ATOM      1  N   UNL     1       5.725   5.089  15.925  0.00  0.00    +0.000 NA
ENDROOT
BRANCH   1   2
ATOM      2  C   UNL     1       5.944   5.000  14.459  0.00  0.00    +0.000 C 
ATOM      3  C   UNL     1       5.353   3.683  13.890  0.00  0.00    +0.000 C 
ATOM      4  C   UNL     1       5.635   3.504  12.404  0.00  0.00    +0.000 C 
ATOM      5  O   UNL     1       7.031   3.611  12.149  0.00  0.00    +0.000 OA
ATOM      6  C   UNL     1       7.537   4.897  12.494  0.00  0.00    +0.000 C 
ATOM      7  C   UNL     1       7.401   5.149  13.992  0.00  0.00    +0.000 C 
ENDBRANCH   1   2
BRANCH   1   8
ATOM      8  C   UNL     1       6.783   5.639  16.789  0.00  0.00    +0.000 C 
ATOM      9  C   UNL     1       6.675   7.063  17.325  0.00  0.00    +0.000 C 
ATOM     10  C   UNL     1       7.943   7.145  18.160  0.00  0.00    +0.000 C 
ATOM     11  N   UNL     1       8.026   5.852  18.856  0.00  0.00    +0.000 NA
ATOM     12  C   UNL     1       7.236   4.882  18.054  0.00  0.00    +0.000 C 
ATOM     13  H   UNL     1       7.596   5.940  19.776  0.00  0.00    +0.000 HD
ENDBRANCH   1   8
BRANCH   1  14
ATOM     14  C   UNL     1       5.024   3.918  16.494  0.00  0.00    +0.000 C 
BRANCH  14  20
ATOM     15  C   UNL     1       1.338   2.454  19.753  0.00  0.00    +0.000 C 
ATOM     16  C   UNL     1       2.096   3.501  18.983  0.00  0.00    +0.000 A 
ATOM     17  C   UNL     1       1.699   4.843  19.100  0.00  0.00    +0.000 A 
ATOM     18  C   UNL     1       2.365   5.844  18.404  0.00  0.00    +0.000 A 
ATOM     19  C   UNL     1       3.430   5.517  17.573  0.00  0.00    +0.000 A 
ATOM     20  C   UNL     1       3.846   4.181  17.415  0.00  0.00    +0.000 A 
ATOM     21  C   UNL     1       3.178   3.174  18.141  0.00  0.00    +0.000 A 
ATOM     22 CL   UNL     1       3.680   1.517  18.005  0.00  0.00    +0.000 Cl
ENDBRANCH  14  20
ENDBRANCH   1  14
TORSDOF 4
ENDMDL
MODEL 3
REMARK VINA RESULT:      -7.0      2.215      4.056
REMARK  Name = 
REMARK  5 active torsions:
REMARK  status: ('A' for Active; 'I' for Inactive)
REMARK    1  A    between atoms: C_1  and  C_2
REMARK    2  A    between atoms: C_6  and  C_7
REMARK    3  A    between atoms: C_7  and  N_8
REMARK    4  A    between atoms: N_8  and  C_9
REMARK    5  A    between atoms: N_8  and  C_15
REMARK                            x       y       z     vdW  Elec       q    Type
REMARK                         _______ _______ _______ _____ _____    ______ ____
ROOT
ATOM      1  N   UNL     1       3.856   5.055  18.024  0.00  0.00    +0.000 NA
ENDROOT
BRANCH   1   2
ATOM      2  C   UNL     1       4.903   5.705  17.195  0.00  0.00    +0.000 C 
ATOM      3  C   UNL     1       5.257   4.828  15.964  0.00  0.00    +0.000 C 
ATOM      4  C   UNL     1       6.393   5.411  15.134  0.00  0.00    +0.000 C 
ATOM      5  O   UNL     1       7.531   5.655  15.954  0.00  0.00    +0.000 OA
ATOM      6  C   UNL     1       7.256   6.613  16.972  0.00  0.00    +0.000 C 
ATOM      7  C   UNL     1       6.194   6.091  17.935  0.00  0.00    +0.000 C 
ENDBRANCH   1   2
BRANCH   1   8
ATOM      8  C   UNL     1       3.904   3.601  18.254  0.00  0.00    +0.000 C 
ATOM      9  C   UNL     1       4.129   3.052  19.659  0.00  0.00    +0.000 C 
ATOM     10  C   UNL     1       4.064   1.557  19.389  0.00  0.00    +0.000 C 
ATOM     11  N   UNL     1       2.945   1.387  18.450  0.00  0.00    +0.000 NA
ATOM     12  C   UNL     1       2.762   2.691  17.761  0.00  0.00    +0.000 C 
ATOM     13  H   UNL     1       2.098   1.175  18.976  0.00  0.00    +0.000 HD
ENDBRANCH   1   8
BRANCH   1  14
ATOM     14  C   UNL     1       2.497   5.588  17.791  0.00  0.00    +0.000 C 
BRANCH  14  20
ATOM     15  C   UNL     1       1.174   8.572  21.752  0.00  0.00    +0.000 C 
ATOM     16  C   UNL     1       1.532   8.359  20.307  0.00  0.00    +0.000 A 
ATOM     17  C   UNL     1       1.545   9.468  19.446  0.00  0.00    +0.000 A 
ATOM     18  C   UNL     1       1.864   9.320  18.101  0.00  0.00    +0.000 A 
ATOM     19  C   UNL     1       2.165   8.061  17.597  0.00  0.00    +0.000 A 
ATOM     20  C   UNL     1       2.145   6.922  18.425  0.00  0.00    +0.000 A 
ATOM     21  C   UNL     1       1.840   7.084  19.792  0.00  0.00    +0.000 A 
ATOM     22 CL   UNL     1       1.839   5.713  20.857  0.00  0.00    +0.000 Cl
ENDBRANCH  14  20
ENDBRANCH   1  14
TORSDOF 4
ENDMDL
MODEL 4
REMARK VINA RESULT:      -6.9      1.497      1.898
REMARK  Name = 
REMARK  5 active torsions:
REMARK  status: ('A' for Active; 'I' for Inactive)
REMARK    1  A    between atoms: C_1  and  C_2
REMARK    2  A    between atoms: C_6  and  C_7
REMARK    3  A    between atoms: C_7  and  N_8
REMARK    4  A    between atoms: N_8  and  C_9
REMARK    5  A    between atoms: N_8  and  C_15
REMARK                            x       y       z     vdW  Elec       q    Type
REMARK                         _______ _______ _______ _____ _____    ______ ____
ROOT
ATOM      1  N   UNL     1       3.031   5.440  18.423  0.00  0.00    +0.000 NA
ENDROOT
BRANCH   1   2
ATOM      2  C   UNL     1       1.963   4.511  18.875  0.00  0.00    +0.000 C 
ATOM      3  C   UNL     1       2.098   4.211  20.391  0.00  0.00    +0.000 C 
ATOM      4  C   UNL     1       1.079   3.190  20.881  0.00  0.00    +0.000 C 
ATOM      5  O   UNL     1       1.151   2.003  20.099  0.00  0.00    +0.000 OA
ATOM      6  C   UNL     1       0.837   2.249  18.731  0.00  0.00    +0.000 C 
ATOM      7  C   UNL     1       1.859   3.188  18.100  0.00  0.00    +0.000 C 
ENDBRANCH   1   2
BRANCH   1   8
ATOM      8  C   UNL     1       4.275   4.899  17.851  0.00  0.00    +0.000 C 
ATOM      9  C   UNL     1       5.074   5.713  16.839  0.00  0.00    +0.000 C 
ATOM     10  C   UNL     1       6.244   4.775  16.586  0.00  0.00    +0.000 C 
ATOM     11  N   UNL     1       6.608   4.251  17.911  0.00  0.00    +0.000 NA
ATOM     12  C   UNL     1       5.402   4.383  18.769  0.00  0.00    +0.000 C 
ATOM     13  H   UNL     1       7.351   4.828  18.304  0.00  0.00    +0.000 HD
ENDBRANCH   1   8
BRANCH   1  14
ATOM     14  C   UNL     1       3.229   6.600  19.318  0.00  0.00    +0.000 C 
BRANCH  14  20
ATOM     15  C   UNL     1      -0.283  10.077  20.705  0.00  0.00    +0.000 C 
ATOM     16  C   UNL     1       0.710   9.503  19.732  0.00  0.00    +0.000 A 
ATOM     17  C   UNL     1       0.875  10.131  18.487  0.00  0.00    +0.000 A 
ATOM     18  C   UNL     1       1.777   9.634  17.554  0.00  0.00    +0.000 A 
ATOM     19  C   UNL     1       2.519   8.497  17.848  0.00  0.00    +0.000 A 
ATOM     20  C   UNL     1       2.369   7.829  19.078  0.00  0.00    +0.000 A 
ATOM     21  C   UNL     1       1.467   8.352  20.027  0.00  0.00    +0.000 A 
ATOM     22 CL   UNL     1       1.277   7.581  21.572  0.00  0.00    +0.000 Cl
ENDBRANCH  14  20
ENDBRANCH   1  14
TORSDOF 4
ENDMDL
MODEL 5
REMARK VINA RESULT:      -6.9      2.638      5.918
REMARK  Name = 
REMARK  5 active torsions:
REMARK  status: ('A' for Active; 'I' for Inactive)
REMARK    1  A    between atoms: C_1  and  C_2
REMARK    2  A    between atoms: C_6  and  C_7
REMARK    3  A    between atoms: C_7  and  N_8
REMARK    4  A    between atoms: N_8  and  C_9
REMARK    5  A    between atoms: N_8  and  C_15
REMARK                            x       y       z     vdW  Elec       q    Type
REMARK                         _______ _______ _______ _____ _____    ______ ____
ROOT
ATOM      1  N   UNL     1       2.926   5.607  19.165  0.00  0.00    +0.000 NA
ENDROOT
BRANCH   1   2
ATOM      2  C   UNL     1       2.717   7.077  19.215  0.00  0.00    +0.000 C 
ATOM      3  C   UNL     1       1.667   7.450  20.295  0.00  0.00    +0.000 C 
ATOM      4  C   UNL     1       1.351   8.940  20.319  0.00  0.00    +0.000 C 
ATOM      5  O   UNL     1       0.959   9.384  19.025  0.00  0.00    +0.000 OA
ATOM      6  C   UNL     1       2.001   9.217  18.068  0.00  0.00    +0.000 C 
ATOM      7  C   UNL     1       2.336   7.741  17.882  0.00  0.00    +0.000 C 
ENDBRANCH   1   2
BRANCH   1   8
ATOM      8  C   UNL     1       1.929   4.707  19.768  0.00  0.00    +0.000 C 
ATOM      9  C   UNL     1       1.350   3.550  18.960  0.00  0.00    +0.000 C 
ATOM     10  C   UNL     1       0.429   2.920  19.993  0.00  0.00    +0.000 C 
ATOM     11  N   UNL     1       1.195   2.937  21.248  0.00  0.00    +0.000 NA
ATOM     12  C   UNL     1       2.212   4.013  21.115  0.00  0.00    +0.000 C 
ATOM     13  H   UNL     1       1.677   2.045  21.356  0.00  0.00    +0.000 HD
ENDBRANCH   1   8
BRANCH   1  14
ATOM     14  C   UNL     1       4.329   5.198  19.392  0.00  0.00    +0.000 C 
BRANCH  14  20
ATOM     15  C   UNL     1       6.045   3.904  14.730  0.00  0.00    +0.000 C 
ATOM     16  C   UNL     1       6.111   4.715  15.995  0.00  0.00    +0.000 A 
ATOM     17  C   UNL     1       7.143   5.657  16.140  0.00  0.00    +0.000 A 
ATOM     18  C   UNL     1       7.247   6.425  17.293  0.00  0.00    +0.000 A 
ATOM     19  C   UNL     1       6.329   6.256  18.322  0.00  0.00    +0.000 A 
ATOM     20  C   UNL     1       5.292   5.309  18.223  0.00  0.00    +0.000 A 
ATOM     21  C   UNL     1       5.181   4.548  17.041  0.00  0.00    +0.000 A 
ATOM     22 CL   UNL     1       3.896   3.394  16.860  0.00  0.00    +0.000 Cl
ENDBRANCH  14  20
ENDBRANCH   1  14
TORSDOF 4
ENDMDL
MODEL 6
REMARK VINA RESULT:      -6.9      2.425      4.038
REMARK  Name = 
REMARK  5 active torsions:
REMARK  status: ('A' for Active; 'I' for Inactive)
REMARK    1  A    between atoms: C_1  and  C_2
REMARK    2  A    between atoms: C_6  and  C_7
REMARK    3  A    between atoms: C_7  and  N_8
REMARK    4  A    between atoms: N_8  and  C_9
REMARK    5  A    between atoms: N_8  and  C_15
REMARK                            x       y       z     vdW  Elec       q    Type
REMARK                         _______ _______ _______ _____ _____    ______ ____
ROOT
ATOM      1  N   UNL     1       3.782   5.309  18.553  0.00  0.00    +0.000 NA
ENDROOT
BRANCH   1   2
ATOM      2  C   UNL     1       5.113   5.970  18.572  0.00  0.00    +0.000 C 
ATOM      3  C   UNL     1       5.518   6.438  17.149  0.00  0.00    +0.000 C 
ATOM      4  C   UNL     1       6.916   7.040  17.104  0.00  0.00    +0.000 C 
ATOM      5  O   UNL     1       7.865   6.130  17.650  0.00  0.00    +0.000 OA
ATOM      6  C   UNL     1       7.601   5.849  19.022  0.00  0.00    +0.000 C 
ATOM      7  C   UNL     1       6.257   5.146  19.184  0.00  0.00    +0.000 C 
ENDBRANCH   1   2
BRANCH   1   8
ATOM      8  C   UNL     1       3.695   3.850  18.376  0.00  0.00    +0.000 C 
ATOM      9  C   UNL     1       3.488   2.939  19.582  0.00  0.00    +0.000 C 
ATOM     10  C   UNL     1       3.430   1.581  18.900  0.00  0.00    +0.000 C 
ATOM     11  N   UNL     1       2.615   1.792  17.696  0.00  0.00    +0.000 NA
ATOM     12  C   UNL     1       2.695   3.240  17.372  0.00  0.00    +0.000 C 
ATOM     13  H   UNL     1       1.644   1.560  17.905  0.00  0.00    +0.000 HD
ENDBRANCH   1   8
BRANCH   1  14
ATOM     14  C   UNL     1       2.748   6.073  17.823  0.00  0.00    +0.000 C 
BRANCH  14  20
ATOM     15  C   UNL     1       0.779   8.745  21.738  0.00  0.00    +0.000 C 
ATOM     16  C   UNL     1       1.301   8.633  20.332  0.00  0.00    +0.000 A 
ATOM     17  C   UNL     1       1.310   9.780  19.522  0.00  0.00    +0.000 A 
ATOM     18  C   UNL     1       1.778   9.724  18.215  0.00  0.00    +0.000 A 
ATOM     19  C   UNL     1       2.233   8.518  17.695  0.00  0.00    +0.000 A 
ATOM     20  C   UNL     1       2.223   7.343  18.469  0.00  0.00    +0.000 A 
ATOM     21  C   UNL     1       1.766   7.413  19.801  0.00  0.00    +0.000 A 
ATOM     22 CL   UNL     1       1.769   5.995  20.804  0.00  0.00    +0.000 Cl
ENDBRANCH  14  20
ENDBRANCH   1  14
TORSDOF 4
ENDMDL
MODEL 7
REMARK VINA RESULT:      -6.9      2.968      4.838
REMARK  Name = 
REMARK  5 active torsions:
REMARK  status: ('A' for Active; 'I' for Inactive)
REMARK    1  A    between atoms: C_1  and  C_2
REMARK    2  A    between atoms: C_6  and  C_7
REMARK    3  A    between atoms: C_7  and  N_8
REMARK    4  A    between atoms: N_8  and  C_9
REMARK    5  A    between atoms: N_8  and  C_15
REMARK                            x       y       z     vdW  Elec       q    Type
REMARK                         _______ _______ _______ _____ _____    ______ ____
ROOT
ATOM      1  N   UNL     1       6.019   4.385  16.018  0.00  0.00    +0.000 NA
ENDROOT
BRANCH   1   2
ATOM      2  C   UNL     1       7.016   5.204  16.755  0.00  0.00    +0.000 C 
ATOM      3  C   UNL     1       7.270   4.625  18.171  0.00  0.00    +0.000 C 
ATOM      4  C   UNL     1       8.217   5.485  18.998  0.00  0.00    +0.000 C 
ATOM      5  O   UNL     1       7.745   6.827  19.053  0.00  0.00    +0.000 OA
ATOM      6  C   UNL     1       7.696   7.425  17.761  0.00  0.00    +0.000 C 
ATOM      7  C   UNL     1       6.693   6.703  16.867  0.00  0.00    +0.000 C 
ENDBRANCH   1   2
BRANCH   1   8
ATOM      8  C   UNL     1       6.296   3.969  14.633  0.00  0.00    +0.000 C 
ATOM      9  C   UNL     1       5.151   3.784  13.643  0.00  0.00    +0.000 C 
ATOM     10  C   UNL     1       5.924   3.401  12.390  0.00  0.00    +0.000 C 
ATOM     11  N   UNL     1       7.088   4.299  12.370  0.00  0.00    +0.000 NA
ATOM     12  C   UNL     1       7.312   4.744  13.770  0.00  0.00    +0.000 C 
ATOM     13  H   UNL     1       6.868   5.116  11.800  0.00  0.00    +0.000 HD
ENDBRANCH   1   8
BRANCH   1  14
ATOM     14  C   UNL     1       4.618   4.792  16.262  0.00  0.00    +0.000 C 
BRANCH  14  20
ATOM     15  C   UNL     1       1.219   4.375  20.085  0.00  0.00    +0.000 C 
ATOM     16  C   UNL     1       2.195   3.789  19.102  0.00  0.00    +0.000 A 
ATOM     17  C   UNL     1       2.418   2.403  19.117  0.00  0.00    +0.000 A 
ATOM     18  C   UNL     1       3.314   1.817  18.231  0.00  0.00    +0.000 A 
ATOM     19  C   UNL     1       4.008   2.610  17.325  0.00  0.00    +0.000 A 
ATOM     20  C   UNL     1       3.826   4.006  17.292  0.00  0.00    +0.000 A 
ATOM     21  C   UNL     1       2.899   4.589  18.180  0.00  0.00    +0.000 A 
ATOM     22 CL   UNL     1       2.615   6.302  18.148  0.00  0.00    +0.000 Cl
ENDBRANCH  14  20
ENDBRANCH   1  14
TORSDOF 4
ENDMDL
MODEL 8
REMARK VINA RESULT:      -6.8      2.408      4.422
REMARK  Name = 
REMARK  5 active torsions:
REMARK  status: ('A' for Active; 'I' for Inactive)
REMARK    1  A    between atoms: C_1  and  C_2
REMARK    2  A    between atoms: C_6  and  C_7
REMARK    3  A    between atoms: C_7  and  N_8
REMARK    4  A    between atoms: N_8  and  C_9
REMARK    5  A    between atoms: N_8  and  C_15
REMARK                            x       y       z     vdW  Elec       q    Type
REMARK                         _______ _______ _______ _____ _____    ______ ____
ROOT
ATOM      1  N   UNL     1       3.806   5.563  18.430  0.00  0.00    +0.000 NA
ENDROOT
BRANCH   1   2
ATOM      2  C   UNL     1       5.231   5.714  18.036  0.00  0.00    +0.000 C 
ATOM      3  C   UNL     1       5.541   4.894  16.756  0.00  0.00    +0.000 C 
ATOM      4  C   UNL     1       7.013   4.944  16.367  0.00  0.00    +0.000 C 
ATOM      5  O   UNL     1       7.828   4.542  17.462  0.00  0.00    +0.000 OA
ATOM      6  C   UNL     1       7.686   5.416  18.579  0.00  0.00    +0.000 C 
ATOM      7  C   UNL     1       6.262   5.372  19.124  0.00  0.00    +0.000 C 
ENDBRANCH   1   2
BRANCH   1   8
ATOM      8  C   UNL     1       3.149   4.252  18.304  0.00  0.00    +0.000 C 
ATOM      9  C   UNL     1       3.068   3.314  19.505  0.00  0.00    +0.000 C 
ATOM     10  C   UNL     1       2.296   2.152  18.900  0.00  0.00    +0.000 C 
ATOM     11  N   UNL     1       1.243   2.775  18.086  0.00  0.00    +0.000 NA
ATOM     12  C   UNL     1       1.715   4.143  17.748  0.00  0.00    +0.000 C 
ATOM     13  H   UNL     1       0.393   2.852  18.643  0.00  0.00    +0.000 HD
ENDBRANCH   1   8
BRANCH   1  14
ATOM     14  C   UNL     1       2.957   6.708  18.038  0.00  0.00    +0.000 C 
BRANCH  14  20
ATOM     15  C   UNL     1       0.505  10.768  20.001  0.00  0.00    +0.000 C 
ATOM     16  C   UNL     1       1.018   9.357  20.080  0.00  0.00    +0.000 A 
ATOM     17  C   UNL     1       0.804   8.627  21.261  0.00  0.00    +0.000 A 
ATOM     18  C   UNL     1       1.264   7.321  21.383  0.00  0.00    +0.000 A 
ATOM     19  C   UNL     1       1.954   6.731  20.331  0.00  0.00    +0.000 A 
ATOM     20  C   UNL     1       2.204   7.436  19.138  0.00  0.00    +0.000 A 
ATOM     21  C   UNL     1       1.716   8.753  19.015  0.00  0.00    +0.000 A 
ATOM     22 CL   UNL     1       1.969   9.647  17.549  0.00  0.00    +0.000 Cl
ENDBRANCH  14  20
ENDBRANCH   1  14
TORSDOF 4
ENDMDL
MODEL 9
REMARK VINA RESULT:      -6.8      1.841      2.817
REMARK  Name = 
REMARK  5 active torsions:
REMARK  status: ('A' for Active; 'I' for Inactive)
REMARK    1  A    between atoms: C_1  and  C_2
REMARK    2  A    between atoms: C_6  and  C_7
REMARK    3  A    between atoms: C_7  and  N_8
REMARK    4  A    between atoms: N_8  and  C_9
REMARK    5  A    between atoms: N_8  and  C_15
REMARK                            x       y       z     vdW  Elec       q    Type
REMARK                         _______ _______ _______ _____ _____    ______ ____
ROOT
ATOM      1  N   UNL     1       2.627   5.948  18.650  0.00  0.00    +0.000 NA
ENDROOT
BRANCH   1   2
ATOM      2  C   UNL     1       1.755   4.841  19.120  0.00  0.00    +0.000 C 
ATOM      3  C   UNL     1       2.193   4.348  20.524  0.00  0.00    +0.000 C 
ATOM      4  C   UNL     1       1.385   3.151  21.007  0.00  0.00    +0.000 C 
ATOM      5  O   UNL     1       1.425   2.104  20.043  0.00  0.00    +0.000 OA
ATOM      6  C   UNL     1       0.842   2.501  18.804  0.00  0.00    +0.000 C 
ATOM      7  C   UNL     1       1.636   3.638  18.170  0.00  0.00    +0.000 C 
ENDBRANCH   1   2
BRANCH   1   8
ATOM      8  C   UNL     1       3.778   5.652  17.780  0.00  0.00    +0.000 C 
ATOM      9  C   UNL     1       4.384   6.747  16.909  0.00  0.00    +0.000 C 
ATOM     10  C   UNL     1       5.522   5.982  16.251  0.00  0.00    +0.000 C 
ATOM     11  N   UNL     1       6.105   5.165  17.325  0.00  0.00    +0.000 NA
ATOM     12  C   UNL     1       5.049   4.996  18.356  0.00  0.00    +0.000 C 
ATOM     13  H   UNL     1       6.887   5.671  17.741  0.00  0.00    +0.000 HD
ENDBRANCH   1   8
BRANCH   1  14
ATOM     14  C   UNL     1       2.894   6.973  19.682  0.00  0.00    +0.000 C 
BRANCH  14  20
ATOM     15  C   UNL     1      -0.145  10.974  18.630  0.00  0.00    +0.000 C 
ATOM     16  C   UNL     1       0.311   9.845  19.512  0.00  0.00    +0.000 A 
ATOM     17  C   UNL     1      -0.324   9.657  20.751  0.00  0.00    +0.000 A 
ATOM     18  C   UNL     1       0.067   8.631  21.602  0.00  0.00    +0.000 A 
ATOM     19  C   UNL     1       1.105   7.784  21.232  0.00  0.00    +0.000 A 
ATOM     20  C   UNL     1       1.779   7.951  20.008  0.00  0.00    +0.000 A 
ATOM     21  C   UNL     1       1.362   8.982  19.141  0.00  0.00    +0.000 A 
ATOM     22 CL   UNL     1       2.140   9.202  17.604  0.00  0.00    +0.000 Cl
ENDBRANCH  14  20
ENDBRANCH   1  14
TORSDOF 4
ENDMDL
