MODEL 1
REMARK VINA RESULT:      -7.5      0.000      0.000
REMARK  Name = 
REMARK  12 active torsions:
REMARK  status: ('A' for Active; 'I' for Inactive)
REMARK    1  A    between atoms: C_1  and  C_2
REMARK    2  A    between atoms: C_2  and  O_3
REMARK    3  A    between atoms: C_2  and  C_8
REMARK    4  A    between atoms: O_3  and  P_4
REMARK    5  A    between atoms: P_4  and  O_6
REMARK    6  A    between atoms: P_4  and  O_7
REMARK    7  A    between atoms: C_8  and  N_9
REMARK    8  A    between atoms: C_8  and  C_25
REMARK    9  A    between atoms: C_10  and  C_12
REMARK   10  A    between atoms: C_12  and  C_13
REMARK   11  A    between atoms: C_12  and  C_19
REMARK   12  A    between atoms: C_31  and  C_32
REMARK                            x       y       z     vdW  Elec       q    Type
REMARK                         _______ _______ _______ _____ _____    ______ ____
ROOT
ATOM      1  C   UNL     1       2.901   6.399  18.619  0.00  0.00    +0.000 C 
ENDROOT
BRANCH   1   2
ATOM      2  C   UNL     1       2.710   5.151  19.500  0.00  0.00    +0.000 C 
ATOM      3  O   UNL     1       2.376   5.269  20.679  0.00  0.00    +0.000 OA
ATOM      4  N   UNL     1       2.872   3.899  18.927  0.00  0.00    +0.000 N 
ATOM      5  C   UNL     1       3.016   3.550  17.525  0.00  0.00    +0.000 C 
ATOM      6  C   UNL     1       2.123   2.331  17.388  0.00  0.00    +0.000 C 
ATOM      7  C   UNL     1       2.351   1.586  18.698  0.00  0.00    +0.000 C 
ATOM      8  C   UNL     1       2.678   2.683  19.728  0.00  0.00    +0.000 C 
BRANCH   8   9
ATOM      9  C   UNL     1       3.957   2.317  20.515  0.00  0.00    +0.000 C 
ATOM     10  N   UNL     1       5.138   2.548  19.858  0.00  0.00    +0.000 N 
ATOM     11  O   UNL     1       3.978   1.867  21.658  0.00  0.00    +0.000 OA
ATOM     12  H   UNL     1       5.206   3.161  19.057  0.00  0.00    +0.000 HD
ATOM     13  H   UNL     1       5.982   2.370  20.386  0.00  0.00    +0.000 HD
ENDBRANCH   8   9
ENDBRANCH   1   2
BRANCH   1  14
ATOM     14  N   UNL     1       2.278   7.546  19.303  0.00  0.00    +0.000 N 
ATOM     15  C   UNL     1       1.691   8.545  18.564  0.00  0.00    +0.000 C 
ATOM     16  O   UNL     1       1.521   8.395  17.351  0.00  0.00    +0.000 OA
ATOM     17  H   UNL     1       2.606   7.720  20.248  0.00  0.00    +0.000 HD
BRANCH  15  18
ATOM     18  C   UNL     1       1.243   9.819  19.329  0.00  0.00    +0.000 C 
BRANCH  18  19
ATOM     19  C   UNL     1       0.090  10.465  18.548  0.00  0.00    +0.000 A 
ATOM     20  C   UNL     1      -0.120  11.855  18.615  0.00  0.00    +0.000 A 
ATOM     21  C   UNL     1      -1.235  12.444  18.020  0.00  0.00    +0.000 A 
ATOM     22  C   UNL     1      -2.142  11.658  17.319  0.00  0.00    +0.000 A 
ATOM     23  C   UNL     1      -1.922  10.286  17.194  0.00  0.00    +0.000 A 
ATOM     24  C   UNL     1      -0.813   9.689  17.805  0.00  0.00    +0.000 A 
ENDBRANCH  18  19
BRANCH  18  25
ATOM     25  C   UNL     1       0.886   9.556  20.801  0.00  0.00    +0.000 A 
ATOM     26  C   UNL     1      -0.442   9.416  21.239  0.00  0.00    +0.000 A 
ATOM     27  C   UNL     1      -0.745   9.275  22.596  0.00  0.00    +0.000 A 
ATOM     28  C   UNL     1       0.276   9.246  23.538  0.00  0.00    +0.000 A 
ATOM     29  C   UNL     1       1.602   9.325  23.123  0.00  0.00    +0.000 A 
ATOM     30  C   UNL     1       1.907   9.470  21.766  0.00  0.00    +0.000 A 
ENDBRANCH  18  25
ENDBRANCH  15  18
ENDBRANCH   1  14
BRANCH   1  32
ATOM     31  C   UNL     1       4.651   6.958  16.803  0.00  0.00    +0.000 C 
ATOM     32  C   UNL     1       4.378   6.741  18.286  0.00  0.00    +0.000 C 
BRANCH  32  33
ATOM     33  O   UNL     1       5.246   5.872  19.004  0.00  0.00    +0.000 OA
BRANCH  33  34
ATOM     34  P   UNL     1       6.788   5.621  18.731  0.00  0.00    +0.000 P 
ATOM     35  O   UNL     1       7.556   6.690  18.035  0.00  0.00    +0.000 OA
BRANCH  34  36
ATOM     36  O   UNL     1       7.374   5.340  20.191  0.00  0.00    +0.000 OA
ATOM     37  H   UNL     1       7.877   6.110  20.509  0.00  0.00    +0.000 HD
ENDBRANCH  34  36
BRANCH  34  38
ATOM     38  O   UNL     1       6.888   4.191  18.051  0.00  0.00    +0.000 OA
ATOM     39  H   UNL     1       6.927   3.459  18.694  0.00  0.00    +0.000 HD
ENDBRANCH  34  38
ENDBRANCH  33  34
ENDBRANCH  32  33
ENDBRANCH   1  32
TORSDOF 11
ENDMDL
MODEL 2
REMARK VINA RESULT:      -7.1      0.292      1.137
REMARK  Name = 
REMARK  12 active torsions:
REMARK  status: ('A' for Active; 'I' for Inactive)
REMARK    1  A    between atoms: C_1  and  C_2
REMARK    2  A    between atoms: C_2  and  O_3
REMARK    3  A    between atoms: C_2  and  C_8
REMARK    4  A    between atoms: O_3  and  P_4
REMARK    5  A    between atoms: P_4  and  O_6
REMARK    6  A    between atoms: P_4  and  O_7
REMARK    7  A    between atoms: C_8  and  N_9
REMARK    8  A    between atoms: C_8  and  C_25
REMARK    9  A    between atoms: C_10  and  C_12
REMARK   10  A    between atoms: C_12  and  C_13
REMARK   11  A    between atoms: C_12  and  C_19
REMARK   12  A    between atoms: C_31  and  C_32
REMARK                            x       y       z     vdW  Elec       q    Type
REMARK                         _______ _______ _______ _____ _____    ______ ____
ROOT
ATOM      1  C   UNL     1       2.752   6.400  18.544  0.00  0.00    +0.000 C 
ENDROOT
BRANCH   1   2
ATOM      2  C   UNL     1       2.486   5.124  19.364  0.00  0.00    +0.000 C 
ATOM      3  O   UNL     1       1.960   5.198  20.475  0.00  0.00    +0.000 OA
ATOM      4  N   UNL     1       2.802   3.895  18.806  0.00  0.00    +0.000 N 
ATOM      5  C   UNL     1       3.188   3.586  17.440  0.00  0.00    +0.000 C 
ATOM      6  C   UNL     1       2.393   2.329  17.142  0.00  0.00    +0.000 C 
ATOM      7  C   UNL     1       2.446   1.566  18.460  0.00  0.00    +0.000 C 
ATOM      8  C   UNL     1       2.545   2.653  19.546  0.00  0.00    +0.000 C 
BRANCH   8   9
ATOM      9  C   UNL     1       3.698   2.331  20.524  0.00  0.00    +0.000 C 
ATOM     10  N   UNL     1       4.937   2.204  19.952  0.00  0.00    +0.000 N 
ATOM     11  O   UNL     1       3.577   2.207  21.741  0.00  0.00    +0.000 OA
ATOM     12  H   UNL     1       5.152   2.562  19.031  0.00  0.00    +0.000 HD
ATOM     13  H   UNL     1       5.707   2.054  20.589  0.00  0.00    +0.000 HD
ENDBRANCH   8   9
ENDBRANCH   1   2
BRANCH   1  14
ATOM     14  N   UNL     1       2.052   7.521  19.197  0.00  0.00    +0.000 N 
ATOM     15  C   UNL     1       1.688   8.621  18.459  0.00  0.00    +0.000 C 
ATOM     16  O   UNL     1       1.776   8.594  17.228  0.00  0.00    +0.000 OA
ATOM     17  H   UNL     1       2.178   7.586  20.203  0.00  0.00    +0.000 HD
BRANCH  15  18
ATOM     18  C   UNL     1       1.149   9.849  19.240  0.00  0.00    +0.000 C 
BRANCH  18  19
ATOM     19  C   UNL     1      -0.089  10.380  18.504  0.00  0.00    +0.000 A 
ATOM     20  C   UNL     1      -0.866   9.517  17.710  0.00  0.00    +0.000 A 
ATOM     21  C   UNL     1      -1.915  10.002  16.932  0.00  0.00    +0.000 A 
ATOM     22  C   UNL     1      -2.228  11.357  16.960  0.00  0.00    +0.000 A 
ATOM     23  C   UNL     1      -1.506  12.220  17.785  0.00  0.00    +0.000 A 
ATOM     24  C   UNL     1      -0.441  11.737  18.553  0.00  0.00    +0.000 A 
ENDBRANCH  18  19
BRANCH  18  25
ATOM     25  C   UNL     1       0.873   9.558  20.725  0.00  0.00    +0.000 A 
ATOM     26  C   UNL     1      -0.422   9.324  21.217  0.00  0.00    +0.000 A 
ATOM     27  C   UNL     1      -0.657   9.159  22.584  0.00  0.00    +0.000 A 
ATOM     28  C   UNL     1       0.402   9.198  23.483  0.00  0.00    +0.000 A 
ATOM     29  C   UNL     1       1.701   9.371  23.014  0.00  0.00    +0.000 A 
ATOM     30  C   UNL     1       1.938   9.541  21.646  0.00  0.00    +0.000 A 
ENDBRANCH  18  25
ENDBRANCH  15  18
ENDBRANCH   1  14
BRANCH   1  32
ATOM     31  C   UNL     1       4.693   6.921  16.922  0.00  0.00    +0.000 C 
ATOM     32  C   UNL     1       4.251   6.762  18.371  0.00  0.00    +0.000 C 
BRANCH  32  33
ATOM     33  O   UNL     1       5.044   5.945  19.224  0.00  0.00    +0.000 OA
BRANCH  33  34
ATOM     34  P   UNL     1       6.565   5.543  19.021  0.00  0.00    +0.000 P 
ATOM     35  O   UNL     1       7.413   5.386  20.235  0.00  0.00    +0.000 OA
BRANCH  34  36
ATOM     36  O   UNL     1       6.472   4.177  18.196  0.00  0.00    +0.000 OA
ATOM     37  H   UNL     1       5.586   4.075  17.807  0.00  0.00    +0.000 HD
ENDBRANCH  34  36
BRANCH  34  38
ATOM     38  O   UNL     1       7.146   6.548  17.939  0.00  0.00    +0.000 OA
ATOM     39  H   UNL     1       7.953   7.008  18.234  0.00  0.00    +0.000 HD
ENDBRANCH  34  38
ENDBRANCH  33  34
ENDBRANCH  32  33
ENDBRANCH   1  32
TORSDOF 11
ENDMDL
MODEL 3
REMARK VINA RESULT:      -7.1      5.916      9.188
REMARK  Name = 
REMARK  12 active torsions:
REMARK  status: ('A' for Active; 'I' for Inactive)
REMARK    1  A    between atoms: C_1  and  C_2
REMARK    2  A    between atoms: C_2  and  O_3
REMARK    3  A    between atoms: C_2  and  C_8
REMARK    4  A    between atoms: O_3  and  P_4
REMARK    5  A    between atoms: P_4  and  O_6
REMARK    6  A    between atoms: P_4  and  O_7
REMARK    7  A    between atoms: C_8  and  N_9
REMARK    8  A    between atoms: C_8  and  C_25
REMARK    9  A    between atoms: C_10  and  C_12
REMARK   10  A    between atoms: C_12  and  C_13
REMARK   11  A    between atoms: C_12  and  C_19
REMARK   12  A    between atoms: C_31  and  C_32
REMARK                            x       y       z     vdW  Elec       q    Type
REMARK                         _______ _______ _______ _____ _____    ______ ____
ROOT
ATOM      1  C   UNL     1       1.028  14.260  20.633  0.00  0.00    +0.000 C 
ENDROOT
BRANCH   1   2
ATOM      2  C   UNL     1       2.564  14.344  20.705  0.00  0.00    +0.000 C 
ATOM      3  O   UNL     1       3.182  13.702  21.554  0.00  0.00    +0.000 OA
ATOM      4  N   UNL     1       3.233  15.114  19.765  0.00  0.00    +0.000 N 
ATOM      5  C   UNL     1       2.716  15.732  18.557  0.00  0.00    +0.000 C 
ATOM      6  C   UNL     1       3.802  15.442  17.539  0.00  0.00    +0.000 C 
ATOM      7  C   UNL     1       5.085  15.597  18.347  0.00  0.00    +0.000 C 
ATOM      8  C   UNL     1       4.699  15.204  19.786  0.00  0.00    +0.000 C 
BRANCH   8   9
ATOM      9  C   UNL     1       5.184  16.279  20.784  0.00  0.00    +0.000 C 
ATOM     10  N   UNL     1       5.567  15.811  22.014  0.00  0.00    +0.000 N 
ATOM     11  O   UNL     1       5.262  17.482  20.543  0.00  0.00    +0.000 OA
ATOM     12  H   UNL     1       5.793  14.840  22.182  0.00  0.00    +0.000 HD
ATOM     13  H   UNL     1       5.944  16.498  22.653  0.00  0.00    +0.000 HD
ENDBRANCH   8   9
ENDBRANCH   1   2
BRANCH   1  14
ATOM     14  N   UNL     1       0.647  12.837  20.585  0.00  0.00    +0.000 N 
ATOM     15  C   UNL     1       0.125  12.309  19.428  0.00  0.00    +0.000 C 
ATOM     16  O   UNL     1       0.149  12.969  18.385  0.00  0.00    +0.000 OA
ATOM     17  H   UNL     1       0.463  12.404  21.485  0.00  0.00    +0.000 HD
BRANCH  15  18
ATOM     18  C   UNL     1      -0.449  10.870  19.505  0.00  0.00    +0.000 C 
BRANCH  18  19
ATOM     19  C   UNL     1      -1.624  10.770  18.521  0.00  0.00    +0.000 A 
ATOM     20  C   UNL     1      -1.553   9.899  17.418  0.00  0.00    +0.000 A 
ATOM     21  C   UNL     1      -2.550   9.887  16.444  0.00  0.00    +0.000 A 
ATOM     22  C   UNL     1      -3.654  10.722  16.574  0.00  0.00    +0.000 A 
ATOM     23  C   UNL     1      -3.770  11.552  17.689  0.00  0.00    +0.000 A 
ATOM     24  C   UNL     1      -2.762  11.579  18.659  0.00  0.00    +0.000 A 
ENDBRANCH  18  19
BRANCH  18  25
ATOM     25  C   UNL     1       0.607   9.776  19.277  0.00  0.00    +0.000 A 
ATOM     26  C   UNL     1       1.291   9.633  18.058  0.00  0.00    +0.000 A 
ATOM     27  C   UNL     1       2.173   8.572  17.844  0.00  0.00    +0.000 A 
ATOM     28  C   UNL     1       2.409   7.647  18.854  0.00  0.00    +0.000 A 
ATOM     29  C   UNL     1       1.787   7.800  20.090  0.00  0.00    +0.000 A 
ATOM     30  C   UNL     1       0.900   8.860  20.304  0.00  0.00    +0.000 A 
ENDBRANCH  18  25
ENDBRANCH  15  18
ENDBRANCH   1  14
BRANCH   1  32
ATOM     31  C   UNL     1       0.948  16.228  22.305  0.00  0.00    +0.000 C 
ATOM     32  C   UNL     1       0.283  14.950  21.808  0.00  0.00    +0.000 C 
BRANCH  32  33
ATOM     33  O   UNL     1      -0.098  13.978  22.773  0.00  0.00    +0.000 OA
BRANCH  33  34
ATOM     34  P   UNL     1      -1.565  13.462  23.084  0.00  0.00    +0.000 P 
ATOM     35  O   UNL     1      -2.324  14.135  24.175  0.00  0.00    +0.000 OA
BRANCH  34  36
ATOM     36  O   UNL     1      -2.309  13.613  21.678  0.00  0.00    +0.000 OA
ATOM     37  H   UNL     1      -1.660  13.670  20.955  0.00  0.00    +0.000 HD
ENDBRANCH  34  36
BRANCH  34  38
ATOM     38  O   UNL     1      -1.455  11.886  23.235  0.00  0.00    +0.000 OA
ATOM     39  H   UNL     1      -0.719  11.604  23.809  0.00  0.00    +0.000 HD
ENDBRANCH  34  38
ENDBRANCH  33  34
ENDBRANCH  32  33
ENDBRANCH   1  32
TORSDOF 11
ENDMDL
MODEL 4
REMARK VINA RESULT:      -7.0      0.207      1.180
REMARK  Name = 
REMARK  12 active torsions:
REMARK  status: ('A' for Active; 'I' for Inactive)
REMARK    1  A    between atoms: C_1  and  C_2
REMARK    2  A    between atoms: C_2  and  O_3
REMARK    3  A    between atoms: C_2  and  C_8
REMARK    4  A    between atoms: O_3  and  P_4
REMARK    5  A    between atoms: P_4  and  O_6
REMARK    6  A    between atoms: P_4  and  O_7
REMARK    7  A    between atoms: C_8  and  N_9
REMARK    8  A    between atoms: C_8  and  C_25
REMARK    9  A    between atoms: C_10  and  C_12
REMARK   10  A    between atoms: C_12  and  C_13
REMARK   11  A    between atoms: C_12  and  C_19
REMARK   12  A    between atoms: C_31  and  C_32
REMARK                            x       y       z     vdW  Elec       q    Type
REMARK                         _______ _______ _______ _____ _____    ______ ____
ROOT
ATOM      1  C   UNL     1       2.847   6.528  18.578  0.00  0.00    +0.000 C 
ENDROOT
BRANCH   1   2
ATOM      2  C   UNL     1       2.609   5.278  19.445  0.00  0.00    +0.000 C 
ATOM      3  O   UNL     1       2.193   5.393  20.598  0.00  0.00    +0.000 OA
ATOM      4  N   UNL     1       2.821   4.029  18.884  0.00  0.00    +0.000 N 
ATOM      5  C   UNL     1       3.064   3.681  17.495  0.00  0.00    +0.000 C 
ATOM      6  C   UNL     1       2.194   2.454  17.297  0.00  0.00    +0.000 C 
ATOM      7  C   UNL     1       2.340   1.710  18.620  0.00  0.00    +0.000 C 
ATOM      8  C   UNL     1       2.585   2.810  19.670  0.00  0.00    +0.000 C 
BRANCH   8   9
ATOM      9  C   UNL     1       3.811   2.456  20.542  0.00  0.00    +0.000 C 
ATOM     10  N   UNL     1       5.029   2.608  19.934  0.00  0.00    +0.000 N 
ATOM     11  O   UNL     1       3.760   2.079  21.711  0.00  0.00    +0.000 OA
ATOM     12  H   UNL     1       5.158   3.166  19.101  0.00  0.00    +0.000 HD
ATOM     13  H   UNL     1       5.840   2.438  20.514  0.00  0.00    +0.000 HD
ENDBRANCH   8   9
ENDBRANCH   1   2
BRANCH   1  14
ATOM     14  N   UNL     1       2.232   7.683  19.256  0.00  0.00    +0.000 N 
ATOM     15  C   UNL     1       1.563   8.631  18.519  0.00  0.00    +0.000 C 
ATOM     16  O   UNL     1       1.318   8.424  17.327  0.00  0.00    +0.000 OA
ATOM     17  H   UNL     1       2.616   7.908  20.169  0.00  0.00    +0.000 HD
BRANCH  15  18
ATOM     18  C   UNL     1       1.124   9.921  19.260  0.00  0.00    +0.000 C 
BRANCH  18  19
ATOM     19  C   UNL     1      -0.108  10.490  18.542  0.00  0.00    +0.000 A 
ATOM     20  C   UNL     1      -0.966   9.638  17.823  0.00  0.00    +0.000 A 
ATOM     21  C   UNL     1      -2.014  10.149  17.059  0.00  0.00    +0.000 A 
ATOM     22  C   UNL     1      -2.244  11.519  17.028  0.00  0.00    +0.000 A 
ATOM     23  C   UNL     1      -1.440  12.376  17.780  0.00  0.00    +0.000 A 
ATOM     24  C   UNL     1      -0.376  11.868  18.533  0.00  0.00    +0.000 A 
ENDBRANCH  18  19
BRANCH  18  25
ATOM     25  C   UNL     1       0.886   9.713  20.765  0.00  0.00    +0.000 A 
ATOM     26  C   UNL     1       1.928   9.400  21.655  0.00  0.00    +0.000 A 
ATOM     27  C   UNL     1       1.672   9.120  22.999  0.00  0.00    +0.000 A 
ATOM     28  C   UNL     1       0.372   9.173  23.486  0.00  0.00    +0.000 A 
ATOM     29  C   UNL     1      -0.670   9.537  22.637  0.00  0.00    +0.000 A 
ATOM     30  C   UNL     1      -0.415   9.814  21.290  0.00  0.00    +0.000 A 
ENDBRANCH  18  25
ENDBRANCH  15  18
ENDBRANCH   1  14
BRANCH   1  32
ATOM     31  C   UNL     1       4.659   7.030  16.807  0.00  0.00    +0.000 C 
ATOM     32  C   UNL     1       4.339   6.842  18.284  0.00  0.00    +0.000 C 
BRANCH  32  33
ATOM     33  O   UNL     1       5.171   5.971  19.041  0.00  0.00    +0.000 OA
BRANCH  33  34
ATOM     34  P   UNL     1       6.677   5.579  18.734  0.00  0.00    +0.000 P 
ATOM     35  O   UNL     1       7.546   6.602  18.089  0.00  0.00    +0.000 OA
BRANCH  34  36
ATOM     36  O   UNL     1       7.242   5.155  20.167  0.00  0.00    +0.000 OA
ATOM     37  H   UNL     1       6.751   5.609  20.873  0.00  0.00    +0.000 HD
ENDBRANCH  34  36
BRANCH  34  38
ATOM     38  O   UNL     1       6.623   4.189  17.971  0.00  0.00    +0.000 OA
ATOM     39  H   UNL     1       6.390   3.439  18.550  0.00  0.00    +0.000 HD
ENDBRANCH  34  38
ENDBRANCH  33  34
ENDBRANCH  32  33
ENDBRANCH   1  32
TORSDOF 11
ENDMDL
MODEL 5
REMARK VINA RESULT:      -7.0      5.867      9.098
REMARK  Name = 
REMARK  12 active torsions:
REMARK  status: ('A' for Active; 'I' for Inactive)
REMARK    1  A    between atoms: C_1  and  C_2
REMARK    2  A    between atoms: C_2  and  O_3
REMARK    3  A    between atoms: C_2  and  C_8
REMARK    4  A    between atoms: O_3  and  P_4
REMARK    5  A    between atoms: P_4  and  O_6
REMARK    6  A    between atoms: P_4  and  O_7
REMARK    7  A    between atoms: C_8  and  N_9
REMARK    8  A    between atoms: C_8  and  C_25
REMARK    9  A    between atoms: C_10  and  C_12
REMARK   10  A    between atoms: C_12  and  C_13
REMARK   11  A    between atoms: C_12  and  C_19
REMARK   12  A    between atoms: C_31  and  C_32
REMARK                            x       y       z     vdW  Elec       q    Type
REMARK                         _______ _______ _______ _____ _____    ______ ____
ROOT
ATOM      1  C   UNL     1       1.218  14.297  20.576  0.00  0.00    +0.000 C 
ENDROOT
BRANCH   1   2
ATOM      2  C   UNL     1       2.757  14.332  20.626  0.00  0.00    +0.000 C 
ATOM      3  O   UNL     1       3.365  13.672  21.469  0.00  0.00    +0.000 OA
ATOM      4  N   UNL     1       3.437  15.077  19.676  0.00  0.00    +0.000 N 
ATOM      5  C   UNL     1       2.925  15.709  18.474  0.00  0.00    +0.000 C 
ATOM      6  C   UNL     1       3.986  15.381  17.441  0.00  0.00    +0.000 C 
ATOM      7  C   UNL     1       5.285  15.496  18.232  0.00  0.00    +0.000 C 
ATOM      8  C   UNL     1       4.906  15.119  19.676  0.00  0.00    +0.000 C 
BRANCH   8   9
ATOM      9  C   UNL     1       5.439  16.181  20.665  0.00  0.00    +0.000 C 
ATOM     10  N   UNL     1       6.325  15.720  21.603  0.00  0.00    +0.000 N 
ATOM     11  O   UNL     1       5.141  17.374  20.648  0.00  0.00    +0.000 OA
ATOM     12  H   UNL     1       6.819  14.843  21.503  0.00  0.00    +0.000 HD
ATOM     13  H   UNL     1       6.727  16.417  22.216  0.00  0.00    +0.000 HD
ENDBRANCH   8   9
ENDBRANCH   1   2
BRANCH   1  14
ATOM     14  N   UNL     1       0.790  12.887  20.535  0.00  0.00    +0.000 N 
ATOM     15  C   UNL     1       0.194  12.388  19.402  0.00  0.00    +0.000 C 
ATOM     16  O   UNL     1       0.185  13.057  18.364  0.00  0.00    +0.000 OA
ATOM     17  H   UNL     1       0.639  12.451  21.439  0.00  0.00    +0.000 HD
BRANCH  15  18
ATOM     18  C   UNL     1      -0.420  10.967  19.495  0.00  0.00    +0.000 C 
BRANCH  18  19
ATOM     19  C   UNL     1      -1.573  10.876  18.485  0.00  0.00    +0.000 A 
ATOM     20  C   UNL     1      -2.696  11.715  18.613  0.00  0.00    +0.000 A 
ATOM     21  C   UNL     1      -3.807  11.562  17.787  0.00  0.00    +0.000 A 
ATOM     22  C   UNL     1      -3.803  10.588  16.795  0.00  0.00    +0.000 A 
ATOM     23  C   UNL     1      -2.678   9.783  16.615  0.00  0.00    +0.000 A 
ATOM     24  C   UNL     1      -1.567   9.923  17.455  0.00  0.00    +0.000 A 
ENDBRANCH  18  19
BRANCH  18  25
ATOM     25  C   UNL     1       0.611   9.840  19.317  0.00  0.00    +0.000 A 
ATOM     26  C   UNL     1       1.327   9.659  18.121  0.00  0.00    +0.000 A 
ATOM     27  C   UNL     1       2.186   8.570  17.951  0.00  0.00    +0.000 A 
ATOM     28  C   UNL     1       2.365   7.655  18.982  0.00  0.00    +0.000 A 
ATOM     29  C   UNL     1       1.710   7.845  20.196  0.00  0.00    +0.000 A 
ATOM     30  C   UNL     1       0.847   8.933  20.366  0.00  0.00    +0.000 A 
ENDBRANCH  18  25
ENDBRANCH  15  18
ENDBRANCH   1  14
BRANCH   1  32
ATOM     31  C   UNL     1       1.173  16.318  22.185  0.00  0.00    +0.000 C 
ATOM     32  C   UNL     1       0.512  15.013  21.760  0.00  0.00    +0.000 C 
BRANCH  32  33
ATOM     33  O   UNL     1       0.193  14.066  22.772  0.00  0.00    +0.000 OA
BRANCH  33  34
ATOM     34  P   UNL     1      -1.208  13.367  23.022  0.00  0.00    +0.000 P 
ATOM     35  O   UNL     1      -1.212  11.923  23.386  0.00  0.00    +0.000 OA
BRANCH  34  36
ATOM     36  O   UNL     1      -1.859  14.260  24.176  0.00  0.00    +0.000 OA
ATOM     37  H   UNL     1      -2.234  13.693  24.872  0.00  0.00    +0.000 HD
ENDBRANCH  34  36
BRANCH  34  38
ATOM     38  O   UNL     1      -2.111  13.731  21.769  0.00  0.00    +0.000 OA
ATOM     39  H   UNL     1      -1.979  13.133  21.010  0.00  0.00    +0.000 HD
ENDBRANCH  34  38
ENDBRANCH  33  34
ENDBRANCH  32  33
ENDBRANCH   1  32
TORSDOF 11
ENDMDL
MODEL 6
REMARK VINA RESULT:      -6.9      0.163      1.107
REMARK  Name = 
REMARK  12 active torsions:
REMARK  status: ('A' for Active; 'I' for Inactive)
REMARK    1  A    between atoms: C_1  and  C_2
REMARK    2  A    between atoms: C_2  and  O_3
REMARK    3  A    between atoms: C_2  and  C_8
REMARK    4  A    between atoms: O_3  and  P_4
REMARK    5  A    between atoms: P_4  and  O_6
REMARK    6  A    between atoms: P_4  and  O_7
REMARK    7  A    between atoms: C_8  and  N_9
REMARK    8  A    between atoms: C_8  and  C_25
REMARK    9  A    between atoms: C_10  and  C_12
REMARK   10  A    between atoms: C_12  and  C_13
REMARK   11  A    between atoms: C_12  and  C_19
REMARK   12  A    between atoms: C_31  and  C_32
REMARK                            x       y       z     vdW  Elec       q    Type
REMARK                         _______ _______ _______ _____ _____    ______ ____
ROOT
ATOM      1  C   UNL     1       2.927   6.466  18.534  0.00  0.00    +0.000 C 
ENDROOT
BRANCH   1   2
ATOM      2  C   UNL     1       2.733   5.221  19.419  0.00  0.00    +0.000 C 
ATOM      3  O   UNL     1       2.395   5.344  20.597  0.00  0.00    +0.000 OA
ATOM      4  N   UNL     1       2.895   3.968  18.851  0.00  0.00    +0.000 N 
ATOM      5  C   UNL     1       3.043   3.614  17.450  0.00  0.00    +0.000 C 
ATOM      6  C   UNL     1       2.150   2.395  17.315  0.00  0.00    +0.000 C 
ATOM      7  C   UNL     1       2.374   1.654  18.628  0.00  0.00    +0.000 C 
ATOM      8  C   UNL     1       2.699   2.755  19.656  0.00  0.00    +0.000 C 
BRANCH   8   9
ATOM      9  C   UNL     1       3.976   2.390  20.447  0.00  0.00    +0.000 C 
ATOM     10  N   UNL     1       5.149   2.483  19.745  0.00  0.00    +0.000 N 
ATOM     11  O   UNL     1       4.002   2.055  21.629  0.00  0.00    +0.000 OA
ATOM     12  H   UNL     1       5.231   3.008  18.885  0.00  0.00    +0.000 HD
ATOM     13  H   UNL     1       5.996   2.306  20.269  0.00  0.00    +0.000 HD
ENDBRANCH   8   9
ENDBRANCH   1   2
BRANCH   1  14
ATOM     14  N   UNL     1       2.302   7.616  19.213  0.00  0.00    +0.000 N 
ATOM     15  C   UNL     1       1.663   8.581  18.472  0.00  0.00    +0.000 C 
ATOM     16  O   UNL     1       1.450   8.395  17.271  0.00  0.00    +0.000 OA
ATOM     17  H   UNL     1       2.662   7.823  20.140  0.00  0.00    +0.000 HD
BRANCH  15  18
ATOM     18  C   UNL     1       1.213   9.863  19.221  0.00  0.00    +0.000 C 
BRANCH  18  19
ATOM     19  C   UNL     1       0.021  10.466  18.465  0.00  0.00    +0.000 A 
ATOM     20  C   UNL     1      -0.274  11.837  18.583  0.00  0.00    +0.000 A 
ATOM     21  C   UNL     1      -1.424  12.379  18.011  0.00  0.00    +0.000 A 
ATOM     22  C   UNL     1      -2.282  11.565  17.280  0.00  0.00    +0.000 A 
ATOM     23  C   UNL     1      -1.978  10.215  17.103  0.00  0.00    +0.000 A 
ATOM     24  C   UNL     1      -0.834   9.665  17.692  0.00  0.00    +0.000 A 
ENDBRANCH  18  19
BRANCH  18  25
ATOM     25  C   UNL     1       0.910   9.629  20.710  0.00  0.00    +0.000 A 
ATOM     26  C   UNL     1       1.908   9.688  21.699  0.00  0.00    +0.000 A 
ATOM     27  C   UNL     1       1.625   9.376  23.031  0.00  0.00    +0.000 A 
ATOM     28  C   UNL     1       0.334   9.024  23.405  0.00  0.00    +0.000 A 
ATOM     29  C   UNL     1      -0.683   9.014  22.455  0.00  0.00    +0.000 A 
ATOM     30  C   UNL     1      -0.401   9.322  21.120  0.00  0.00    +0.000 A 
ENDBRANCH  18  25
ENDBRANCH  15  18
ENDBRANCH   1  14
BRANCH   1  32
ATOM     31  C   UNL     1       4.729   6.809  16.717  0.00  0.00    +0.000 C 
ATOM     32  C   UNL     1       4.405   6.807  18.205  0.00  0.00    +0.000 C 
BRANCH  32  33
ATOM     33  O   UNL     1       5.270   6.086  19.075  0.00  0.00    +0.000 OA
BRANCH  33  34
ATOM     34  P   UNL     1       6.730   5.558  18.751  0.00  0.00    +0.000 P 
ATOM     35  O   UNL     1       6.864   4.420  17.801  0.00  0.00    +0.000 OA
BRANCH  34  36
ATOM     36  O   UNL     1       7.475   6.863  18.207  0.00  0.00    +0.000 OA
ATOM     37  H   UNL     1       8.310   7.002  18.686  0.00  0.00    +0.000 HD
ENDBRANCH  34  36
BRANCH  34  38
ATOM     38  O   UNL     1       7.437   5.331  20.153  0.00  0.00    +0.000 OA
ATOM     39  H   UNL     1       8.088   4.606  20.144  0.00  0.00    +0.000 HD
ENDBRANCH  34  38
ENDBRANCH  33  34
ENDBRANCH  32  33
ENDBRANCH   1  32
TORSDOF 11
ENDMDL
MODEL 7
REMARK VINA RESULT:      -6.9      6.018      9.359
REMARK  Name = 
REMARK  12 active torsions:
REMARK  status: ('A' for Active; 'I' for Inactive)
REMARK    1  A    between atoms: C_1  and  C_2
REMARK    2  A    between atoms: C_2  and  O_3
REMARK    3  A    between atoms: C_2  and  C_8
REMARK    4  A    between atoms: O_3  and  P_4
REMARK    5  A    between atoms: P_4  and  O_6
REMARK    6  A    between atoms: P_4  and  O_7
REMARK    7  A    between atoms: C_8  and  N_9
REMARK    8  A    between atoms: C_8  and  C_25
REMARK    9  A    between atoms: C_10  and  C_12
REMARK   10  A    between atoms: C_12  and  C_13
REMARK   11  A    between atoms: C_12  and  C_19
REMARK   12  A    between atoms: C_31  and  C_32
REMARK                            x       y       z     vdW  Elec       q    Type
REMARK                         _______ _______ _______ _____ _____    ______ ____
ROOT
ATOM      1  C   UNL     1       1.148  14.127  20.829  0.00  0.00    +0.000 C 
ENDROOT
BRANCH   1   2
ATOM      2  C   UNL     1       2.682  14.220  20.734  0.00  0.00    +0.000 C 
ATOM      3  O   UNL     1       3.392  13.551  21.485  0.00  0.00    +0.000 OA
ATOM      4  N   UNL     1       3.241  15.028  19.756  0.00  0.00    +0.000 N 
ATOM      5  C   UNL     1       2.592  15.687  18.637  0.00  0.00    +0.000 C 
ATOM      6  C   UNL     1       3.560  15.442  17.495  0.00  0.00    +0.000 C 
ATOM      7  C   UNL     1       4.924  15.577  18.162  0.00  0.00    +0.000 C 
ATOM      8  C   UNL     1       4.700  15.128  19.619  0.00  0.00    +0.000 C 
BRANCH   8   9
ATOM      9  C   UNL     1       5.288  16.170  20.597  0.00  0.00    +0.000 C 
ATOM     10  N   UNL     1       6.201  15.683  21.497  0.00  0.00    +0.000 N 
ATOM     11  O   UNL     1       5.012  17.367  20.603  0.00  0.00    +0.000 OA
ATOM     12  H   UNL     1       6.674  14.799  21.370  0.00  0.00    +0.000 HD
ATOM     13  H   UNL     1       6.637  16.366  22.101  0.00  0.00    +0.000 HD
ENDBRANCH   8   9
ENDBRANCH   1   2
BRANCH   1  14
ATOM     14  N   UNL     1       0.766  12.706  20.741  0.00  0.00    +0.000 N 
ATOM     15  C   UNL     1       0.326  12.191  19.546  0.00  0.00    +0.000 C 
ATOM     16  O   UNL     1       0.424  12.859  18.513  0.00  0.00    +0.000 OA
ATOM     17  H   UNL     1       0.518  12.266  21.622  0.00  0.00    +0.000 HD
BRANCH  15  18
ATOM     18  C   UNL     1      -0.258  10.753  19.569  0.00  0.00    +0.000 C 
BRANCH  18  19
ATOM     19  C   UNL     1      -1.455  10.706  18.609  0.00  0.00    +0.000 A 
ATOM     20  C   UNL     1      -1.424   9.873  17.476  0.00  0.00    +0.000 A 
ATOM     21  C   UNL     1      -2.442   9.911  16.525  0.00  0.00    +0.000 A 
ATOM     22  C   UNL     1      -3.528  10.759  16.708  0.00  0.00    +0.000 A 
ATOM     23  C   UNL     1      -3.606  11.552  17.853  0.00  0.00    +0.000 A 
ATOM     24  C   UNL     1      -2.576  11.528  18.801  0.00  0.00    +0.000 A 
ENDBRANCH  18  19
BRANCH  18  25
ATOM     25  C   UNL     1       0.784   9.664  19.266  0.00  0.00    +0.000 A 
ATOM     26  C   UNL     1       1.457   9.588  18.035  0.00  0.00    +0.000 A 
ATOM     27  C   UNL     1       2.326   8.532  17.749  0.00  0.00    +0.000 A 
ATOM     28  C   UNL     1       2.561   7.546  18.699  0.00  0.00    +0.000 A 
ATOM     29  C   UNL     1       1.950   7.630  19.948  0.00  0.00    +0.000 A 
ATOM     30  C   UNL     1       1.076   8.684  20.234  0.00  0.00    +0.000 A 
ENDBRANCH  18  25
ENDBRANCH  15  18
ENDBRANCH   1  14
BRANCH   1  32
ATOM     31  C   UNL     1      -0.766  14.092  22.563  0.00  0.00    +0.000 C 
ATOM     32  C   UNL     1       0.537  14.743  22.116  0.00  0.00    +0.000 C 
BRANCH  32  33
ATOM     33  O   UNL     1       0.581  16.163  22.038  0.00  0.00    +0.000 OA
BRANCH  33  34
ATOM     34  P   UNL     1       1.546  17.136  22.836  0.00  0.00    +0.000 P 
ATOM     35  O   UNL     1       2.514  16.528  23.790  0.00  0.00    +0.000 OA
BRANCH  34  36
ATOM     36  O   UNL     1       2.297  17.936  21.674  0.00  0.00    +0.000 OA
ATOM     37  H   UNL     1       3.260  17.913  21.814  0.00  0.00    +0.000 HD
ENDBRANCH  34  36
BRANCH  34  38
ATOM     38  O   UNL     1       0.617  18.257  23.466  0.00  0.00    +0.000 OA
ATOM     39  H   UNL     1       0.582  18.227  24.440  0.00  0.00    +0.000 HD
ENDBRANCH  34  38
ENDBRANCH  33  34
ENDBRANCH  32  33
ENDBRANCH   1  32
TORSDOF 11
ENDMDL
MODEL 8
REMARK VINA RESULT:      -6.9      3.819      8.500
REMARK  Name = 
REMARK  12 active torsions:
REMARK  status: ('A' for Active; 'I' for Inactive)
REMARK    1  A    between atoms: C_1  and  C_2
REMARK    2  A    between atoms: C_2  and  O_3
REMARK    3  A    between atoms: C_2  and  C_8
REMARK    4  A    between atoms: O_3  and  P_4
REMARK    5  A    between atoms: P_4  and  O_6
REMARK    6  A    between atoms: P_4  and  O_7
REMARK    7  A    between atoms: C_8  and  N_9
REMARK    8  A    between atoms: C_8  and  C_25
REMARK    9  A    between atoms: C_10  and  C_12
REMARK   10  A    between atoms: C_12  and  C_13
REMARK   11  A    between atoms: C_12  and  C_19
REMARK   12  A    between atoms: C_31  and  C_32
REMARK                            x       y       z     vdW  Elec       q    Type
REMARK                         _______ _______ _______ _____ _____    ______ ____
ROOT
ATOM      1  C   UNL     1       0.921  10.034  18.923  0.00  0.00    +0.000 C 
ENDROOT
BRANCH   1   2
ATOM      2  C   UNL     1       1.621  11.400  18.806  0.00  0.00    +0.000 C 
ATOM      3  O   UNL     1       2.536  11.561  17.998  0.00  0.00    +0.000 OA
ATOM      4  N   UNL     1       1.168  12.450  19.589  0.00  0.00    +0.000 N 
ATOM      5  C   UNL     1      -0.033  12.530  20.402  0.00  0.00    +0.000 C 
ATOM      6  C   UNL     1      -0.555  13.921  20.098  0.00  0.00    +0.000 C 
ATOM      7  C   UNL     1       0.718  14.754  19.997  0.00  0.00    +0.000 C 
ATOM      8  C   UNL     1       1.795  13.775  19.492  0.00  0.00    +0.000 C 
BRANCH   8   9
ATOM      9  C   UNL     1       3.059  13.866  20.377  0.00  0.00    +0.000 C 
ATOM     10  N   UNL     1       4.111  14.556  19.832  0.00  0.00    +0.000 N 
ATOM     11  O   UNL     1       3.166  13.391  21.505  0.00  0.00    +0.000 OA
ATOM     12  H   UNL     1       4.001  15.195  19.056  0.00  0.00    +0.000 HD
ATOM     13  H   UNL     1       4.921  14.674  20.426  0.00  0.00    +0.000 HD
ENDBRANCH   8   9
ENDBRANCH   1   2
BRANCH   1  14
ATOM     14  N   UNL     1       1.937   9.023  19.267  0.00  0.00    +0.000 N 
ATOM     15  C   UNL     1       2.128   7.940  18.443  0.00  0.00    +0.000 C 
ATOM     16  O   UNL     1       1.589   7.907  17.333  0.00  0.00    +0.000 OA
ATOM     17  H   UNL     1       2.200   8.986  20.247  0.00  0.00    +0.000 HD
BRANCH  15  18
ATOM     18  C   UNL     1       3.056   6.811  18.965  0.00  0.00    +0.000 C 
BRANCH  18  19
ATOM     19  C   UNL     1       2.201   5.556  19.195  0.00  0.00    +0.000 A 
ATOM     20  C   UNL     1       1.743   5.237  20.486  0.00  0.00    +0.000 A 
ATOM     21  C   UNL     1       1.077   4.040  20.739  0.00  0.00    +0.000 A 
ATOM     22  C   UNL     1       0.827   3.154  19.697  0.00  0.00    +0.000 A 
ATOM     23  C   UNL     1       1.223   3.478  18.400  0.00  0.00    +0.000 A 
ATOM     24  C   UNL     1       1.907   4.672  18.146  0.00  0.00    +0.000 A 
ENDBRANCH  18  19
BRANCH  18  25
ATOM     25  C   UNL     1       4.266   6.542  18.055  0.00  0.00    +0.000 A 
ATOM     26  C   UNL     1       4.302   6.953  16.711  0.00  0.00    +0.000 A 
ATOM     27  C   UNL     1       5.371   6.611  15.879  0.00  0.00    +0.000 A 
ATOM     28  C   UNL     1       6.437   5.875  16.381  0.00  0.00    +0.000 A 
ATOM     29  C   UNL     1       6.451   5.506  17.723  0.00  0.00    +0.000 A 
ATOM     30  C   UNL     1       5.379   5.844  18.557  0.00  0.00    +0.000 A 
ENDBRANCH  18  25
ENDBRANCH  15  18
ENDBRANCH   1  14
BRANCH   1  32
ATOM     31  C   UNL     1       0.095   9.168  21.212  0.00  0.00    +0.000 C 
ATOM     32  C   UNL     1      -0.229   9.980  19.964  0.00  0.00    +0.000 C 
BRANCH  32  33
ATOM     33  O   UNL     1      -1.464   9.724  19.305  0.00  0.00    +0.000 OA
BRANCH  33  34
ATOM     34  P   UNL     1      -1.941  10.305  17.909  0.00  0.00    +0.000 P 
ATOM     35  O   UNL     1      -1.866  11.779  17.705  0.00  0.00    +0.000 OA
BRANCH  34  36
ATOM     36  O   UNL     1      -1.024   9.525  16.858  0.00  0.00    +0.000 OA
ATOM     37  H   UNL     1      -0.702  10.134  16.170  0.00  0.00    +0.000 HD
ENDBRANCH  34  36
BRANCH  34  38
ATOM     38  O   UNL     1      -3.371   9.676  17.635  0.00  0.00    +0.000 OA
ATOM     39  H   UNL     1      -4.105  10.293  17.815  0.00  0.00    +0.000 HD
ENDBRANCH  34  38
ENDBRANCH  33  34
ENDBRANCH  32  33
ENDBRANCH   1  32
TORSDOF 11
ENDMDL
MODEL 9
REMARK VINA RESULT:      -6.8      3.833      8.522
REMARK  Name = 
REMARK  12 active torsions:
REMARK  status: ('A' for Active; 'I' for Inactive)
REMARK    1  A    between atoms: C_1  and  C_2
REMARK    2  A    between atoms: C_2  and  O_3
REMARK    3  A    between atoms: C_2  and  C_8
REMARK    4  A    between atoms: O_3  and  P_4
REMARK    5  A    between atoms: P_4  and  O_6
REMARK    6  A    between atoms: P_4  and  O_7
REMARK    7  A    between atoms: C_8  and  N_9
REMARK    8  A    between atoms: C_8  and  C_25
REMARK    9  A    between atoms: C_10  and  C_12
REMARK   10  A    between atoms: C_12  and  C_13
REMARK   11  A    between atoms: C_12  and  C_19
REMARK   12  A    between atoms: C_31  and  C_32
REMARK                            x       y       z     vdW  Elec       q    Type
REMARK                         _______ _______ _______ _____ _____    ______ ____
ROOT
ATOM      1  C   UNL     1       0.827   9.796  19.715  0.00  0.00    +0.000 C 
ENDROOT
BRANCH   1   2
ATOM      2  C   UNL     1       1.322  11.083  20.399  0.00  0.00    +0.000 C 
ATOM      3  O   UNL     1       1.440  11.129  21.624  0.00  0.00    +0.000 OA
ATOM      4  N   UNL     1       1.678  12.164  19.608  0.00  0.00    +0.000 N 
ATOM      5  C   UNL     1       1.845  12.223  18.166  0.00  0.00    +0.000 C 
ATOM      6  C   UNL     1       3.114  13.039  18.007  0.00  0.00    +0.000 C 
ATOM      7  C   UNL     1       2.990  14.088  19.107  0.00  0.00    +0.000 C 
ATOM      8  C   UNL     1       2.175  13.403  20.220  0.00  0.00    +0.000 C 
BRANCH   8   9
ATOM      9  C   UNL     1       1.011  14.315  20.670  0.00  0.00    +0.000 C 
ATOM     10  N   UNL     1       0.623  14.172  21.977  0.00  0.00    +0.000 N 
ATOM     11  O   UNL     1       0.447  15.143  19.958  0.00  0.00    +0.000 OA
ATOM     12  H   UNL     1       1.207  13.732  22.675  0.00  0.00    +0.000 HD
ATOM     13  H   UNL     1      -0.096  14.807  22.299  0.00  0.00    +0.000 HD
ENDBRANCH   8   9
ENDBRANCH   1   2
BRANCH   1  14
ATOM     14  N   UNL     1       1.796   8.722  19.998  0.00  0.00    +0.000 N 
ATOM     15  C   UNL     1       2.161   7.851  19.000  0.00  0.00    +0.000 C 
ATOM     16  O   UNL     1       1.826   8.077  17.833  0.00  0.00    +0.000 OA
ATOM     17  H   UNL     1       1.885   8.461  20.976  0.00  0.00    +0.000 HD
BRANCH  15  18
ATOM     18  C   UNL     1       3.016   6.624  19.411  0.00  0.00    +0.000 C 
BRANCH  18  19
ATOM     19  C   UNL     1       2.114   5.381  19.386  0.00  0.00    +0.000 A 
ATOM     20  C   UNL     1       1.559   4.883  20.579  0.00  0.00    +0.000 A 
ATOM     21  C   UNL     1       0.845   3.687  20.596  0.00  0.00    +0.000 A 
ATOM     22  C   UNL     1       0.644   2.983  19.414  0.00  0.00    +0.000 A 
ATOM     23  C   UNL     1       1.137   3.489  18.212  0.00  0.00    +0.000 A 
ATOM     24  C   UNL     1       1.870   4.682  18.194  0.00  0.00    +0.000 A 
ENDBRANCH  18  19
BRANCH  18  25
ATOM     25  C   UNL     1       4.286   6.449  18.562  0.00  0.00    +0.000 A 
ATOM     26  C   UNL     1       5.413   5.753  19.030  0.00  0.00    +0.000 A 
ATOM     27  C   UNL     1       6.589   5.691  18.278  0.00  0.00    +0.000 A 
ATOM     28  C   UNL     1       6.652   6.303  17.031  0.00  0.00    +0.000 A 
ATOM     29  C   UNL     1       5.529   6.949  16.522  0.00  0.00    +0.000 A 
ATOM     30  C   UNL     1       4.352   7.015  17.275  0.00  0.00    +0.000 A 
ENDBRANCH  18  25
ENDBRANCH  15  18
ENDBRANCH   1  14
BRANCH   1  32
ATOM     31  C   UNL     1      -0.595   8.187  21.150  0.00  0.00    +0.000 C 
ATOM     32  C   UNL     1      -0.591   9.333  20.147  0.00  0.00    +0.000 C 
BRANCH  32  33
ATOM     33  O   UNL     1      -1.429   9.222  19.003  0.00  0.00    +0.000 OA
BRANCH  33  34
ATOM     34  P   UNL     1      -2.181  10.397  18.249  0.00  0.00    +0.000 P 
ATOM     35  O   UNL     1      -3.587  10.163  17.820  0.00  0.00    +0.000 OA
BRANCH  34  36
ATOM     36  O   UNL     1      -2.082  11.613  19.282  0.00  0.00    +0.000 OA
ATOM     37  H   UNL     1      -2.183  12.461  18.817  0.00  0.00    +0.000 HD
ENDBRANCH  34  36
BRANCH  34  38
ATOM     38  O   UNL     1      -1.208  10.867  17.087  0.00  0.00    +0.000 OA
ATOM     39  H   UNL     1      -0.867  10.130  16.547  0.00  0.00    +0.000 HD
ENDBRANCH  34  38
ENDBRANCH  33  34
ENDBRANCH  32  33
ENDBRANCH   1  32
TORSDOF 11
ENDMDL
