MODEL 1
REMARK VINA RESULT:      -8.5      0.000      0.000
REMARK  Name = 
REMARK  4 active torsions:
REMARK  status: ('A' for Active; 'I' for Inactive)
REMARK    1  A    between atoms: C_2  and  C_25
REMARK    2  A    between atoms: N_3  and  C_4
REMARK    3  A    between atoms: C_8  and  C_9
REMARK    4  A    between atoms: N_14  and  C_15
REMARK                            x       y       z     vdW  Elec       q    Type
REMARK                         _______ _______ _______ _____ _____    ______ ____
ROOT
ATOM      1  C   UNL     1       5.986   4.579  16.600  0.00  0.00    +0.000 A 
ATOM      2  C   UNL     1       7.223   4.952  17.129  0.00  0.00    +0.000 A 
ATOM      3  C   UNL     1       7.312   5.467  18.425  0.00  0.00    +0.000 A 
ATOM      4  C   UNL     1       6.173   5.549  19.222  0.00  0.00    +0.000 A 
ATOM      5  C   UNL     1       4.930   5.165  18.705  0.00  0.00    +0.000 A 
ATOM      6  C   UNL     1       4.836   4.777  17.365  0.00  0.00    +0.000 A 
ENDROOT
BRANCH   5   7
ATOM      7  C   UNL     1       3.736   5.241  19.587  0.00  0.00    +0.000 C 
ATOM      8  O   UNL     1       3.695   4.466  20.541  0.00  0.00    +0.000 OA
ATOM      9  N   UNL     1       2.727   6.166  19.339  0.00  0.00    +0.000 N 
ATOM     10  C   UNL     1       1.697   6.379  20.362  0.00  0.00    +0.000 C 
ATOM     11  C   UNL     1       1.617   7.870  20.763  0.00  0.00    +0.000 C 
ATOM     12  N   UNL     1       1.465   8.710  19.557  0.00  0.00    +0.000 N 
ATOM     13  C   UNL     1       2.466   8.480  18.501  0.00  0.00    +0.000 C 
ATOM     14  C   UNL     1       2.505   6.983  18.132  0.00  0.00    +0.000 C 
BRANCH  12  15
ATOM     15  C   UNL     1       0.511   9.702  19.464  0.00  0.00    +0.000 A 
ATOM     16  C   UNL     1       0.150  10.491  20.573  0.00  0.00    +0.000 A 
ATOM     17  C   UNL     1      -0.840  11.478  20.477  0.00  0.00    +0.000 A 
ATOM     18  C   UNL     1      -1.481  11.688  19.269  0.00  0.00    +0.000 A 
ATOM     19  F   UNL     1      -2.432  12.626  19.176  0.00  0.00    +0.000 F 
ATOM     20  C   UNL     1      -1.151  10.935  18.153  0.00  0.00    +0.000 A 
ATOM     21  C   UNL     1      -0.163   9.955  18.257  0.00  0.00    +0.000 A 
ENDBRANCH  12  15
ENDBRANCH   5   7
BRANCH   1  24
ATOM     22  O   UNL     1       7.207   5.327  14.036  0.00  0.00    +0.000 OA
ATOM     23  C   UNL     1       6.434   4.384  14.159  0.00  0.00    +0.000 C 
ATOM     24  N   UNL     1       5.819   3.982  15.332  0.00  0.00    +0.000 N 
ATOM     25  H   UNL     1       5.257   3.143  15.304  0.00  0.00    +0.000 HD
BRANCH  23  26
ATOM     26  C   UNL     1       6.111   3.583  12.944  0.00  0.00    +0.000 A 
ATOM     27  C   UNL     1       7.067   2.847  12.231  0.00  0.00    +0.000 A 
ATOM     28  C   UNL     1       6.682   2.117  11.101  0.00  0.00    +0.000 A 
ATOM     29  C   UNL     1       5.353   2.131  10.676  0.00  0.00    +0.000 A 
ATOM     30  C   UNL     1       4.405   2.881  11.370  0.00  0.00    +0.000 A 
ATOM     31  C   UNL     1       4.783   3.607  12.497  0.00  0.00    +0.000 A 
ENDBRANCH  23  26
ENDBRANCH   1  24
TORSDOF 4
ENDMDL
MODEL 2
REMARK VINA RESULT:      -8.4      0.260      1.262
REMARK  Name = 
REMARK  4 active torsions:
REMARK  status: ('A' for Active; 'I' for Inactive)
REMARK    1  A    between atoms: C_2  and  C_25
REMARK    2  A    between atoms: N_3  and  C_4
REMARK    3  A    between atoms: C_8  and  C_9
REMARK    4  A    between atoms: N_14  and  C_15
REMARK                            x       y       z     vdW  Elec       q    Type
REMARK                         _______ _______ _______ _____ _____    ______ ____
ROOT
ATOM      1  C   UNL     1       6.065   4.478  16.690  0.00  0.00    +0.000 A 
ATOM      2  C   UNL     1       7.276   4.873  17.261  0.00  0.00    +0.000 A 
ATOM      3  C   UNL     1       7.313   5.386  18.560  0.00  0.00    +0.000 A 
ATOM      4  C   UNL     1       6.147   5.444  19.319  0.00  0.00    +0.000 A 
ATOM      5  C   UNL     1       4.929   5.038  18.761  0.00  0.00    +0.000 A 
ATOM      6  C   UNL     1       4.886   4.652  17.417  0.00  0.00    +0.000 A 
ENDROOT
BRANCH   5   7
ATOM      7  C   UNL     1       3.705   5.089  19.602  0.00  0.00    +0.000 C 
ATOM      8  O   UNL     1       3.620   4.270  20.516  0.00  0.00    +0.000 OA
ATOM      9  N   UNL     1       2.718   6.040  19.365  0.00  0.00    +0.000 N 
ATOM     10  C   UNL     1       1.654   6.219  20.360  0.00  0.00    +0.000 C 
ATOM     11  C   UNL     1       1.580   7.690  20.830  0.00  0.00    +0.000 C 
ATOM     12  N   UNL     1       1.482   8.589  19.662  0.00  0.00    +0.000 N 
ATOM     13  C   UNL     1       2.517   8.395  18.631  0.00  0.00    +0.000 C 
ATOM     14  C   UNL     1       2.549   6.917  18.191  0.00  0.00    +0.000 C 
BRANCH  12  15
ATOM     15  C   UNL     1       0.545   9.598  19.583  0.00  0.00    +0.000 A 
ATOM     16  C   UNL     1      -0.022   9.990  18.356  0.00  0.00    +0.000 A 
ATOM     17  C   UNL     1      -0.952  11.036  18.279  0.00  0.00    +0.000 A 
ATOM     18  C   UNL     1      -1.327  11.703  19.433  0.00  0.00    +0.000 A 
ATOM     19  F   UNL     1      -2.210  12.706  19.364  0.00  0.00    +0.000 F 
ATOM     20  C   UNL     1      -0.794  11.344  20.662  0.00  0.00    +0.000 A 
ATOM     21  C   UNL     1       0.130  10.300  20.728  0.00  0.00    +0.000 A 
ENDBRANCH  12  15
ENDBRANCH   5   7
BRANCH   1  24
ATOM     22  O   UNL     1       6.794   5.580  14.068  0.00  0.00    +0.000 OA
ATOM     23  C   UNL     1       6.322   4.458  14.214  0.00  0.00    +0.000 C 
ATOM     24  N   UNL     1       5.951   3.881  15.416  0.00  0.00    +0.000 N 
ATOM     25  H   UNL     1       5.639   2.921  15.399  0.00  0.00    +0.000 HD
BRANCH  23  26
ATOM     26  C   UNL     1       6.119   3.622  12.997  0.00  0.00    +0.000 A 
ATOM     27  C   UNL     1       4.856   3.350  12.451  0.00  0.00    +0.000 A 
ATOM     28  C   UNL     1       4.751   2.557  11.304  0.00  0.00    +0.000 A 
ATOM     29  C   UNL     1       5.896   2.027  10.710  0.00  0.00    +0.000 A 
ATOM     30  C   UNL     1       7.151   2.277  11.263  0.00  0.00    +0.000 A 
ATOM     31  C   UNL     1       7.261   3.067  12.405  0.00  0.00    +0.000 A 
ENDBRANCH  23  26
ENDBRANCH   1  24
TORSDOF 4
ENDMDL
MODEL 3
REMARK VINA RESULT:      -8.0      3.251      5.579
REMARK  Name = 
REMARK  4 active torsions:
REMARK  status: ('A' for Active; 'I' for Inactive)
REMARK    1  A    between atoms: C_2  and  C_25
REMARK    2  A    between atoms: N_3  and  C_4
REMARK    3  A    between atoms: C_8  and  C_9
REMARK    4  A    between atoms: N_14  and  C_15
REMARK                            x       y       z     vdW  Elec       q    Type
REMARK                         _______ _______ _______ _____ _____    ______ ____
ROOT
ATOM      1  C   UNL     1       6.470   6.665  16.932  0.00  0.00    +0.000 A 
ATOM      2  C   UNL     1       6.830   5.836  15.868  0.00  0.00    +0.000 A 
ATOM      3  C   UNL     1       6.121   4.658  15.616  0.00  0.00    +0.000 A 
ATOM      4  C   UNL     1       5.006   4.338  16.387  0.00  0.00    +0.000 A 
ATOM      5  C   UNL     1       4.629   5.170  17.447  0.00  0.00    +0.000 A 
ATOM      6  C   UNL     1       5.425   6.274  17.770  0.00  0.00    +0.000 A 
ENDROOT
BRANCH   5   7
ATOM      7  C   UNL     1       3.420   4.816  18.238  0.00  0.00    +0.000 C 
ATOM      8  O   UNL     1       3.257   3.627  18.507  0.00  0.00    +0.000 OA
ATOM      9  N   UNL     1       2.534   5.802  18.662  0.00  0.00    +0.000 N 
ATOM     10  C   UNL     1       1.499   5.448  19.640  0.00  0.00    +0.000 C 
ATOM     11  C   UNL     1       1.578   6.365  20.882  0.00  0.00    +0.000 C 
ATOM     12  N   UNL     1       1.566   7.782  20.465  0.00  0.00    +0.000 N 
ATOM     13  C   UNL     1       2.571   8.147  19.451  0.00  0.00    +0.000 C 
ATOM     14  C   UNL     1       2.450   7.210  18.232  0.00  0.00    +0.000 C 
BRANCH  12  15
ATOM     15  C   UNL     1       0.737   8.717  21.049  0.00  0.00    +0.000 A 
ATOM     16  C   UNL     1       0.470   8.712  22.431  0.00  0.00    +0.000 A 
ATOM     17  C   UNL     1      -0.396   9.648  23.013  0.00  0.00    +0.000 A 
ATOM     18  C   UNL     1      -1.006  10.602  22.217  0.00  0.00    +0.000 A 
ATOM     19  F   UNL     1      -1.839  11.493  22.768  0.00  0.00    +0.000 F 
ATOM     20  C   UNL     1      -0.765  10.643  20.853  0.00  0.00    +0.000 A 
ATOM     21  C   UNL     1       0.100   9.708  20.282  0.00  0.00    +0.000 A 
ENDBRANCH  12  15
ENDBRANCH   5   7
BRANCH   1  24
ATOM     22  O   UNL     1       8.510   7.305  18.944  0.00  0.00    +0.000 OA
ATOM     23  C   UNL     1       8.048   8.137  18.172  0.00  0.00    +0.000 C 
ATOM     24  N   UNL     1       7.084   7.906  17.207  0.00  0.00    +0.000 N 
ATOM     25  H   UNL     1       6.844   8.669  16.590  0.00  0.00    +0.000 HD
BRANCH  23  26
ATOM     26  C   UNL     1       8.559   9.534  18.264  0.00  0.00    +0.000 A 
ATOM     27  C   UNL     1       8.127  10.569  17.423  0.00  0.00    +0.000 A 
ATOM     28  C   UNL     1       8.654  11.856  17.576  0.00  0.00    +0.000 A 
ATOM     29  C   UNL     1       9.616  12.108  18.554  0.00  0.00    +0.000 A 
ATOM     30  C   UNL     1      10.064  11.076  19.377  0.00  0.00    +0.000 A 
ATOM     31  C   UNL     1       9.541   9.794  19.230  0.00  0.00    +0.000 A 
ENDBRANCH  23  26
ENDBRANCH   1  24
TORSDOF 4
ENDMDL
MODEL 4
REMARK VINA RESULT:      -7.9      5.146     11.196
REMARK  Name = 
REMARK  4 active torsions:
REMARK  status: ('A' for Active; 'I' for Inactive)
REMARK    1  A    between atoms: C_2  and  C_25
REMARK    2  A    between atoms: N_3  and  C_4
REMARK    3  A    between atoms: C_8  and  C_9
REMARK    4  A    between atoms: N_14  and  C_15
REMARK                            x       y       z     vdW  Elec       q    Type
REMARK                         _______ _______ _______ _____ _____    ______ ____
ROOT
ATOM      1  C   UNL     1      -1.660  14.001  20.277  0.00  0.00    +0.000 A 
ATOM      2  C   UNL     1      -2.970  14.090  20.748  0.00  0.00    +0.000 A 
ATOM      3  C   UNL     1      -3.449  13.174  21.688  0.00  0.00    +0.000 A 
ATOM      4  C   UNL     1      -2.598  12.203  22.211  0.00  0.00    +0.000 A 
ATOM      5  C   UNL     1      -1.278  12.114  21.755  0.00  0.00    +0.000 A 
ATOM      6  C   UNL     1      -0.852  12.953  20.719  0.00  0.00    +0.000 A 
ENDROOT
BRANCH   5   7
ATOM      7  C   UNL     1      -0.386  11.084  22.348  0.00  0.00    +0.000 C 
ATOM      8  O   UNL     1      -0.532  10.840  23.545  0.00  0.00    +0.000 OA
ATOM      9  N   UNL     1       0.555  10.422  21.566  0.00  0.00    +0.000 N 
ATOM     10  C   UNL     1       1.238   9.248  22.123  0.00  0.00    +0.000 C 
ATOM     11  C   UNL     1       1.055   8.017  21.206  0.00  0.00    +0.000 C 
ATOM     12  N   UNL     1       1.449   8.354  19.823  0.00  0.00    +0.000 N 
ATOM     13  C   UNL     1       0.805   9.555  19.261  0.00  0.00    +0.000 C 
ATOM     14  C   UNL     1       1.019  10.755  20.206  0.00  0.00    +0.000 C 
BRANCH  12  15
ATOM     15  C   UNL     1       2.288   7.553  19.077  0.00  0.00    +0.000 A 
ATOM     16  C   UNL     1       2.970   8.042  17.947  0.00  0.00    +0.000 A 
ATOM     17  C   UNL     1       3.799   7.214  17.177  0.00  0.00    +0.000 A 
ATOM     18  C   UNL     1       3.955   5.884  17.531  0.00  0.00    +0.000 A 
ATOM     19  F   UNL     1       4.741   5.089  16.794  0.00  0.00    +0.000 F 
ATOM     20  C   UNL     1       3.304   5.366  18.639  0.00  0.00    +0.000 A 
ATOM     21  C   UNL     1       2.482   6.199  19.401  0.00  0.00    +0.000 A 
ENDBRANCH  12  15
ENDBRANCH   5   7
BRANCH   1  24
ATOM     22  O   UNL     1      -0.682  16.714  20.829  0.00  0.00    +0.000 OA
ATOM     23  C   UNL     1      -0.630  16.198  19.719  0.00  0.00    +0.000 C 
ATOM     24  N   UNL     1      -1.076  14.930  19.389  0.00  0.00    +0.000 N 
ATOM     25  H   UNL     1      -0.907  14.603  18.448  0.00  0.00    +0.000 HD
BRANCH  23  26
ATOM     26  C   UNL     1      -0.034  16.991  18.607  0.00  0.00    +0.000 A 
ATOM     27  C   UNL     1       1.324  16.933  18.261  0.00  0.00    +0.000 A 
ATOM     28  C   UNL     1       1.805  17.708  17.201  0.00  0.00    +0.000 A 
ATOM     29  C   UNL     1       0.941  18.547  16.496  0.00  0.00    +0.000 A 
ATOM     30  C   UNL     1      -0.404  18.623  16.852  0.00  0.00    +0.000 A 
ATOM     31  C   UNL     1      -0.889  17.852  17.906  0.00  0.00    +0.000 A 
ENDBRANCH  23  26
ENDBRANCH   1  24
TORSDOF 4
ENDMDL
MODEL 5
REMARK VINA RESULT:      -7.9      4.588     10.876
REMARK  Name = 
REMARK  4 active torsions:
REMARK  status: ('A' for Active; 'I' for Inactive)
REMARK    1  A    between atoms: C_2  and  C_25
REMARK    2  A    between atoms: N_3  and  C_4
REMARK    3  A    between atoms: C_8  and  C_9
REMARK    4  A    between atoms: N_14  and  C_15
REMARK                            x       y       z     vdW  Elec       q    Type
REMARK                         _______ _______ _______ _____ _____    ______ ____
ROOT
ATOM      1  C   UNL     1      -1.022  12.445  18.184  0.00  0.00    +0.000 A 
ATOM      2  C   UNL     1      -2.159  11.926  17.564  0.00  0.00    +0.000 A 
ATOM      3  C   UNL     1      -2.505  10.582  17.728  0.00  0.00    +0.000 A 
ATOM      4  C   UNL     1      -1.750   9.766  18.567  0.00  0.00    +0.000 A 
ATOM      5  C   UNL     1      -0.615  10.281  19.204  0.00  0.00    +0.000 A 
ATOM      6  C   UNL     1      -0.207  11.590  18.927  0.00  0.00    +0.000 A 
ENDROOT
BRANCH   5   7
ATOM      7  C   UNL     1       0.157   9.394  20.113  0.00  0.00    +0.000 C 
ATOM      8  O   UNL     1      -0.335   9.157  21.215  0.00  0.00    +0.000 OA
ATOM      9  N   UNL     1       1.373   8.848  19.711  0.00  0.00    +0.000 N 
ATOM     10  C   UNL     1       1.978   7.790  20.529  0.00  0.00    +0.000 C 
ATOM     11  C   UNL     1       2.250   6.527  19.681  0.00  0.00    +0.000 C 
ATOM     12  N   UNL     1       3.024   6.885  18.474  0.00  0.00    +0.000 N 
ATOM     13  C   UNL     1       2.453   7.975  17.663  0.00  0.00    +0.000 C 
ATOM     14  C   UNL     1       2.205   9.213  18.549  0.00  0.00    +0.000 C 
BRANCH  12  15
ATOM     15  C   UNL     1       4.148   6.188  18.084  0.00  0.00    +0.000 A 
ATOM     16  C   UNL     1       4.820   5.313  18.959  0.00  0.00    +0.000 A 
ATOM     17  C   UNL     1       5.979   4.630  18.565  0.00  0.00    +0.000 A 
ATOM     18  C   UNL     1       6.480   4.816  17.288  0.00  0.00    +0.000 A 
ATOM     19  F   UNL     1       7.590   4.170  16.910  0.00  0.00    +0.000 F 
ATOM     20  C   UNL     1       5.845   5.666  16.395  0.00  0.00    +0.000 A 
ATOM     21  C   UNL     1       4.691   6.340  16.796  0.00  0.00    +0.000 A 
ENDBRANCH  12  15
ENDBRANCH   5   7
BRANCH   1  24
ATOM     22  O   UNL     1      -1.157  14.475  20.301  0.00  0.00    +0.000 OA
ATOM     23  C   UNL     1      -0.732  14.710  19.176  0.00  0.00    +0.000 C 
ATOM     24  N   UNL     1      -0.646  13.805  18.132  0.00  0.00    +0.000 N 
ATOM     25  H   UNL     1      -0.210  14.115  17.276  0.00  0.00    +0.000 HD
BRANCH  23  26
ATOM     26  C   UNL     1      -0.258  16.092  18.883  0.00  0.00    +0.000 A 
ATOM     27  C   UNL     1      -1.110  17.204  18.838  0.00  0.00    +0.000 A 
ATOM     28  C   UNL     1      -0.587  18.471  18.559  0.00  0.00    +0.000 A 
ATOM     29  C   UNL     1       0.778  18.627  18.312  0.00  0.00    +0.000 A 
ATOM     30  C   UNL     1       1.623  17.520  18.333  0.00  0.00    +0.000 A 
ATOM     31  C   UNL     1       1.107  16.257  18.613  0.00  0.00    +0.000 A 
ENDBRANCH  23  26
ENDBRANCH   1  24
TORSDOF 4
ENDMDL
MODEL 6
REMARK VINA RESULT:      -7.8      3.373      5.816
REMARK  Name = 
REMARK  4 active torsions:
REMARK  status: ('A' for Active; 'I' for Inactive)
REMARK    1  A    between atoms: C_2  and  C_25
REMARK    2  A    between atoms: N_3  and  C_4
REMARK    3  A    between atoms: C_8  and  C_9
REMARK    4  A    between atoms: N_14  and  C_15
REMARK                            x       y       z     vdW  Elec       q    Type
REMARK                         _______ _______ _______ _____ _____    ______ ____
ROOT
ATOM      1  C   UNL     1       7.438   6.930  17.829  0.00  0.00    +0.000 A 
ATOM      2  C   UNL     1       7.597   6.221  16.638  0.00  0.00    +0.000 A 
ATOM      3  C   UNL     1       6.641   5.284  16.237  0.00  0.00    +0.000 A 
ATOM      4  C   UNL     1       5.486   5.100  16.994  0.00  0.00    +0.000 A 
ATOM      5  C   UNL     1       5.310   5.817  18.184  0.00  0.00    +0.000 A 
ATOM      6  C   UNL     1       6.336   6.652  18.639  0.00  0.00    +0.000 A 
ENDROOT
BRANCH   5   7
ATOM      7  C   UNL     1       4.057   5.618  18.958  0.00  0.00    +0.000 C 
ATOM      8  O   UNL     1       4.028   4.669  19.740  0.00  0.00    +0.000 OA
ATOM      9  N   UNL     1       2.982   6.488  18.807  0.00  0.00    +0.000 N 
ATOM     10  C   UNL     1       1.869   6.408  19.760  0.00  0.00    +0.000 C 
ATOM     11  C   UNL     1       1.617   7.778  20.430  0.00  0.00    +0.000 C 
ATOM     12  N   UNL     1       1.466   8.825  19.399  0.00  0.00    +0.000 N 
ATOM     13  C   UNL     1       2.554   8.892  18.407  0.00  0.00    +0.000 C 
ATOM     14  C   UNL     1       2.763   7.506  17.763  0.00  0.00    +0.000 C 
BRANCH  12  15
ATOM     15  C   UNL     1       0.429   9.734  19.415  0.00  0.00    +0.000 A 
ATOM     16  C   UNL     1       0.048  10.404  20.594  0.00  0.00    +0.000 A 
ATOM     17  C   UNL     1      -1.025  11.305  20.610  0.00  0.00    +0.000 A 
ATOM     18  C   UNL     1      -1.731  11.547  19.444  0.00  0.00    +0.000 A 
ATOM     19  F   UNL     1      -2.761  12.402  19.457  0.00  0.00    +0.000 F 
ATOM     20  C   UNL     1      -1.385  10.911  18.262  0.00  0.00    +0.000 A 
ATOM     21  C   UNL     1      -0.313  10.017  18.256  0.00  0.00    +0.000 A 
ENDBRANCH  12  15
ENDBRANCH   5   7
BRANCH   1  24
ATOM     22  O   UNL     1       7.261   9.829  17.400  0.00  0.00    +0.000 OA
ATOM     23  C   UNL     1       8.168   9.301  18.032  0.00  0.00    +0.000 C 
ATOM     24  N   UNL     1       8.316   7.944  18.266  0.00  0.00    +0.000 N 
ATOM     25  H   UNL     1       9.075   7.651  18.864  0.00  0.00    +0.000 HD
BRANCH  23  26
ATOM     26  C   UNL     1       9.222  10.182  18.610  0.00  0.00    +0.000 A 
ATOM     27  C   UNL     1       9.362  10.414  19.986  0.00  0.00    +0.000 A 
ATOM     28  C   UNL     1      10.380  11.254  20.449  0.00  0.00    +0.000 A 
ATOM     29  C   UNL     1      11.247  11.870  19.546  0.00  0.00    +0.000 A 
ATOM     30  C   UNL     1      11.096  11.659  18.177  0.00  0.00    +0.000 A 
ATOM     31  C   UNL     1      10.084  10.822  17.711  0.00  0.00    +0.000 A 
ENDBRANCH  23  26
ENDBRANCH   1  24
TORSDOF 4
ENDMDL
MODEL 7
REMARK VINA RESULT:      -7.7      3.883      6.822
REMARK  Name = 
REMARK  4 active torsions:
REMARK  status: ('A' for Active; 'I' for Inactive)
REMARK    1  A    between atoms: C_2  and  C_25
REMARK    2  A    between atoms: N_3  and  C_4
REMARK    3  A    between atoms: C_8  and  C_9
REMARK    4  A    between atoms: N_14  and  C_15
REMARK                            x       y       z     vdW  Elec       q    Type
REMARK                         _______ _______ _______ _____ _____    ______ ____
ROOT
ATOM      1  C   UNL     1       1.905   7.961  19.725  0.00  0.00    +0.000 A 
ATOM      2  C   UNL     1       1.567   7.423  20.968  0.00  0.00    +0.000 A 
ATOM      3  C   UNL     1       0.575   8.017  21.751  0.00  0.00    +0.000 A 
ATOM      4  C   UNL     1      -0.131   9.116  21.266  0.00  0.00    +0.000 A 
ATOM      5  C   UNL     1       0.191   9.654  20.015  0.00  0.00    +0.000 A 
ATOM      6  C   UNL     1       1.273   9.131  19.301  0.00  0.00    +0.000 A 
ENDROOT
BRANCH   5   7
ATOM      7  C   UNL     1      -0.596  10.811  19.512  0.00  0.00    +0.000 C 
ATOM      8  O   UNL     1      -0.923  10.792  18.326  0.00  0.00    +0.000 OA
ATOM      9  N   UNL     1      -0.953  11.852  20.364  0.00  0.00    +0.000 N 
ATOM     10  C   UNL     1      -1.930  12.843  19.898  0.00  0.00    +0.000 C 
ATOM     11  C   UNL     1      -3.125  12.941  20.874  0.00  0.00    +0.000 C 
ATOM     12  N   UNL     1      -2.635  13.165  22.250  0.00  0.00    +0.000 N 
ATOM     13  C   UNL     1      -1.621  12.205  22.720  0.00  0.00    +0.000 C 
ATOM     14  C   UNL     1      -0.450  12.146  21.718  0.00  0.00    +0.000 C 
BRANCH  12  15
ATOM     15  C   UNL     1      -3.155  14.145  23.069  0.00  0.00    +0.000 A 
ATOM     16  C   UNL     1      -4.422  14.713  22.834  0.00  0.00    +0.000 A 
ATOM     17  C   UNL     1      -4.933  15.729  23.653  0.00  0.00    +0.000 A 
ATOM     18  C   UNL     1      -4.180  16.190  24.720  0.00  0.00    +0.000 A 
ATOM     19  F   UNL     1      -4.661  17.165  25.501  0.00  0.00    +0.000 F 
ATOM     20  C   UNL     1      -2.930  15.654  24.987  0.00  0.00    +0.000 A 
ATOM     21  C   UNL     1      -2.430  14.641  24.166  0.00  0.00    +0.000 A 
ENDBRANCH  12  15
ENDBRANCH   5   7
BRANCH   1  24
ATOM     22  O   UNL     1       1.945   5.241  18.618  0.00  0.00    +0.000 OA
ATOM     23  C   UNL     1       2.793   6.084  18.351  0.00  0.00    +0.000 C 
ATOM     24  N   UNL     1       2.838   7.378  18.841  0.00  0.00    +0.000 N 
ATOM     25  H   UNL     1       3.557   7.991  18.483  0.00  0.00    +0.000 HD
BRANCH  23  26
ATOM     26  C   UNL     1       3.888   5.702  17.415  0.00  0.00    +0.000 A 
ATOM     27  C   UNL     1       4.690   6.636  16.746  0.00  0.00    +0.000 A 
ATOM     28  C   UNL     1       5.701   6.195  15.884  0.00  0.00    +0.000 A 
ATOM     29  C   UNL     1       5.903   4.829  15.682  0.00  0.00    +0.000 A 
ATOM     30  C   UNL     1       5.092   3.899  16.329  0.00  0.00    +0.000 A 
ATOM     31  C   UNL     1       4.086   4.333  17.188  0.00  0.00    +0.000 A 
ENDBRANCH  23  26
ENDBRANCH   1  24
TORSDOF 4
ENDMDL
MODEL 8
REMARK VINA RESULT:      -7.7      3.156      5.667
REMARK  Name = 
REMARK  4 active torsions:
REMARK  status: ('A' for Active; 'I' for Inactive)
REMARK    1  A    between atoms: C_2  and  C_25
REMARK    2  A    between atoms: N_3  and  C_4
REMARK    3  A    between atoms: C_8  and  C_9
REMARK    4  A    between atoms: N_14  and  C_15
REMARK                            x       y       z     vdW  Elec       q    Type
REMARK                         _______ _______ _______ _____ _____    ______ ____
ROOT
ATOM      1  C   UNL     1       7.377   6.504  18.095  0.00  0.00    +0.000 A 
ATOM      2  C   UNL     1       7.618   5.629  17.035  0.00  0.00    +0.000 A 
ATOM      3  C   UNL     1       6.713   4.605  16.743  0.00  0.00    +0.000 A 
ATOM      4  C   UNL     1       5.530   4.493  17.468  0.00  0.00    +0.000 A 
ATOM      5  C   UNL     1       5.272   5.374  18.524  0.00  0.00    +0.000 A 
ATOM      6  C   UNL     1       6.247   6.309  18.890  0.00  0.00    +0.000 A 
ENDROOT
BRANCH   5   7
ATOM      7  C   UNL     1       3.990   5.246  19.265  0.00  0.00    +0.000 C 
ATOM      8  O   UNL     1       3.900   4.320  20.071  0.00  0.00    +0.000 OA
ATOM      9  N   UNL     1       2.955   6.152  19.058  0.00  0.00    +0.000 N 
ATOM     10  C   UNL     1       1.812   6.142  19.979  0.00  0.00    +0.000 C 
ATOM     11  C   UNL     1       1.595   7.539  20.604  0.00  0.00    +0.000 C 
ATOM     12  N   UNL     1       1.515   8.561  19.540  0.00  0.00    +0.000 N 
ATOM     13  C   UNL     1       2.634   8.559  18.581  0.00  0.00    +0.000 C 
ATOM     14  C   UNL     1       2.807   7.148  17.981  0.00  0.00    +0.000 C 
BRANCH  12  15
ATOM     15  C   UNL     1       0.515   9.509  19.501  0.00  0.00    +0.000 A 
ATOM     16  C   UNL     1      -0.117   9.872  18.296  0.00  0.00    +0.000 A 
ATOM     17  C   UNL     1      -1.114  10.857  18.259  0.00  0.00    +0.000 A 
ATOM     18  C   UNL     1      -1.490  11.492  19.431  0.00  0.00    +0.000 A 
ATOM     19  F   UNL     1      -2.437  12.438  19.398  0.00  0.00    +0.000 F 
ATOM     20  C   UNL     1      -0.895  11.160  20.638  0.00  0.00    +0.000 A 
ATOM     21  C   UNL     1       0.095  10.177  20.665  0.00  0.00    +0.000 A 
ENDBRANCH  12  15
ENDBRANCH   5   7
BRANCH   1  24
ATOM     22  O   UNL     1       7.140   9.290  17.197  0.00  0.00    +0.000 OA
ATOM     23  C   UNL     1       8.025   8.904  17.952  0.00  0.00    +0.000 C 
ATOM     24  N   UNL     1       8.199   7.609  18.408  0.00  0.00    +0.000 N 
ATOM     25  H   UNL     1       8.931   7.443  19.084  0.00  0.00    +0.000 HD
BRANCH  23  26
ATOM     26  C   UNL     1       9.018   9.905  18.435  0.00  0.00    +0.000 A 
ATOM     27  C   UNL     1       9.832  10.657  17.577  0.00  0.00    +0.000 A 
ATOM     28  C   UNL     1      10.738  11.581  18.109  0.00  0.00    +0.000 A 
ATOM     29  C   UNL     1      10.841  11.746  19.491  0.00  0.00    +0.000 A 
ATOM     30  C   UNL     1      10.048  10.983  20.347  0.00  0.00    +0.000 A 
ATOM     31  C   UNL     1       9.143  10.064  19.821  0.00  0.00    +0.000 A 
ENDBRANCH  23  26
ENDBRANCH   1  24
TORSDOF 4
ENDMDL
MODEL 9
REMARK VINA RESULT:      -7.7      3.865      6.755
REMARK  Name = 
REMARK  4 active torsions:
REMARK  status: ('A' for Active; 'I' for Inactive)
REMARK    1  A    between atoms: C_2  and  C_25
REMARK    2  A    between atoms: N_3  and  C_4
REMARK    3  A    between atoms: C_8  and  C_9
REMARK    4  A    between atoms: N_14  and  C_15
REMARK                            x       y       z     vdW  Elec       q    Type
REMARK                         _______ _______ _______ _____ _____    ______ ____
ROOT
ATOM      1  C   UNL     1       1.903   8.070  19.393  0.00  0.00    +0.000 A 
ATOM      2  C   UNL     1       1.747   7.627  20.707  0.00  0.00    +0.000 A 
ATOM      3  C   UNL     1       0.884   8.293  21.582  0.00  0.00    +0.000 A 
ATOM      4  C   UNL     1       0.122   9.366  21.126  0.00  0.00    +0.000 A 
ATOM      5  C   UNL     1       0.261   9.810  19.806  0.00  0.00    +0.000 A 
ATOM      6  C   UNL     1       1.225   9.218  18.982  0.00  0.00    +0.000 A 
ENDROOT
BRANCH   5   7
ATOM      7  C   UNL     1      -0.582  10.942  19.341  0.00  0.00    +0.000 C 
ATOM      8  O   UNL     1      -0.949  10.921  18.167  0.00  0.00    +0.000 OA
ATOM      9  N   UNL     1      -0.945  11.963  20.213  0.00  0.00    +0.000 N 
ATOM     10  C   UNL     1      -1.972  12.922  19.790  0.00  0.00    +0.000 C 
ATOM     11  C   UNL     1      -3.134  12.971  20.808  0.00  0.00    +0.000 C 
ATOM     12  N   UNL     1      -2.605  13.202  22.168  0.00  0.00    +0.000 N 
ATOM     13  C   UNL     1      -1.542  12.275  22.595  0.00  0.00    +0.000 C 
ATOM     14  C   UNL     1      -0.406  12.265  21.552  0.00  0.00    +0.000 C 
BRANCH  12  15
ATOM     15  C   UNL     1      -3.130  14.158  23.013  0.00  0.00    +0.000 A 
ATOM     16  C   UNL     1      -4.202  14.984  22.623  0.00  0.00    +0.000 A 
ATOM     17  C   UNL     1      -4.712  15.972  23.476  0.00  0.00    +0.000 A 
ATOM     18  C   UNL     1      -4.155  16.145  24.732  0.00  0.00    +0.000 A 
ATOM     19  F   UNL     1      -4.635  17.092  25.547  0.00  0.00    +0.000 F 
ATOM     20  C   UNL     1      -3.101  15.349  25.154  0.00  0.00    +0.000 A 
ATOM     21  C   UNL     1      -2.601  14.366  24.298  0.00  0.00    +0.000 A 
ENDBRANCH  12  15
ENDBRANCH   5   7
BRANCH   1  24
ATOM     22  O   UNL     1       3.511   5.631  19.682  0.00  0.00    +0.000 OA
ATOM     23  C   UNL     1       3.425   6.254  18.630  0.00  0.00    +0.000 C 
ATOM     24  N   UNL     1       2.693   7.411  18.427  0.00  0.00    +0.000 N 
ATOM     25  H   UNL     1       2.655   7.784  17.489  0.00  0.00    +0.000 HD
BRANCH  23  26
ATOM     26  C   UNL     1       4.171   5.737  17.449  0.00  0.00    +0.000 A 
ATOM     27  C   UNL     1       4.357   4.371  17.193  0.00  0.00    +0.000 A 
ATOM     28  C   UNL     1       5.068   3.966  16.059  0.00  0.00    +0.000 A 
ATOM     29  C   UNL     1       5.602   4.917  15.189  0.00  0.00    +0.000 A 
ATOM     30  C   UNL     1       5.438   6.276  15.452  0.00  0.00    +0.000 A 
ATOM     31  C   UNL     1       4.730   6.684  16.580  0.00  0.00    +0.000 A 
ENDBRANCH  23  26
ENDBRANCH   1  24
TORSDOF 4
ENDMDL
