MODEL 1
REMARK VINA RESULT:      -7.3      0.000      0.000
REMARK  Name = 
REMARK  15 active torsions:
REMARK  status: ('A' for Active; 'I' for Inactive)
REMARK    1  A    between atoms: N_5  and  C_6
REMARK    2  A    between atoms: C_6  and  C_7
REMARK    3  A    between atoms: C_9  and  C_10
REMARK    4  A    between atoms: C_10  and  O_11
REMARK    5  A    between atoms: O_11  and  P_12
REMARK    6  A    between atoms: P_12  and  O_14
REMARK    7  A    between atoms: P_12  and  C_15
REMARK    8  A    between atoms: C_15  and  O_16
REMARK    9  A    between atoms: O_16  and  C_17
REMARK   10  A    between atoms: C_17  and  C_18
REMARK   11  A    between atoms: C_18  and  N_19
REMARK   12  A    between atoms: C_21  and  O_22
REMARK   13  A    between atoms: C_23  and  O_24
REMARK   14  A    between atoms: C_26  and  O_27
REMARK   15  A    between atoms: C_28  and  O_29
REMARK                            x       y       z     vdW  Elec       q    Type
REMARK                         _______ _______ _______ _____ _____    ______ ____
ROOT
ATOM      1  C   UNL     1       3.625   4.321  18.782  0.00  0.00    +0.000 C 
ATOM      2  O   UNL     1       2.732   5.437  18.947  0.00  0.00    +0.000 OA
ATOM      3  C   UNL     1       1.639   5.075  19.829  0.00  0.00    +0.000 C 
ATOM      4  C   UNL     1       1.881   3.625  20.263  0.00  0.00    +0.000 C 
ATOM      5  C   UNL     1       3.353   3.382  19.957  0.00  0.00    +0.000 C 
ENDROOT
BRANCH   4   6
ATOM      6  O   UNL     1       1.094   2.702  19.486  0.00  0.00    +0.000 OA
ATOM      7  H   UNL     1       1.533   1.834  19.510  0.00  0.00    +0.000 HD
ENDBRANCH   4   6
BRANCH   5   8
ATOM      8  O   UNL     1       3.622   2.021  19.638  0.00  0.00    +0.000 OA
ATOM      9  H   UNL     1       4.319   1.720  20.259  0.00  0.00    +0.000 HD
ENDBRANCH   5   8
BRANCH   1  10
ATOM     10  C   UNL     1       5.093   4.792  18.794  0.00  0.00    +0.000 C 
BRANCH  10  15
ATOM     11  O   UNL     1       7.679   5.254  13.997  0.00  0.00    +0.000 OA
ATOM     12  C   UNL     1       7.095   5.073  15.054  0.00  0.00    +0.000 A 
ATOM     13  C   UNL     1       5.638   5.256  15.159  0.00  0.00    +0.000 A 
ATOM     14  C   UNL     1       5.050   5.107  16.352  0.00  0.00    +0.000 A 
ATOM     15  N   UNL     1       5.769   4.792  17.489  0.00  0.00    +0.000 N 
ATOM     16  C   UNL     1       7.149   4.614  17.449  0.00  0.00    +0.000 A 
ATOM     17  O   UNL     1       7.849   4.400  18.436  0.00  0.00    +0.000 OA
ATOM     18  N   UNL     1       7.726   4.708  16.205  0.00  0.00    +0.000 N 
ATOM     19  H   UNL     1       8.726   4.603  16.171  0.00  0.00    +0.000 HD
ENDBRANCH  10  15
ENDBRANCH   1  10
BRANCH   3  20
ATOM     20  C   UNL     1       1.584   6.081  20.991  0.00  0.00    +0.000 C 
BRANCH  20  21
ATOM     21  O   UNL     1       1.657   7.418  20.473  0.00  0.00    +0.000 OA
BRANCH  21  22
ATOM     22  P   UNL     1       0.919   8.663  21.419  0.00  0.00    +0.000 P 
ATOM     23  O   UNL     1       0.762   9.568  20.184  0.00  0.00    +0.000 OA
BRANCH  22  24
ATOM     24  O   UNL     1      -0.469   7.782  21.445  0.00  0.00    +0.000 OA
ATOM     25  H   UNL     1      -0.505   7.244  20.629  0.00  0.00    +0.000 HD
ENDBRANCH  22  24
BRANCH  22  26
ATOM     26  C   UNL     1       0.138   9.982  22.420  0.00  0.00    +0.000 C 
BRANCH  26  27
ATOM     27  O   UNL     1       0.507  11.259  21.893  0.00  0.00    +0.000 OA
BRANCH  27  28
ATOM     28  C   UNL     1      -0.582  12.165  22.085  0.00  0.00    +0.000 C 
BRANCH  28  29
ATOM     29  C   UNL     1      -0.079  13.604  21.971  0.00  0.00    +0.000 C 
BRANCH  29  30
ATOM     30  N   UNL     1      -0.077  14.091  20.586  0.00  0.00    +0.000 NA
ATOM     31  C   UNL     1      -1.138  13.454  19.785  0.00  0.00    +0.000 C 
ATOM     32  C   UNL     1      -0.447  12.735  18.625  0.00  0.00    +0.000 C 
ATOM     33  C   UNL     1       0.849  13.528  18.457  0.00  0.00    +0.000 C 
ATOM     34  C   UNL     1       1.205  13.842  19.903  0.00  0.00    +0.000 C 
BRANCH  32  35
ATOM     35  O   UNL     1      -1.240  12.715  17.448  0.00  0.00    +0.000 OA
ATOM     36  H   UNL     1      -1.454  13.636  17.213  0.00  0.00    +0.000 HD
ENDBRANCH  32  35
BRANCH  33  37
ATOM     37  O   UNL     1       1.873  12.787  17.806  0.00  0.00    +0.000 OA
ATOM     38  H   UNL     1       2.013  11.958  18.297  0.00  0.00    +0.000 HD
ENDBRANCH  33  37
ENDBRANCH  29  30
ENDBRANCH  28  29
ENDBRANCH  27  28
ENDBRANCH  26  27
ENDBRANCH  22  26
ENDBRANCH  21  22
ENDBRANCH  20  21
ENDBRANCH   3  20
TORSDOF 15
ENDMDL
MODEL 2
REMARK VINA RESULT:      -7.1      2.772      5.309
REMARK  Name = 
REMARK  15 active torsions:
REMARK  status: ('A' for Active; 'I' for Inactive)
REMARK    1  A    between atoms: N_5  and  C_6
REMARK    2  A    between atoms: C_6  and  C_7
REMARK    3  A    between atoms: C_9  and  C_10
REMARK    4  A    between atoms: C_10  and  O_11
REMARK    5  A    between atoms: O_11  and  P_12
REMARK    6  A    between atoms: P_12  and  O_14
REMARK    7  A    between atoms: P_12  and  C_15
REMARK    8  A    between atoms: C_15  and  O_16
REMARK    9  A    between atoms: O_16  and  C_17
REMARK   10  A    between atoms: C_17  and  C_18
REMARK   11  A    between atoms: C_18  and  N_19
REMARK   12  A    between atoms: C_21  and  O_22
REMARK   13  A    between atoms: C_23  and  O_24
REMARK   14  A    between atoms: C_26  and  O_27
REMARK   15  A    between atoms: C_28  and  O_29
REMARK                            x       y       z     vdW  Elec       q    Type
REMARK                         _______ _______ _______ _____ _____    ______ ____
ROOT
ATOM      1  C   UNL     1       5.010   3.848  17.586  0.00  0.00    +0.000 C 
ATOM      2  O   UNL     1       5.122   5.077  18.327  0.00  0.00    +0.000 OA
ATOM      3  C   UNL     1       6.120   5.936  17.719  0.00  0.00    +0.000 C 
ATOM      4  C   UNL     1       6.658   5.192  16.492  0.00  0.00    +0.000 C 
ATOM      5  C   UNL     1       5.607   4.128  16.207  0.00  0.00    +0.000 C 
ENDROOT
BRANCH   4   6
ATOM      6  O   UNL     1       7.908   4.536  16.777  0.00  0.00    +0.000 OA
ATOM      7  H   UNL     1       8.149   3.993  16.006  0.00  0.00    +0.000 HD
ENDBRANCH   4   6
BRANCH   5   8
ATOM      8  O   UNL     1       6.165   2.962  15.610  0.00  0.00    +0.000 OA
ATOM      9  H   UNL     1       6.780   3.271  14.912  0.00  0.00    +0.000 HD
ENDBRANCH   5   8
BRANCH   1  10
ATOM     10  C   UNL     1       3.535   3.420  17.462  0.00  0.00    +0.000 C 
BRANCH  10  15
ATOM     11  O   UNL     1       1.103   2.567  22.285  0.00  0.00    +0.000 OA
ATOM     12  C   UNL     1       1.633   2.681  21.191  0.00  0.00    +0.000 A 
ATOM     13  C   UNL     1       3.090   2.539  21.032  0.00  0.00    +0.000 A 
ATOM     14  C   UNL     1       3.632   2.735  19.825  0.00  0.00    +0.000 A 
ATOM     15  N   UNL     1       2.868   3.070  18.724  0.00  0.00    +0.000 N 
ATOM     16  C   UNL     1       1.488   3.224  18.817  0.00  0.00    +0.000 A 
ATOM     17  O   UNL     1       0.766   3.586  17.891  0.00  0.00    +0.000 OA
ATOM     18  N   UNL     1       0.941   2.957  20.050  0.00  0.00    +0.000 N 
ATOM     19  H   UNL     1      -0.053   3.088  20.132  0.00  0.00    +0.000 HD
ENDBRANCH  10  15
ENDBRANCH   1  10
BRANCH   3  20
ATOM     20  C   UNL     1       5.477   7.296  17.401  0.00  0.00    +0.000 C 
BRANCH  20  21
ATOM     21  O   UNL     1       4.087   7.110  17.092  0.00  0.00    +0.000 OA
BRANCH  21  22
ATOM     22  P   UNL     1       2.943   7.813  18.183  0.00  0.00    +0.000 P 
ATOM     23  O   UNL     1       2.314   8.648  17.054  0.00  0.00    +0.000 OA
BRANCH  22  24
ATOM     24  O   UNL     1       2.095   6.404  18.154  0.00  0.00    +0.000 OA
ATOM     25  H   UNL     1       2.642   5.726  17.711  0.00  0.00    +0.000 HD
ENDBRANCH  22  24
BRANCH  22  26
ATOM     26  C   UNL     1       1.732   8.555  19.337  0.00  0.00    +0.000 C 
BRANCH  26  27
ATOM     27  O   UNL     1       0.966   9.546  18.647  0.00  0.00    +0.000 OA
BRANCH  27  28
ATOM     28  C   UNL     1       0.845  10.697  19.485  0.00  0.00    +0.000 C 
BRANCH  28  29
ATOM     29  C   UNL     1      -0.262  11.607  18.952  0.00  0.00    +0.000 C 
BRANCH  29  30
ATOM     30  N   UNL     1      -1.516  10.883  18.708  0.00  0.00    +0.000 NA
ATOM     31  C   UNL     1      -1.468  10.123  17.445  0.00  0.00    +0.000 C 
ATOM     32  C   UNL     1      -2.603  10.650  16.567  0.00  0.00    +0.000 C 
ATOM     33  C   UNL     1      -3.606  11.183  17.589  0.00  0.00    +0.000 C 
ATOM     34  C   UNL     1      -2.682  11.783  18.639  0.00  0.00    +0.000 C 
BRANCH  32  35
ATOM     35  O   UNL     1      -3.152   9.645  15.727  0.00  0.00    +0.000 OA
ATOM     36  H   UNL     1      -2.780   9.763  14.835  0.00  0.00    +0.000 HD
ENDBRANCH  32  35
BRANCH  33  37
ATOM     37  O   UNL     1      -4.491  12.153  17.045  0.00  0.00    +0.000 OA
ATOM     38  H   UNL     1      -5.337  11.718  16.841  0.00  0.00    +0.000 HD
ENDBRANCH  33  37
ENDBRANCH  29  30
ENDBRANCH  28  29
ENDBRANCH  27  28
ENDBRANCH  26  27
ENDBRANCH  22  26
ENDBRANCH  21  22
ENDBRANCH  20  21
ENDBRANCH   3  20
TORSDOF 15
ENDMDL
MODEL 3
REMARK VINA RESULT:      -7.1      1.738      2.792
REMARK  Name = 
REMARK  15 active torsions:
REMARK  status: ('A' for Active; 'I' for Inactive)
REMARK    1  A    between atoms: N_5  and  C_6
REMARK    2  A    between atoms: C_6  and  C_7
REMARK    3  A    between atoms: C_9  and  C_10
REMARK    4  A    between atoms: C_10  and  O_11
REMARK    5  A    between atoms: O_11  and  P_12
REMARK    6  A    between atoms: P_12  and  O_14
REMARK    7  A    between atoms: P_12  and  C_15
REMARK    8  A    between atoms: C_15  and  O_16
REMARK    9  A    between atoms: O_16  and  C_17
REMARK   10  A    between atoms: C_17  and  C_18
REMARK   11  A    between atoms: C_18  and  N_19
REMARK   12  A    between atoms: C_21  and  O_22
REMARK   13  A    between atoms: C_23  and  O_24
REMARK   14  A    between atoms: C_26  and  O_27
REMARK   15  A    between atoms: C_28  and  O_29
REMARK                            x       y       z     vdW  Elec       q    Type
REMARK                         _______ _______ _______ _____ _____    ______ ____
ROOT
ATOM      1  C   UNL     1       3.889   2.961  17.799  0.00  0.00    +0.000 C 
ATOM      2  O   UNL     1       2.622   2.518  18.318  0.00  0.00    +0.000 OA
ATOM      3  C   UNL     1       2.685   2.414  19.763  0.00  0.00    +0.000 C 
ATOM      4  C   UNL     1       4.096   2.845  20.178  0.00  0.00    +0.000 C 
ATOM      5  C   UNL     1       4.626   3.607  18.972  0.00  0.00    +0.000 C 
ENDROOT
BRANCH   4   6
ATOM      6  O   UNL     1       4.949   1.708  20.412  0.00  0.00    +0.000 OA
ATOM      7  H   UNL     1       5.867   2.026  20.480  0.00  0.00    +0.000 HD
ENDBRANCH   4   6
BRANCH   5   8
ATOM      8  O   UNL     1       6.041   3.507  18.846  0.00  0.00    +0.000 OA
ATOM      9  H   UNL     1       6.214   2.856  18.133  0.00  0.00    +0.000 HD
ENDBRANCH   5   8
BRANCH   1  10
ATOM     10  C   UNL     1       3.684   3.979  16.660  0.00  0.00    +0.000 C 
BRANCH  10  15
ATOM     11  O   UNL     1       7.949   5.666  13.682  0.00  0.00    +0.000 OA
ATOM     12  C   UNL     1       7.048   5.272  14.405  0.00  0.00    +0.000 A 
ATOM     13  C   UNL     1       6.557   3.887  14.324  0.00  0.00    +0.000 A 
ATOM     14  C   UNL     1       5.526   3.518  15.093  0.00  0.00    +0.000 A 
ATOM     15  N   UNL     1       4.904   4.399  15.957  0.00  0.00    +0.000 N 
ATOM     16  C   UNL     1       5.322   5.722  16.069  0.00  0.00    +0.000 A 
ATOM     17  O   UNL     1       4.767   6.567  16.769  0.00  0.00    +0.000 OA
ATOM     18  N   UNL     1       6.422   6.065  15.320  0.00  0.00    +0.000 N 
ATOM     19  H   UNL     1       6.716   7.025  15.379  0.00  0.00    +0.000 HD
ENDBRANCH  10  15
ENDBRANCH   1  10
BRANCH   3  20
ATOM     20  C   UNL     1       1.560   3.267  20.372  0.00  0.00    +0.000 C 
BRANCH  20  21
ATOM     21  O   UNL     1       1.291   4.389  19.517  0.00  0.00    +0.000 OA
BRANCH  21  22
ATOM     22  P   UNL     1       1.482   5.962  20.209  0.00  0.00    +0.000 P 
ATOM     23  O   UNL     1       2.318   5.398  21.371  0.00  0.00    +0.000 OA
BRANCH  22  24
ATOM     24  O   UNL     1       2.596   6.305  19.048  0.00  0.00    +0.000 OA
ATOM     25  H   UNL     1       2.132   6.711  18.289  0.00  0.00    +0.000 HD
ENDBRANCH  22  24
BRANCH  22  26
ATOM     26  C   UNL     1       1.684   7.628  20.940  0.00  0.00    +0.000 C 
BRANCH  26  27
ATOM     27  O   UNL     1       1.416   8.618  19.945  0.00  0.00    +0.000 OA
BRANCH  27  28
ATOM     28  C   UNL     1       0.245   9.344  20.325  0.00  0.00    +0.000 C 
BRANCH  28  29
ATOM     29  C   UNL     1       0.648  10.604  21.092  0.00  0.00    +0.000 C 
BRANCH  29  30
ATOM     30  N   UNL     1       0.747  11.783  20.223  0.00  0.00    +0.000 NA
ATOM     31  C   UNL     1      -0.031  12.917  20.754  0.00  0.00    +0.000 C 
ATOM     32  C   UNL     1      -1.064  13.284  19.688  0.00  0.00    +0.000 C 
ATOM     33  C   UNL     1      -0.406  12.803  18.396  0.00  0.00    +0.000 C 
ATOM     34  C   UNL     1       0.266  11.517  18.855  0.00  0.00    +0.000 C 
BRANCH  32  35
ATOM     35  O   UNL     1      -1.361  14.672  19.674  0.00  0.00    +0.000 OA
ATOM     36  H   UNL     1      -2.275  14.788  19.989  0.00  0.00    +0.000 HD
ENDBRANCH  32  35
BRANCH  33  37
ATOM     37  O   UNL     1      -1.340  12.570  17.350  0.00  0.00    +0.000 OA
ATOM     38  H   UNL     1      -0.868  12.174  16.597  0.00  0.00    +0.000 HD
ENDBRANCH  33  37
ENDBRANCH  29  30
ENDBRANCH  28  29
ENDBRANCH  27  28
ENDBRANCH  26  27
ENDBRANCH  22  26
ENDBRANCH  21  22
ENDBRANCH  20  21
ENDBRANCH   3  20
TORSDOF 15
ENDMDL
MODEL 4
REMARK VINA RESULT:      -7.0      2.553      3.537
REMARK  Name = 
REMARK  15 active torsions:
REMARK  status: ('A' for Active; 'I' for Inactive)
REMARK    1  A    between atoms: N_5  and  C_6
REMARK    2  A    between atoms: C_6  and  C_7
REMARK    3  A    between atoms: C_9  and  C_10
REMARK    4  A    between atoms: C_10  and  O_11
REMARK    5  A    between atoms: O_11  and  P_12
REMARK    6  A    between atoms: P_12  and  O_14
REMARK    7  A    between atoms: P_12  and  C_15
REMARK    8  A    between atoms: C_15  and  O_16
REMARK    9  A    between atoms: O_16  and  C_17
REMARK   10  A    between atoms: C_17  and  C_18
REMARK   11  A    between atoms: C_18  and  N_19
REMARK   12  A    between atoms: C_21  and  O_22
REMARK   13  A    between atoms: C_23  and  O_24
REMARK   14  A    between atoms: C_26  and  O_27
REMARK   15  A    between atoms: C_28  and  O_29
REMARK                            x       y       z     vdW  Elec       q    Type
REMARK                         _______ _______ _______ _____ _____    ______ ____
ROOT
ATOM      1  C   UNL     1       4.062   4.464  18.237  0.00  0.00    +0.000 C 
ATOM      2  O   UNL     1       3.560   5.616  17.536  0.00  0.00    +0.000 OA
ATOM      3  C   UNL     1       2.423   6.173  18.244  0.00  0.00    +0.000 C 
ATOM      4  C   UNL     1       2.213   5.311  19.494  0.00  0.00    +0.000 C 
ATOM      5  C   UNL     1       3.532   4.572  19.666  0.00  0.00    +0.000 C 
ENDROOT
BRANCH   4   6
ATOM      6  O   UNL     1       1.167   4.340  19.298  0.00  0.00    +0.000 OA
ATOM      7  H   UNL     1       0.494   4.732  18.715  0.00  0.00    +0.000 HD
ENDBRANCH   4   6
BRANCH   5   8
ATOM      8  O   UNL     1       3.364   3.299  20.281  0.00  0.00    +0.000 OA
ATOM      9  H   UNL     1       4.128   3.175  20.883  0.00  0.00    +0.000 HD
ENDBRANCH   5   8
BRANCH   1  10
ATOM     10  C   UNL     1       5.603   4.452  18.229  0.00  0.00    +0.000 C 
BRANCH  10  15
ATOM     11  O   UNL     1       7.582   5.285  13.199  0.00  0.00    +0.000 OA
ATOM     12  C   UNL     1       7.204   5.054  14.337  0.00  0.00    +0.000 A 
ATOM     13  C   UNL     1       6.277   3.947  14.622  0.00  0.00    +0.000 A 
ATOM     14  C   UNL     1       5.842   3.771  15.874  0.00  0.00    +0.000 A 
ATOM     15  N   UNL     1       6.232   4.600  16.908  0.00  0.00    +0.000 N 
ATOM     16  C   UNL     1       7.101   5.667  16.696  0.00  0.00    +0.000 A 
ATOM     17  O   UNL     1       7.430   6.476  17.560  0.00  0.00    +0.000 OA
ATOM     18  N   UNL     1       7.587   5.793  15.416  0.00  0.00    +0.000 N 
ATOM     19  H   UNL     1       8.198   6.574  15.249  0.00  0.00    +0.000 HD
ENDBRANCH  10  15
ENDBRANCH   1  10
BRANCH   3  20
ATOM     20  C   UNL     1       2.699   7.656  18.539  0.00  0.00    +0.000 C 
BRANCH  20  21
ATOM     21  O   UNL     1       1.751   8.471  17.833  0.00  0.00    +0.000 OA
BRANCH  21  22
ATOM     22  P   UNL     1       1.000   9.747  18.726  0.00  0.00    +0.000 P 
ATOM     23  O   UNL     1       2.055  10.762  18.249  0.00  0.00    +0.000 OA
BRANCH  22  24
ATOM     24  O   UNL     1      -0.173   9.823  17.576  0.00  0.00    +0.000 OA
ATOM     25  H   UNL     1       0.226   9.584  16.716  0.00  0.00    +0.000 HD
ENDBRANCH  22  24
BRANCH  22  26
ATOM     26  C   UNL     1       0.204  11.098  19.671  0.00  0.00    +0.000 C 
BRANCH  26  27
ATOM     27  O   UNL     1      -0.730  11.779  18.830  0.00  0.00    +0.000 OA
BRANCH  27  28
ATOM     28  C   UNL     1      -1.885  12.111  19.604  0.00  0.00    +0.000 C 
BRANCH  28  29
ATOM     29  C   UNL     1      -1.470  12.411  21.044  0.00  0.00    +0.000 C 
BRANCH  29  30
ATOM     30  N   UNL     1      -2.467  13.215  21.761  0.00  0.00    +0.000 NA
ATOM     31  C   UNL     1      -2.383  13.012  23.219  0.00  0.00    +0.000 C 
ATOM     32  C   UNL     1      -3.745  12.483  23.671  0.00  0.00    +0.000 C 
ATOM     33  C   UNL     1      -4.694  13.027  22.605  0.00  0.00    +0.000 C 
ATOM     34  C   UNL     1      -3.847  12.900  21.348  0.00  0.00    +0.000 C 
BRANCH  32  35
ATOM     35  O   UNL     1      -4.084  12.907  24.983  0.00  0.00    +0.000 OA
ATOM     36  H   UNL     1      -4.582  12.189  25.413  0.00  0.00    +0.000 HD
ENDBRANCH  32  35
BRANCH  33  37
ATOM     37  O   UNL     1      -5.904  12.287  22.508  0.00  0.00    +0.000 OA
ATOM     38  H   UNL     1      -6.138  12.203  21.568  0.00  0.00    +0.000 HD
ENDBRANCH  33  37
ENDBRANCH  29  30
ENDBRANCH  28  29
ENDBRANCH  27  28
ENDBRANCH  26  27
ENDBRANCH  22  26
ENDBRANCH  21  22
ENDBRANCH  20  21
ENDBRANCH   3  20
TORSDOF 15
ENDMDL
MODEL 5
REMARK VINA RESULT:      -7.0      1.353      1.814
REMARK  Name = 
REMARK  15 active torsions:
REMARK  status: ('A' for Active; 'I' for Inactive)
REMARK    1  A    between atoms: N_5  and  C_6
REMARK    2  A    between atoms: C_6  and  C_7
REMARK    3  A    between atoms: C_9  and  C_10
REMARK    4  A    between atoms: C_10  and  O_11
REMARK    5  A    between atoms: O_11  and  P_12
REMARK    6  A    between atoms: P_12  and  O_14
REMARK    7  A    between atoms: P_12  and  C_15
REMARK    8  A    between atoms: C_15  and  O_16
REMARK    9  A    between atoms: O_16  and  C_17
REMARK   10  A    between atoms: C_17  and  C_18
REMARK   11  A    between atoms: C_18  and  N_19
REMARK   12  A    between atoms: C_21  and  O_22
REMARK   13  A    between atoms: C_23  and  O_24
REMARK   14  A    between atoms: C_26  and  O_27
REMARK   15  A    between atoms: C_28  and  O_29
REMARK                            x       y       z     vdW  Elec       q    Type
REMARK                         _______ _______ _______ _____ _____    ______ ____
ROOT
ATOM      1  C   UNL     1       3.406   3.746  18.475  0.00  0.00    +0.000 C 
ATOM      2  O   UNL     1       2.820   5.031  18.750  0.00  0.00    +0.000 OA
ATOM      3  C   UNL     1       1.568   4.866  19.464  0.00  0.00    +0.000 C 
ATOM      4  C   UNL     1       1.369   3.360  19.667  0.00  0.00    +0.000 C 
ATOM      5  C   UNL     1       2.754   2.765  19.449  0.00  0.00    +0.000 C 
ENDROOT
BRANCH   4   6
ATOM      6  O   UNL     1       0.474   2.807  18.684  0.00  0.00    +0.000 OA
ATOM      7  H   UNL     1       0.545   1.837  18.720  0.00  0.00    +0.000 HD
ENDBRANCH   4   6
BRANCH   5   8
ATOM      8  O   UNL     1       2.699   1.440  18.931  0.00  0.00    +0.000 OA
ATOM      9  H   UNL     1       3.594   1.237  18.586  0.00  0.00    +0.000 HD
ENDBRANCH   5   8
BRANCH   1  10
ATOM     10  C   UNL     1       4.932   3.788  18.689  0.00  0.00    +0.000 C 
BRANCH  10  15
ATOM     11  O   UNL     1       7.711   5.422  14.271  0.00  0.00    +0.000 OA
ATOM     12  C   UNL     1       7.128   4.986  15.251  0.00  0.00    +0.000 A 
ATOM     13  C   UNL     1       5.793   4.376  15.134  0.00  0.00    +0.000 A 
ATOM     14  C   UNL     1       5.166   3.971  16.244  0.00  0.00    +0.000 A 
ATOM     15  N   UNL     1       5.730   4.111  17.497  0.00  0.00    +0.000 N 
ATOM     16  C   UNL     1       6.986   4.687  17.668  0.00  0.00    +0.000 A 
ATOM     17  O   UNL     1       7.509   4.899  18.760  0.00  0.00    +0.000 OA
ATOM     18  N   UNL     1       7.642   5.039  16.513  0.00  0.00    +0.000 N 
ATOM     19  H   UNL     1       8.540   5.476  16.628  0.00  0.00    +0.000 HD
ENDBRANCH  10  15
ENDBRANCH   1  10
BRANCH   3  20
ATOM     20  C   UNL     1       1.630   5.677  20.769  0.00  0.00    +0.000 C 
BRANCH  20  21
ATOM     21  O   UNL     1       1.988   7.036  20.474  0.00  0.00    +0.000 OA
BRANCH  21  22
ATOM     22  P   UNL     1       0.840   8.257  20.903  0.00  0.00    +0.000 P 
ATOM     23  O   UNL     1       1.777   8.816  21.989  0.00  0.00    +0.000 OA
BRANCH  22  24
ATOM     24  O   UNL     1       1.262   9.089  19.549  0.00  0.00    +0.000 OA
ATOM     25  H   UNL     1       1.930   8.565  19.063  0.00  0.00    +0.000 HD
ENDBRANCH  22  24
BRANCH  22  26
ATOM     26  C   UNL     1      -0.373   9.549  21.358  0.00  0.00    +0.000 C 
BRANCH  26  27
ATOM     27  O   UNL     1       0.109  10.274  22.492  0.00  0.00    +0.000 OA
BRANCH  27  28
ATOM     28  C   UNL     1      -0.659  11.472  22.629  0.00  0.00    +0.000 C 
BRANCH  28  29
ATOM     29  C   UNL     1      -1.131  11.940  21.253  0.00  0.00    +0.000 C 
BRANCH  29  30
ATOM     30  N   UNL     1      -0.390  13.114  20.774  0.00  0.00    +0.000 NA
ATOM     31  C   UNL     1       0.641  12.740  19.788  0.00  0.00    +0.000 C 
ATOM     32  C   UNL     1       1.985  13.195  20.359  0.00  0.00    +0.000 C 
ATOM     33  C   UNL     1       1.592  14.349  21.280  0.00  0.00    +0.000 C 
ATOM     34  C   UNL     1       0.283  13.839  21.867  0.00  0.00    +0.000 C 
BRANCH  32  35
ATOM     35  O   UNL     1       2.902  13.583  19.347  0.00  0.00    +0.000 OA
ATOM     36  H   UNL     1       3.231  14.474  19.564  0.00  0.00    +0.000 HD
ENDBRANCH  32  35
BRANCH  33  37
ATOM     37  O   UNL     1       2.560  14.610  22.288  0.00  0.00    +0.000 OA
ATOM     38  H   UNL     1       3.023  15.435  22.064  0.00  0.00    +0.000 HD
ENDBRANCH  33  37
ENDBRANCH  29  30
ENDBRANCH  28  29
ENDBRANCH  27  28
ENDBRANCH  26  27
ENDBRANCH  22  26
ENDBRANCH  21  22
ENDBRANCH  20  21
ENDBRANCH   3  20
TORSDOF 15
ENDMDL
MODEL 6
REMARK VINA RESULT:      -7.0      5.190      8.333
REMARK  Name = 
REMARK  15 active torsions:
REMARK  status: ('A' for Active; 'I' for Inactive)
REMARK    1  A    between atoms: N_5  and  C_6
REMARK    2  A    between atoms: C_6  and  C_7
REMARK    3  A    between atoms: C_9  and  C_10
REMARK    4  A    between atoms: C_10  and  O_11
REMARK    5  A    between atoms: O_11  and  P_12
REMARK    6  A    between atoms: P_12  and  O_14
REMARK    7  A    between atoms: P_12  and  C_15
REMARK    8  A    between atoms: C_15  and  O_16
REMARK    9  A    between atoms: O_16  and  C_17
REMARK   10  A    between atoms: C_17  and  C_18
REMARK   11  A    between atoms: C_18  and  N_19
REMARK   12  A    between atoms: C_21  and  O_22
REMARK   13  A    between atoms: C_23  and  O_24
REMARK   14  A    between atoms: C_26  and  O_27
REMARK   15  A    between atoms: C_28  and  O_29
REMARK                            x       y       z     vdW  Elec       q    Type
REMARK                         _______ _______ _______ _____ _____    ______ ____
ROOT
ATOM      1  C   UNL     1       2.676   5.992  19.178  0.00  0.00    +0.000 C 
ATOM      2  O   UNL     1       4.018   5.861  19.681  0.00  0.00    +0.000 OA
ATOM      3  C   UNL     1       4.590   4.599  19.252  0.00  0.00    +0.000 C 
ATOM      4  C   UNL     1       3.528   3.898  18.398  0.00  0.00    +0.000 C 
ATOM      5  C   UNL     1       2.562   5.010  18.013  0.00  0.00    +0.000 C 
ENDROOT
BRANCH   4   6
ATOM      6  O   UNL     1       2.807   2.909  19.158  0.00  0.00    +0.000 OA
ATOM      7  H   UNL     1       1.871   2.947  18.895  0.00  0.00    +0.000 HD
ENDBRANCH   4   6
BRANCH   5   8
ATOM      8  O   UNL     1       1.232   4.534  17.832  0.00  0.00    +0.000 OA
ATOM      9  H   UNL     1       1.153   3.715  18.364  0.00  0.00    +0.000 HD
ENDBRANCH   5   8
BRANCH   1  10
ATOM     10  C   UNL     1       2.413   7.434  18.700  0.00  0.00    +0.000 C 
BRANCH  10  15
ATOM     11  O   UNL     1       0.110  10.860  22.287  0.00  0.00    +0.000 OA
ATOM     12  C   UNL     1       0.553  10.061  21.477  0.00  0.00    +0.000 A 
ATOM     13  C   UNL     1       1.175   8.800  21.913  0.00  0.00    +0.000 A 
ATOM     14  C   UNL     1       1.702   7.985  20.993  0.00  0.00    +0.000 A 
ATOM     15  N   UNL     1       1.685   8.292  19.646  0.00  0.00    +0.000 N 
ATOM     16  C   UNL     1       1.117   9.473  19.178  0.00  0.00    +0.000 A 
ATOM     17  O   UNL     1       1.131   9.831  18.002  0.00  0.00    +0.000 OA
ATOM     18  N   UNL     1       0.524  10.268  20.130  0.00  0.00    +0.000 N 
ATOM     19  H   UNL     1       0.130  11.133  19.803  0.00  0.00    +0.000 HD
ENDBRANCH  10  15
ENDBRANCH   1  10
BRANCH   3  20
ATOM     20  C   UNL     1       5.910   4.878  18.514  0.00  0.00    +0.000 C 
BRANCH  20  21
ATOM     21  O   UNL     1       5.727   5.966  17.595  0.00  0.00    +0.000 OA
BRANCH  21  22
ATOM     22  P   UNL     1       7.010   7.119  17.483  0.00  0.00    +0.000 P 
ATOM     23  O   UNL     1       7.778   6.442  18.632  0.00  0.00    +0.000 OA
BRANCH  22  24
ATOM     24  O   UNL     1       7.550   6.345  16.136  0.00  0.00    +0.000 OA
ATOM     25  H   UNL     1       7.747   5.418  16.374  0.00  0.00    +0.000 HD
ENDBRANCH  22  24
BRANCH  22  26
ATOM     26  C   UNL     1       8.369   8.340  17.364  0.00  0.00    +0.000 C 
BRANCH  26  27
ATOM     27  O   UNL     1       8.524   9.001  18.622  0.00  0.00    +0.000 OA
BRANCH  27  28
ATOM     28  C   UNL     1       8.849  10.372  18.381  0.00  0.00    +0.000 C 
BRANCH  28  29
ATOM     29  C   UNL     1       9.482  10.978  19.634  0.00  0.00    +0.000 C 
BRANCH  29  30
ATOM     30  N   UNL     1      10.642  11.823  19.325  0.00  0.00    +0.000 NA
ATOM     31  C   UNL     1      10.332  13.254  19.492  0.00  0.00    +0.000 C 
ATOM     32  C   UNL     1      10.569  13.920  18.136  0.00  0.00    +0.000 C 
ATOM     33  C   UNL     1      11.599  13.001  17.480  0.00  0.00    +0.000 C 
ATOM     34  C   UNL     1      11.126  11.631  17.946  0.00  0.00    +0.000 C 
BRANCH  32  35
ATOM     35  O   UNL     1      11.023  15.259  18.260  0.00  0.00    +0.000 OA
ATOM     36  H   UNL     1      10.244  15.833  18.369  0.00  0.00    +0.000 HD
ENDBRANCH  32  35
BRANCH  33  37
ATOM     37  O   UNL     1      11.613  13.104  16.062  0.00  0.00    +0.000 OA
ATOM     38  H   UNL     1      10.897  12.549  15.706  0.00  0.00    +0.000 HD
ENDBRANCH  33  37
ENDBRANCH  29  30
ENDBRANCH  28  29
ENDBRANCH  27  28
ENDBRANCH  26  27
ENDBRANCH  22  26
ENDBRANCH  21  22
ENDBRANCH  20  21
ENDBRANCH   3  20
TORSDOF 15
ENDMDL
MODEL 7
REMARK VINA RESULT:      -7.0      1.995      3.305
REMARK  Name = 
REMARK  15 active torsions:
REMARK  status: ('A' for Active; 'I' for Inactive)
REMARK    1  A    between atoms: N_5  and  C_6
REMARK    2  A    between atoms: C_6  and  C_7
REMARK    3  A    between atoms: C_9  and  C_10
REMARK    4  A    between atoms: C_10  and  O_11
REMARK    5  A    between atoms: O_11  and  P_12
REMARK    6  A    between atoms: P_12  and  O_14
REMARK    7  A    between atoms: P_12  and  C_15
REMARK    8  A    between atoms: C_15  and  O_16
REMARK    9  A    between atoms: O_16  and  C_17
REMARK   10  A    between atoms: C_17  and  C_18
REMARK   11  A    between atoms: C_18  and  N_19
REMARK   12  A    between atoms: C_21  and  O_22
REMARK   13  A    between atoms: C_23  and  O_24
REMARK   14  A    between atoms: C_26  and  O_27
REMARK   15  A    between atoms: C_28  and  O_29
REMARK                            x       y       z     vdW  Elec       q    Type
REMARK                         _______ _______ _______ _____ _____    ______ ____
ROOT
ATOM      1  C   UNL     1       4.592   3.024  17.522  0.00  0.00    +0.000 C 
ATOM      2  O   UNL     1       3.431   2.173  17.532  0.00  0.00    +0.000 OA
ATOM      3  C   UNL     1       3.146   1.735  18.885  0.00  0.00    +0.000 C 
ATOM      4  C   UNL     1       4.200   2.381  19.791  0.00  0.00    +0.000 C 
ATOM      5  C   UNL     1       4.766   3.521  18.956  0.00  0.00    +0.000 C 
ENDROOT
BRANCH   4   6
ATOM      6  O   UNL     1       5.267   1.464  20.097  0.00  0.00    +0.000 OA
ATOM      7  H   UNL     1       5.995   1.969  20.502  0.00  0.00    +0.000 HD
ENDBRANCH   4   6
BRANCH   5   8
ATOM      8  O   UNL     1       6.125   3.801  19.273  0.00  0.00    +0.000 OA
ATOM      9  H   UNL     1       6.648   3.596  18.470  0.00  0.00    +0.000 HD
ENDBRANCH   5   8
BRANCH   1  10
ATOM     10  C   UNL     1       4.389   4.209  16.558  0.00  0.00    +0.000 C 
BRANCH  10  15
ATOM     11  O   UNL     1       8.299   5.591  12.994  0.00  0.00    +0.000 OA
ATOM     12  C   UNL     1       7.474   5.224  13.815  0.00  0.00    +0.000 A 
ATOM     13  C   UNL     1       6.405   4.280  13.451  0.00  0.00    +0.000 A 
ATOM     14  C   UNL     1       5.486   3.956  14.368  0.00  0.00    +0.000 A 
ATOM     15  N   UNL     1       5.508   4.483  15.645  0.00  0.00    +0.000 N 
ATOM     16  C   UNL     1       6.491   5.385  16.042  0.00  0.00    +0.000 A 
ATOM     17  O   UNL     1       6.523   5.937  17.140  0.00  0.00    +0.000 OA
ATOM     18  N   UNL     1       7.462   5.657  15.108  0.00  0.00    +0.000 N 
ATOM     19  H   UNL     1       8.163   6.324  15.379  0.00  0.00    +0.000 HD
ENDBRANCH  10  15
ENDBRANCH   1  10
BRANCH   3  20
ATOM     20  C   UNL     1       1.696   2.113  19.233  0.00  0.00    +0.000 C 
BRANCH  20  21
ATOM     21  O   UNL     1       1.669   2.805  20.491  0.00  0.00    +0.000 OA
BRANCH  21  22
ATOM     22  P   UNL     1       1.162   4.458  20.464  0.00  0.00    +0.000 P 
ATOM     23  O   UNL     1       2.435   4.906  21.205  0.00  0.00    +0.000 OA
BRANCH  22  24
ATOM     24  O   UNL     1       1.582   4.530  18.875  0.00  0.00    +0.000 OA
ATOM     25  H   UNL     1       2.514   4.820  18.817  0.00  0.00    +0.000 HD
ENDBRANCH  22  24
BRANCH  22  26
ATOM     26  C   UNL     1       0.627   6.208  20.434  0.00  0.00    +0.000 C 
BRANCH  26  27
ATOM     27  O   UNL     1       1.654   7.028  20.996  0.00  0.00    +0.000 OA
BRANCH  27  28
ATOM     28  C   UNL     1       1.423   8.383  20.606  0.00  0.00    +0.000 C 
BRANCH  28  29
ATOM     29  C   UNL     1       1.205   9.245  21.850  0.00  0.00    +0.000 C 
BRANCH  29  30
ATOM     30  N   UNL     1       0.897  10.642  21.519  0.00  0.00    +0.000 NA
ATOM     31  C   UNL     1      -0.509  10.973  21.817  0.00  0.00    +0.000 C 
ATOM     32  C   UNL     1      -1.147  11.420  20.500  0.00  0.00    +0.000 C 
ATOM     33  C   UNL     1       0.047  11.939  19.701  0.00  0.00    +0.000 C 
ATOM     34  C   UNL     1       1.133  10.949  20.097  0.00  0.00    +0.000 C 
BRANCH  32  35
ATOM     35  O   UNL     1      -2.154  12.402  20.691  0.00  0.00    +0.000 OA
ATOM     36  H   UNL     1      -2.643  12.179  21.503  0.00  0.00    +0.000 HD
ENDBRANCH  32  35
BRANCH  33  37
ATOM     37  O   UNL     1      -0.182  11.943  18.298  0.00  0.00    +0.000 OA
ATOM     38  H   UNL     1      -0.122  12.860  17.979  0.00  0.00    +0.000 HD
ENDBRANCH  33  37
ENDBRANCH  29  30
ENDBRANCH  28  29
ENDBRANCH  27  28
ENDBRANCH  26  27
ENDBRANCH  22  26
ENDBRANCH  21  22
ENDBRANCH  20  21
ENDBRANCH   3  20
TORSDOF 15
ENDMDL
MODEL 8
REMARK VINA RESULT:      -6.9      3.024      5.281
REMARK  Name = 
REMARK  15 active torsions:
REMARK  status: ('A' for Active; 'I' for Inactive)
REMARK    1  A    between atoms: N_5  and  C_6
REMARK    2  A    between atoms: C_6  and  C_7
REMARK    3  A    between atoms: C_9  and  C_10
REMARK    4  A    between atoms: C_10  and  O_11
REMARK    5  A    between atoms: O_11  and  P_12
REMARK    6  A    between atoms: P_12  and  O_14
REMARK    7  A    between atoms: P_12  and  C_15
REMARK    8  A    between atoms: C_15  and  O_16
REMARK    9  A    between atoms: O_16  and  C_17
REMARK   10  A    between atoms: C_17  and  C_18
REMARK   11  A    between atoms: C_18  and  N_19
REMARK   12  A    between atoms: C_21  and  O_22
REMARK   13  A    between atoms: C_23  and  O_24
REMARK   14  A    between atoms: C_26  and  O_27
REMARK   15  A    between atoms: C_28  and  O_29
REMARK                            x       y       z     vdW  Elec       q    Type
REMARK                         _______ _______ _______ _____ _____    ______ ____
ROOT
ATOM      1  C   UNL     1       4.616   4.802  17.632  0.00  0.00    +0.000 C 
ATOM      2  O   UNL     1       3.870   5.835  18.302  0.00  0.00    +0.000 OA
ATOM      3  C   UNL     1       4.080   7.109  17.642  0.00  0.00    +0.000 C 
ATOM      4  C   UNL     1       5.015   6.846  16.456  0.00  0.00    +0.000 C 
ATOM      5  C   UNL     1       4.929   5.342  16.237  0.00  0.00    +0.000 C 
ENDROOT
BRANCH   4   6
ATOM      6  O   UNL     1       6.378   7.185  16.772  0.00  0.00    +0.000 OA
ATOM      7  H   UNL     1       6.810   6.394  17.139  0.00  0.00    +0.000 HD
ENDBRANCH   4   6
BRANCH   5   8
ATOM      8  O   UNL     1       6.133   4.802  15.703  0.00  0.00    +0.000 OA
ATOM      9  H   UNL     1       6.257   3.924  16.121  0.00  0.00    +0.000 HD
ENDBRANCH   5   8
BRANCH   1  10
ATOM     10  C   UNL     1       3.787   3.506  17.539  0.00  0.00    +0.000 C 
BRANCH  10  15
ATOM     11  O   UNL     1       1.215   2.482  22.255  0.00  0.00    +0.000 OA
ATOM     12  C   UNL     1       1.781   2.633  21.184  0.00  0.00    +0.000 A 
ATOM     13  C   UNL     1       3.248   2.569  21.082  0.00  0.00    +0.000 A 
ATOM     14  C   UNL     1       3.826   2.804  19.899  0.00  0.00    +0.000 A 
ATOM     15  N   UNL     1       3.090   3.109  18.771  0.00  0.00    +0.000 N 
ATOM     16  C   UNL     1       1.701   3.191  18.811  0.00  0.00    +0.000 A 
ATOM     17  O   UNL     1       0.998   3.523  17.859  0.00  0.00    +0.000 OA
ATOM     18  N   UNL     1       1.120   2.884  20.018  0.00  0.00    +0.000 N 
ATOM     19  H   UNL     1       0.119   2.962  20.061  0.00  0.00    +0.000 HD
ENDBRANCH  10  15
ENDBRANCH   1  10
BRANCH   3  20
ATOM     20  C   UNL     1       2.714   7.696  17.251  0.00  0.00    +0.000 C 
BRANCH  20  21
ATOM     21  O   UNL     1       2.658   9.079  17.633  0.00  0.00    +0.000 OA
BRANCH  21  22
ATOM     22  P   UNL     1       1.353   9.552  18.665  0.00  0.00    +0.000 P 
ATOM     23  O   UNL     1       1.786  11.028  18.608  0.00  0.00    +0.000 OA
BRANCH  22  24
ATOM     24  O   UNL     1       0.325   9.390  17.392  0.00  0.00    +0.000 OA
ATOM     25  H   UNL     1       0.110   8.442  17.291  0.00  0.00    +0.000 HD
ENDBRANCH  22  24
BRANCH  22  26
ATOM     26  C   UNL     1      -0.028  10.053  19.757  0.00  0.00    +0.000 C 
BRANCH  26  27
ATOM     27  O   UNL     1       0.003  11.471  19.941  0.00  0.00    +0.000 OA
BRANCH  27  28
ATOM     28  C   UNL     1      -1.321  11.925  20.228  0.00  0.00    +0.000 C 
BRANCH  28  29
ATOM     29  C   UNL     1      -2.017  12.334  18.929  0.00  0.00    +0.000 C 
BRANCH  29  30
ATOM     30  N   UNL     1      -2.980  11.326  18.466  0.00  0.00    +0.000 NA
ATOM     31  C   UNL     1      -2.746  10.958  17.058  0.00  0.00    +0.000 C 
ATOM     32  C   UNL     1      -4.029  11.288  16.294  0.00  0.00    +0.000 C 
ATOM     33  C   UNL     1      -5.103  11.200  17.378  0.00  0.00    +0.000 C 
ATOM     34  C   UNL     1      -4.375  11.789  18.578  0.00  0.00    +0.000 C 
BRANCH  32  35
ATOM     35  O   UNL     1      -4.261  10.399  15.212  0.00  0.00    +0.000 OA
ATOM     36  H   UNL     1      -4.632  10.914  14.474  0.00  0.00    +0.000 HD
ENDBRANCH  32  35
BRANCH  33  37
ATOM     37  O   UNL     1      -6.277  11.934  17.057  0.00  0.00    +0.000 OA
ATOM     38  H   UNL     1      -6.016  12.741  16.580  0.00  0.00    +0.000 HD
ENDBRANCH  33  37
ENDBRANCH  29  30
ENDBRANCH  28  29
ENDBRANCH  27  28
ENDBRANCH  26  27
ENDBRANCH  22  26
ENDBRANCH  21  22
ENDBRANCH  20  21
ENDBRANCH   3  20
TORSDOF 15
ENDMDL
MODEL 9
REMARK VINA RESULT:      -6.8      2.215      3.295
REMARK  Name = 
REMARK  15 active torsions:
REMARK  status: ('A' for Active; 'I' for Inactive)
REMARK    1  A    between atoms: N_5  and  C_6
REMARK    2  A    between atoms: C_6  and  C_7
REMARK    3  A    between atoms: C_9  and  C_10
REMARK    4  A    between atoms: C_10  and  O_11
REMARK    5  A    between atoms: O_11  and  P_12
REMARK    6  A    between atoms: P_12  and  O_14
REMARK    7  A    between atoms: P_12  and  C_15
REMARK    8  A    between atoms: C_15  and  O_16
REMARK    9  A    between atoms: O_16  and  C_17
REMARK   10  A    between atoms: C_17  and  C_18
REMARK   11  A    between atoms: C_18  and  N_19
REMARK   12  A    between atoms: C_21  and  O_22
REMARK   13  A    between atoms: C_23  and  O_24
REMARK   14  A    between atoms: C_26  and  O_27
REMARK   15  A    between atoms: C_28  and  O_29
REMARK                            x       y       z     vdW  Elec       q    Type
REMARK                         _______ _______ _______ _____ _____    ______ ____
ROOT
ATOM      1  C   UNL     1       3.994   4.292  18.300  0.00  0.00    +0.000 C 
ATOM      2  O   UNL     1       3.440   5.476  17.697  0.00  0.00    +0.000 OA
ATOM      3  C   UNL     1       2.276   5.917  18.442  0.00  0.00    +0.000 C 
ATOM      4  C   UNL     1       2.103   4.942  19.612  0.00  0.00    +0.000 C 
ATOM      5  C   UNL     1       3.455   4.253  19.730  0.00  0.00    +0.000 C 
ENDROOT
BRANCH   4   6
ATOM      6  O   UNL     1       1.104   3.945  19.326  0.00  0.00    +0.000 OA
ATOM      7  H   UNL     1       0.227   4.351  19.438  0.00  0.00    +0.000 HD
ENDBRANCH   4   6
BRANCH   5   8
ATOM      8  O   UNL     1       3.344   2.925  20.232  0.00  0.00    +0.000 OA
ATOM      9  H   UNL     1       3.357   2.329  19.454  0.00  0.00    +0.000 HD
ENDBRANCH   5   8
BRANCH   1  10
ATOM     10  C   UNL     1       5.533   4.352  18.303  0.00  0.00    +0.000 C 
BRANCH  10  15
ATOM     11  O   UNL     1       7.530   5.291  13.298  0.00  0.00    +0.000 OA
ATOM     12  C   UNL     1       7.146   5.033  14.429  0.00  0.00    +0.000 A 
ATOM     13  C   UNL     1       6.173   3.957  14.675  0.00  0.00    +0.000 A 
ATOM     14  C   UNL     1       5.734   3.753  15.923  0.00  0.00    +0.000 A 
ATOM     15  N   UNL     1       6.164   4.524  16.986  0.00  0.00    +0.000 N 
ATOM     16  C   UNL     1       7.077   5.559  16.810  0.00  0.00    +0.000 A 
ATOM     17  O   UNL     1       7.444   6.320  17.703  0.00  0.00    +0.000 OA
ATOM     18  N   UNL     1       7.565   5.713  15.534  0.00  0.00    +0.000 N 
ATOM     19  H   UNL     1       8.208   6.473  15.393  0.00  0.00    +0.000 HD
ENDBRANCH  10  15
ENDBRANCH   1  10
BRANCH   3  20
ATOM     20  C   UNL     1       2.482   7.381  18.864  0.00  0.00    +0.000 C 
BRANCH  20  21
ATOM     21  O   UNL     1       1.872   8.250  17.899  0.00  0.00    +0.000 OA
BRANCH  21  22
ATOM     22  P   UNL     1       1.298   9.777  18.474  0.00  0.00    +0.000 P 
ATOM     23  O   UNL     1       2.357  10.534  17.654  0.00  0.00    +0.000 OA
BRANCH  22  24
ATOM     24  O   UNL     1       0.018   9.649  17.449  0.00  0.00    +0.000 OA
ATOM     25  H   UNL     1      -0.706   9.190  17.919  0.00  0.00    +0.000 HD
ENDBRANCH  22  24
BRANCH  22  26
ATOM     26  C   UNL     1       0.690  11.392  19.083  0.00  0.00    +0.000 C 
BRANCH  26  27
ATOM     27  O   UNL     1      -0.637  11.237  19.594  0.00  0.00    +0.000 OA
BRANCH  27  28
ATOM     28  C   UNL     1      -0.566  10.573  20.858  0.00  0.00    +0.000 C 
BRANCH  28  29
ATOM     29  C   UNL     1      -0.265  11.592  21.957  0.00  0.00    +0.000 C 
BRANCH  29  30
ATOM     30  N   UNL     1      -1.263  12.668  22.015  0.00  0.00    +0.000 NA
ATOM     31  C   UNL     1      -0.718  13.880  22.652  0.00  0.00    +0.000 C 
ATOM     32  C   UNL     1      -1.594  14.172  23.871  0.00  0.00    +0.000 C 
ATOM     33  C   UNL     1      -2.929  13.532  23.493  0.00  0.00    +0.000 C 
ATOM     34  C   UNL     1      -2.470  12.276  22.765  0.00  0.00    +0.000 C 
BRANCH  32  35
ATOM     35  O   UNL     1      -1.704  15.561  24.142  0.00  0.00    +0.000 OA
ATOM     36  H   UNL     1      -2.631  15.751  24.371  0.00  0.00    +0.000 HD
ENDBRANCH  32  35
BRANCH  33  37
ATOM     37  O   UNL     1      -3.737  13.225  24.622  0.00  0.00    +0.000 OA
ATOM     38  H   UNL     1      -3.224  13.409  25.428  0.00  0.00    +0.000 HD
ENDBRANCH  33  37
ENDBRANCH  29  30
ENDBRANCH  28  29
ENDBRANCH  27  28
ENDBRANCH  26  27
ENDBRANCH  22  26
ENDBRANCH  21  22
ENDBRANCH  20  21
ENDBRANCH   3  20
TORSDOF 15
ENDMDL
