MODEL 1
REMARK VINA RESULT:      -7.3      0.000      0.000
REMARK  Name = 
REMARK  8 active torsions:
REMARK  status: ('A' for Active; 'I' for Inactive)
REMARK    1  A    between atoms: C_1  and  O_2
REMARK    2  A    between atoms: O_2  and  C_3
REMARK    3  A    between atoms: C_5  and  C_6
REMARK    4  A    between atoms: C_6  and  N_7
REMARK    5  A    between atoms: N_7  and  C_8
REMARK    6  A    between atoms: N_7  and  C_9
REMARK    7  A    between atoms: C_9  and  C_10
REMARK    8  A    between atoms: C_10  and  C_11
REMARK                            x       y       z     vdW  Elec       q    Type
REMARK                         _______ _______ _______ _____ _____    ______ ____
ROOT
ATOM      1  C   UNL     1       3.011   7.115  18.879  0.00  0.00    +0.000 C 
ENDROOT
BRANCH   1   2
ATOM      2  C   UNL     1       2.154   8.305  18.494  0.00  0.00    +0.000 C 
ATOM      3  O   UNL     1       2.245   8.826  17.383  0.00  0.00    +0.000 OA
ATOM      4  N   UNL     1       1.248   8.746  19.463  0.00  0.00    +0.000 N 
ATOM      5  C   UNL     1       1.142   8.150  20.801  0.00  0.00    +0.000 C 
ATOM      6  C   UNL     1      -0.104   8.546  21.588  0.00  0.00    +0.000 C 
ATOM      7  C   UNL     1      -0.247  10.041  21.584  0.00  0.00    +0.000 A 
ATOM      8  C   UNL     1      -0.691  10.742  22.711  0.00  0.00    +0.000 A 
ATOM      9  C   UNL     1      -0.815  12.130  22.657  0.00  0.00    +0.000 A 
ATOM     10  C   UNL     1      -0.506  12.816  21.483  0.00  0.00    +0.000 A 
ATOM     11  C   UNL     1      -0.081  12.117  20.353  0.00  0.00    +0.000 A 
ATOM     12  C   UNL     1       0.061  10.726  20.396  0.00  0.00    +0.000 A 
ATOM     13  C   UNL     1       0.469   9.948  19.167  0.00  0.00    +0.000 C 
ENDBRANCH   1   2
BRANCH   1  14
ATOM     14  C   UNL     1       3.672   6.436  17.676  0.00  0.00    +0.000 C 
BRANCH  14  15
ATOM     15  N   UNL     1       3.273   5.012  17.547  0.00  0.00    +0.000 NA
ATOM     16  C   UNL     1       2.232   4.648  18.520  0.00  0.00    +0.000 C 
BRANCH  15  17
ATOM     17  C   UNL     1       4.466   4.150  17.694  0.00  0.00    +0.000 C 
BRANCH  17  20
ATOM     18  C   UNL     1       6.653   4.528  14.654  0.00  0.00    +0.000 A 
ATOM     19  C   UNL     1       5.395   4.258  15.254  0.00  0.00    +0.000 A 
ATOM     20  C   UNL     1       5.477   4.419  16.624  0.00  0.00    +0.000 A 
ATOM     21  S   UNL     1       7.065   4.937  17.011  0.00  0.00    +0.000 S 
ATOM     22  N   UNL     1       7.646   4.892  15.460  0.00  0.00    +0.000 NA
BRANCH  18  24
ATOM     23  C   UNL     1       5.969   3.499  12.681  0.00  0.00    +0.000 C 
ATOM     24  O   UNL     1       6.887   4.376  13.329  0.00  0.00    +0.000 OA
ENDBRANCH  18  24
ENDBRANCH  17  20
ENDBRANCH  15  17
ENDBRANCH  14  15
ENDBRANCH   1  14
TORSDOF 6
ENDMDL
MODEL 2
REMARK VINA RESULT:      -7.0      2.168      3.315
REMARK  Name = 
REMARK  8 active torsions:
REMARK  status: ('A' for Active; 'I' for Inactive)
REMARK    1  A    between atoms: C_1  and  O_2
REMARK    2  A    between atoms: O_2  and  C_3
REMARK    3  A    between atoms: C_5  and  C_6
REMARK    4  A    between atoms: C_6  and  N_7
REMARK    5  A    between atoms: N_7  and  C_8
REMARK    6  A    between atoms: N_7  and  C_9
REMARK    7  A    between atoms: C_9  and  C_10
REMARK    8  A    between atoms: C_10  and  C_11
REMARK                            x       y       z     vdW  Elec       q    Type
REMARK                         _______ _______ _______ _____ _____    ______ ____
ROOT
ATOM      1  C   UNL     1       2.056   3.460  19.069  0.00  0.00    +0.000 C 
ENDROOT
BRANCH   1   2
ATOM      2  C   UNL     1       2.009   4.581  20.089  0.00  0.00    +0.000 C 
ATOM      3  O   UNL     1       1.849   4.350  21.286  0.00  0.00    +0.000 OA
ATOM      4  N   UNL     1       2.184   5.874  19.586  0.00  0.00    +0.000 N 
ATOM      5  C   UNL     1       2.354   6.169  18.157  0.00  0.00    +0.000 C 
ATOM      6  C   UNL     1       2.848   7.579  17.843  0.00  0.00    +0.000 C 
ATOM      7  C   UNL     1       1.996   8.582  18.566  0.00  0.00    +0.000 A 
ATOM      8  C   UNL     1       1.630   9.798  17.978  0.00  0.00    +0.000 A 
ATOM      9  C   UNL     1       0.843  10.702  18.691  0.00  0.00    +0.000 A 
ATOM     10  C   UNL     1       0.430  10.400  19.987  0.00  0.00    +0.000 A 
ATOM     11  C   UNL     1       0.810   9.196  20.582  0.00  0.00    +0.000 A 
ATOM     12  C   UNL     1       1.587   8.275  19.875  0.00  0.00    +0.000 A 
ATOM     13  C   UNL     1       2.051   6.990  20.521  0.00  0.00    +0.000 C 
ENDBRANCH   1   2
BRANCH   1  14
ATOM     14  C   UNL     1       3.212   3.600  18.075  0.00  0.00    +0.000 C 
BRANCH  14  15
ATOM     15  N   UNL     1       4.485   3.056  18.613  0.00  0.00    +0.000 NA
ATOM     16  C   UNL     1       4.249   2.113  19.717  0.00  0.00    +0.000 C 
BRANCH  15  17
ATOM     17  C   UNL     1       5.356   4.172  19.041  0.00  0.00    +0.000 C 
BRANCH  17  20
ATOM     18  C   UNL     1       7.026   5.287  15.858  0.00  0.00    +0.000 A 
ATOM     19  C   UNL     1       6.216   4.374  16.582  0.00  0.00    +0.000 A 
ATOM     20  C   UNL     1       6.032   4.824  17.876  0.00  0.00    +0.000 A 
ATOM     21  S   UNL     1       6.822   6.336  18.037  0.00  0.00    +0.000 S 
ATOM     22  N   UNL     1       7.437   6.377  16.499  0.00  0.00    +0.000 NA
BRANCH  18  24
ATOM     23  C   UNL     1       6.544   4.245  13.833  0.00  0.00    +0.000 C 
ATOM     24  O   UNL     1       7.434   5.064  14.585  0.00  0.00    +0.000 OA
ENDBRANCH  18  24
ENDBRANCH  17  20
ENDBRANCH  15  17
ENDBRANCH  14  15
ENDBRANCH   1  14
TORSDOF 6
ENDMDL
MODEL 3
REMARK VINA RESULT:      -7.0      4.081      8.380
REMARK  Name = 
REMARK  8 active torsions:
REMARK  status: ('A' for Active; 'I' for Inactive)
REMARK    1  A    between atoms: C_1  and  O_2
REMARK    2  A    between atoms: O_2  and  C_3
REMARK    3  A    between atoms: C_5  and  C_6
REMARK    4  A    between atoms: C_6  and  N_7
REMARK    5  A    between atoms: N_7  and  C_8
REMARK    6  A    between atoms: N_7  and  C_9
REMARK    7  A    between atoms: C_9  and  C_10
REMARK    8  A    between atoms: C_10  and  C_11
REMARK                            x       y       z     vdW  Elec       q    Type
REMARK                         _______ _______ _______ _____ _____    ______ ____
ROOT
ATOM      1  C   UNL     1       1.572   9.255  18.947  0.00  0.00    +0.000 C 
ENDROOT
BRANCH   1   2
ATOM      2  C   UNL     1       2.323   8.179  18.187  0.00  0.00    +0.000 C 
ATOM      3  O   UNL     1       2.829   8.407  17.089  0.00  0.00    +0.000 OA
ATOM      4  N   UNL     1       2.425   6.939  18.823  0.00  0.00    +0.000 N 
ATOM      5  C   UNL     1       1.809   6.644  20.124  0.00  0.00    +0.000 C 
ATOM      6  C   UNL     1       2.295   5.362  20.793  0.00  0.00    +0.000 C 
ATOM      7  C   UNL     1       2.210   4.223  19.818  0.00  0.00    +0.000 A 
ATOM      8  C   UNL     1       1.814   2.941  20.214  0.00  0.00    +0.000 A 
ATOM      9  C   UNL     1       1.759   1.912  19.274  0.00  0.00    +0.000 A 
ATOM     10  C   UNL     1       2.103   2.158  17.946  0.00  0.00    +0.000 A 
ATOM     11  C   UNL     1       2.516   3.432  17.552  0.00  0.00    +0.000 A 
ATOM     12  C   UNL     1       2.565   4.476  18.482  0.00  0.00    +0.000 A 
ATOM     13  C   UNL     1       3.059   5.848  18.085  0.00  0.00    +0.000 C 
ENDBRANCH   1   2
BRANCH   1  14
ATOM     14  C   UNL     1       1.793  10.659  18.377  0.00  0.00    +0.000 C 
BRANCH  14  15
ATOM     15  N   UNL     1       0.649  11.564  18.655  0.00  0.00    +0.000 NA
ATOM     16  C   UNL     1       1.058  12.724  19.463  0.00  0.00    +0.000 C 
BRANCH  15  17
ATOM     17  C   UNL     1      -0.431  10.804  19.322  0.00  0.00    +0.000 C 
BRANCH  17  20
ATOM     18  C   UNL     1      -3.104  10.170  16.749  0.00  0.00    +0.000 A 
ATOM     19  C   UNL     1      -1.849   9.866  17.337  0.00  0.00    +0.000 A 
ATOM     20  C   UNL     1      -1.634  10.668  18.442  0.00  0.00    +0.000 A 
ATOM     21  S   UNL     1      -3.016  11.657  18.665  0.00  0.00    +0.000 S 
ATOM     22  N   UNL     1      -3.839  11.110  17.336  0.00  0.00    +0.000 NA
BRANCH  18  24
ATOM     23  C   UNL     1      -3.036  10.198  14.423  0.00  0.00    +0.000 C 
ATOM     24  O   UNL     1      -3.545   9.590  15.607  0.00  0.00    +0.000 OA
ENDBRANCH  18  24
ENDBRANCH  17  20
ENDBRANCH  15  17
ENDBRANCH  14  15
ENDBRANCH   1  14
TORSDOF 6
ENDMDL
MODEL 4
REMARK VINA RESULT:      -7.0      1.380      2.251
REMARK  Name = 
REMARK  8 active torsions:
REMARK  status: ('A' for Active; 'I' for Inactive)
REMARK    1  A    between atoms: C_1  and  O_2
REMARK    2  A    between atoms: O_2  and  C_3
REMARK    3  A    between atoms: C_5  and  C_6
REMARK    4  A    between atoms: C_6  and  N_7
REMARK    5  A    between atoms: N_7  and  C_8
REMARK    6  A    between atoms: N_7  and  C_9
REMARK    7  A    between atoms: C_9  and  C_10
REMARK    8  A    between atoms: C_10  and  C_11
REMARK                            x       y       z     vdW  Elec       q    Type
REMARK                         _______ _______ _______ _____ _____    ______ ____
ROOT
ATOM      1  C   UNL     1       2.613   5.859  17.900  0.00  0.00    +0.000 C 
ENDROOT
BRANCH   1   2
ATOM      2  C   UNL     1       2.271   6.519  19.222  0.00  0.00    +0.000 C 
ATOM      3  O   UNL     1       2.261   5.878  20.272  0.00  0.00    +0.000 OA
ATOM      4  N   UNL     1       1.999   7.888  19.170  0.00  0.00    +0.000 N 
ATOM      5  C   UNL     1       1.985   8.663  17.922  0.00  0.00    +0.000 C 
ATOM      6  C   UNL     1       1.989  10.179  18.103  0.00  0.00    +0.000 C 
ATOM      7  C   UNL     1       0.905  10.573  19.065  0.00  0.00    +0.000 A 
ATOM      8  C   UNL     1       0.141  11.730  18.881  0.00  0.00    +0.000 A 
ATOM      9  C   UNL     1      -0.850  12.059  19.806  0.00  0.00    +0.000 A 
ATOM     10  C   UNL     1      -1.072  11.243  20.914  0.00  0.00    +0.000 A 
ATOM     11  C   UNL     1      -0.297  10.099  21.110  0.00  0.00    +0.000 A 
ATOM     12  C   UNL     1       0.690   9.750  20.184  0.00  0.00    +0.000 A 
ATOM     13  C   UNL     1       1.573   8.543  20.406  0.00  0.00    +0.000 C 
ENDBRANCH   1   2
BRANCH   1  14
ATOM     14  C   UNL     1       2.333   4.354  17.889  0.00  0.00    +0.000 C 
BRANCH  14  15
ATOM     15  N   UNL     1       3.504   3.569  17.423  0.00  0.00    +0.000 NA
ATOM     16  C   UNL     1       3.550   2.238  18.047  0.00  0.00    +0.000 C 
BRANCH  15  17
ATOM     17  C   UNL     1       4.745   4.327  17.692  0.00  0.00    +0.000 C 
BRANCH  17  20
ATOM     18  C   UNL     1       6.466   4.391  14.345  0.00  0.00    +0.000 A 
ATOM     19  C   UNL     1       5.383   4.006  15.178  0.00  0.00    +0.000 A 
ATOM     20  C   UNL     1       5.548   4.532  16.445  0.00  0.00    +0.000 A 
ATOM     21  S   UNL     1       6.977   5.480  16.453  0.00  0.00    +0.000 S 
ATOM     22  N   UNL     1       7.402   5.168  14.883  0.00  0.00    +0.000 NA
BRANCH  18  24
ATOM     23  C   UNL     1       7.497   4.749  12.289  0.00  0.00    +0.000 C 
ATOM     24  O   UNL     1       6.607   3.957  13.069  0.00  0.00    +0.000 OA
ENDBRANCH  18  24
ENDBRANCH  17  20
ENDBRANCH  15  17
ENDBRANCH  14  15
ENDBRANCH   1  14
TORSDOF 6
ENDMDL
MODEL 5
REMARK VINA RESULT:      -7.0      2.535      3.249
REMARK  Name = 
REMARK  8 active torsions:
REMARK  status: ('A' for Active; 'I' for Inactive)
REMARK    1  A    between atoms: C_1  and  O_2
REMARK    2  A    between atoms: O_2  and  C_3
REMARK    3  A    between atoms: C_5  and  C_6
REMARK    4  A    between atoms: C_6  and  N_7
REMARK    5  A    between atoms: N_7  and  C_8
REMARK    6  A    between atoms: N_7  and  C_9
REMARK    7  A    between atoms: C_9  and  C_10
REMARK    8  A    between atoms: C_10  and  C_11
REMARK                            x       y       z     vdW  Elec       q    Type
REMARK                         _______ _______ _______ _____ _____    ______ ____
ROOT
ATOM      1  C   UNL     1       2.592   5.898  18.539  0.00  0.00    +0.000 C 
ENDROOT
BRANCH   1   2
ATOM      2  C   UNL     1       2.155   6.714  19.741  0.00  0.00    +0.000 C 
ATOM      3  O   UNL     1       2.094   6.215  20.864  0.00  0.00    +0.000 OA
ATOM      4  N   UNL     1       1.859   8.057  19.494  0.00  0.00    +0.000 N 
ATOM      5  C   UNL     1       1.905   8.662  18.156  0.00  0.00    +0.000 C 
ATOM      6  C   UNL     1       1.866  10.188  18.136  0.00  0.00    +0.000 C 
ATOM      7  C   UNL     1       0.717  10.672  18.973  0.00  0.00    +0.000 A 
ATOM      8  C   UNL     1      -0.059  11.772  18.594  0.00  0.00    +0.000 A 
ATOM      9  C   UNL     1      -1.111  12.190  19.409  0.00  0.00    +0.000 A 
ATOM     10  C   UNL     1      -1.384  11.519  20.600  0.00  0.00    +0.000 A 
ATOM     11  C   UNL     1      -0.599  10.433  20.989  0.00  0.00    +0.000 A 
ATOM     12  C   UNL     1       0.451   9.995  20.176  0.00  0.00    +0.000 A 
ATOM     13  C   UNL     1       1.344   8.854  20.606  0.00  0.00    +0.000 C 
ENDBRANCH   1   2
BRANCH   1  14
ATOM     14  C   UNL     1       2.516   4.388  18.778  0.00  0.00    +0.000 C 
BRANCH  14  15
ATOM     15  N   UNL     1       3.637   3.660  18.131  0.00  0.00    +0.000 NA
ATOM     16  C   UNL     1       3.255   2.289  17.763  0.00  0.00    +0.000 C 
BRANCH  15  17
ATOM     17  C   UNL     1       4.812   3.664  19.030  0.00  0.00    +0.000 C 
BRANCH  17  20
ATOM     18  C   UNL     1       7.459   6.221  18.242  0.00  0.00    +0.000 A 
ATOM     19  C   UNL     1       6.622   5.544  19.166  0.00  0.00    +0.000 A 
ATOM     20  C   UNL     1       5.895   4.562  18.519  0.00  0.00    +0.000 A 
ATOM     21  S   UNL     1       6.363   4.545  16.871  0.00  0.00    +0.000 S 
ATOM     22  N   UNL     1       7.426   5.810  16.977  0.00  0.00    +0.000 NA
BRANCH  18  24
ATOM     23  C   UNL     1       8.055   8.413  17.733  0.00  0.00    +0.000 C 
ATOM     24  O   UNL     1       8.229   7.283  18.582  0.00  0.00    +0.000 OA
ENDBRANCH  18  24
ENDBRANCH  17  20
ENDBRANCH  15  17
ENDBRANCH  14  15
ENDBRANCH   1  14
TORSDOF 6
ENDMDL
MODEL 6
REMARK VINA RESULT:      -6.9      1.166      1.371
REMARK  Name = 
REMARK  8 active torsions:
REMARK  status: ('A' for Active; 'I' for Inactive)
REMARK    1  A    between atoms: C_1  and  O_2
REMARK    2  A    between atoms: O_2  and  C_3
REMARK    3  A    between atoms: C_5  and  C_6
REMARK    4  A    between atoms: C_6  and  N_7
REMARK    5  A    between atoms: N_7  and  C_8
REMARK    6  A    between atoms: N_7  and  C_9
REMARK    7  A    between atoms: C_9  and  C_10
REMARK    8  A    between atoms: C_10  and  C_11
REMARK                            x       y       z     vdW  Elec       q    Type
REMARK                         _______ _______ _______ _____ _____    ______ ____
ROOT
ATOM      1  C   UNL     1       3.199   6.056  19.661  0.00  0.00    +0.000 C 
ENDROOT
BRANCH   1   2
ATOM      2  C   UNL     1       2.662   7.258  18.909  0.00  0.00    +0.000 C 
ATOM      3  O   UNL     1       3.019   7.503  17.758  0.00  0.00    +0.000 OA
ATOM      4  N   UNL     1       1.727   8.040  19.592  0.00  0.00    +0.000 N 
ATOM      5  C   UNL     1       1.306   7.775  20.974  0.00  0.00    +0.000 C 
ATOM      6  C   UNL     1       0.060   8.531  21.426  0.00  0.00    +0.000 C 
ATOM      7  C   UNL     1       0.219   9.992  21.119  0.00  0.00    +0.000 A 
ATOM      8  C   UNL     1      -0.241  10.983  21.992  0.00  0.00    +0.000 A 
ATOM      9  C   UNL     1      -0.078  12.328  21.660  0.00  0.00    +0.000 A 
ATOM     10  C   UNL     1       0.533  12.683  20.458  0.00  0.00    +0.000 A 
ATOM     11  C   UNL     1       0.975  11.695  19.577  0.00  0.00    +0.000 A 
ATOM     12  C   UNL     1       0.830  10.343  19.903  0.00  0.00    +0.000 A 
ATOM     13  C   UNL     1       1.255   9.260  18.939  0.00  0.00    +0.000 C 
ENDBRANCH   1   2
BRANCH   1  14
ATOM     14  C   UNL     1       2.604   4.730  19.180  0.00  0.00    +0.000 C 
BRANCH  14  15
ATOM     15  N   UNL     1       3.638   3.818  18.629  0.00  0.00    +0.000 NA
ATOM     16  C   UNL     1       3.451   2.437  19.099  0.00  0.00    +0.000 C 
BRANCH  15  17
ATOM     17  C   UNL     1       4.982   4.325  18.982  0.00  0.00    +0.000 C 
BRANCH  17  20
ATOM     18  C   UNL     1       6.443   5.331  15.663  0.00  0.00    +0.000 A 
ATOM     19  C   UNL     1       5.400   4.763  16.440  0.00  0.00    +0.000 A 
ATOM     20  C   UNL     1       5.701   4.864  17.785  0.00  0.00    +0.000 A 
ATOM     21  S   UNL     1       7.194   5.691  17.943  0.00  0.00    +0.000 S 
ATOM     22  N   UNL     1       7.474   5.857  16.318  0.00  0.00    +0.000 NA
BRANCH  18  24
ATOM     23  C   UNL     1       6.377   3.992  13.760  0.00  0.00    +0.000 C 
ATOM     24  O   UNL     1       6.453   5.304  14.308  0.00  0.00    +0.000 OA
ENDBRANCH  18  24
ENDBRANCH  17  20
ENDBRANCH  15  17
ENDBRANCH  14  15
ENDBRANCH   1  14
TORSDOF 6
ENDMDL
MODEL 7
REMARK VINA RESULT:      -6.9      1.352      1.939
REMARK  Name = 
REMARK  8 active torsions:
REMARK  status: ('A' for Active; 'I' for Inactive)
REMARK    1  A    between atoms: C_1  and  O_2
REMARK    2  A    between atoms: O_2  and  C_3
REMARK    3  A    between atoms: C_5  and  C_6
REMARK    4  A    between atoms: C_6  and  N_7
REMARK    5  A    between atoms: N_7  and  C_8
REMARK    6  A    between atoms: N_7  and  C_9
REMARK    7  A    between atoms: C_9  and  C_10
REMARK    8  A    between atoms: C_10  and  C_11
REMARK                            x       y       z     vdW  Elec       q    Type
REMARK                         _______ _______ _______ _____ _____    ______ ____
ROOT
ATOM      1  C   UNL     1       2.113   6.472  18.438  0.00  0.00    +0.000 C 
ENDROOT
BRANCH   1   2
ATOM      2  C   UNL     1       2.000   6.815  19.910  0.00  0.00    +0.000 C 
ATOM      3  O   UNL     1       2.246   5.982  20.781  0.00  0.00    +0.000 OA
ATOM      4  N   UNL     1       1.629   8.129  20.206  0.00  0.00    +0.000 N 
ATOM      5  C   UNL     1       1.310   9.130  19.179  0.00  0.00    +0.000 C 
ATOM      6  C   UNL     1       1.245  10.570  19.679  0.00  0.00    +0.000 C 
ATOM      7  C   UNL     1       0.353  10.644  20.885  0.00  0.00    +0.000 A 
ATOM      8  C   UNL     1      -0.512  11.723  21.098  0.00  0.00    +0.000 A 
ATOM      9  C   UNL     1      -1.316  11.751  22.237  0.00  0.00    +0.000 A 
ATOM     10  C   UNL     1      -1.252  10.712  23.165  0.00  0.00    +0.000 A 
ATOM     11  C   UNL     1      -0.377   9.645  22.964  0.00  0.00    +0.000 A 
ATOM     12  C   UNL     1       0.426   9.597  21.820  0.00  0.00    +0.000 A 
ATOM     13  C   UNL     1       1.417   8.475  21.611  0.00  0.00    +0.000 C 
ENDBRANCH   1   2
BRANCH   1  14
ATOM     14  C   UNL     1       3.349   5.629  18.110  0.00  0.00    +0.000 C 
BRANCH  14  15
ATOM     15  N   UNL     1       2.998   4.371  17.404  0.00  0.00    +0.000 NA
ATOM     16  C   UNL     1       1.801   3.740  17.980  0.00  0.00    +0.000 C 
BRANCH  15  17
ATOM     17  C   UNL     1       4.154   3.449  17.436  0.00  0.00    +0.000 C 
BRANCH  17  20
ATOM     18  C   UNL     1       7.051   4.855  15.486  0.00  0.00    +0.000 A 
ATOM     19  C   UNL     1       5.725   4.353  15.552  0.00  0.00    +0.000 A 
ATOM     20  C   UNL     1       5.383   4.085  16.865  0.00  0.00    +0.000 A 
ATOM     21  S   UNL     1       6.701   4.532  17.866  0.00  0.00    +0.000 S 
ATOM     22  N   UNL     1       7.705   4.999  16.634  0.00  0.00    +0.000 NA
BRANCH  18  24
ATOM     23  C   UNL     1       6.971   4.681  13.166  0.00  0.00    +0.000 C 
ATOM     24  O   UNL     1       7.678   5.133  14.317  0.00  0.00    +0.000 OA
ENDBRANCH  18  24
ENDBRANCH  17  20
ENDBRANCH  15  17
ENDBRANCH  14  15
ENDBRANCH   1  14
TORSDOF 6
ENDMDL
MODEL 8
REMARK VINA RESULT:      -6.9      1.338      1.681
REMARK  Name = 
REMARK  8 active torsions:
REMARK  status: ('A' for Active; 'I' for Inactive)
REMARK    1  A    between atoms: C_1  and  O_2
REMARK    2  A    between atoms: O_2  and  C_3
REMARK    3  A    between atoms: C_5  and  C_6
REMARK    4  A    between atoms: C_6  and  N_7
REMARK    5  A    between atoms: N_7  and  C_8
REMARK    6  A    between atoms: N_7  and  C_9
REMARK    7  A    between atoms: C_9  and  C_10
REMARK    8  A    between atoms: C_10  and  C_11
REMARK                            x       y       z     vdW  Elec       q    Type
REMARK                         _______ _______ _______ _____ _____    ______ ____
ROOT
ATOM      1  C   UNL     1       2.522   6.776  19.151  0.00  0.00    +0.000 C 
ENDROOT
BRANCH   1   2
ATOM      2  C   UNL     1       2.358   8.037  18.325  0.00  0.00    +0.000 C 
ATOM      3  O   UNL     1       2.843   8.131  17.199  0.00  0.00    +0.000 OA
ATOM      4  N   UNL     1       1.606   9.059  18.911  0.00  0.00    +0.000 N 
ATOM      5  C   UNL     1       1.039   8.972  20.263  0.00  0.00    +0.000 C 
ATOM      6  C   UNL     1      -0.005  10.035  20.595  0.00  0.00    +0.000 C 
ATOM      7  C   UNL     1       0.538  11.395  20.260  0.00  0.00    +0.000 A 
ATOM      8  C   UNL     1       0.285  12.509  21.066  0.00  0.00    +0.000 A 
ATOM      9  C   UNL     1       0.804  13.754  20.709  0.00  0.00    +0.000 A 
ATOM     10  C   UNL     1       1.565  13.888  19.549  0.00  0.00    +0.000 A 
ATOM     11  C   UNL     1       1.803  12.781  18.734  0.00  0.00    +0.000 A 
ATOM     12  C   UNL     1       1.300  11.525  19.086  0.00  0.00    +0.000 A 
ATOM     13  C   UNL     1       1.503  10.326  18.189  0.00  0.00    +0.000 C 
ENDBRANCH   1   2
BRANCH   1  14
ATOM     14  C   UNL     1       2.386   5.494  18.325  0.00  0.00    +0.000 C 
BRANCH  14  15
ATOM     15  N   UNL     1       3.540   4.580  18.514  0.00  0.00    +0.000 NA
ATOM     16  C   UNL     1       3.303   3.624  19.606  0.00  0.00    +0.000 C 
BRANCH  15  17
ATOM     17  C   UNL     1       4.764   5.374  18.757  0.00  0.00    +0.000 C 
BRANCH  17  20
ATOM     18  C   UNL     1       6.742   5.097  15.567  0.00  0.00    +0.000 A 
ATOM     19  C   UNL     1       5.564   5.457  16.270  0.00  0.00    +0.000 A 
ATOM     20  C   UNL     1       5.737   5.250  17.626  0.00  0.00    +0.000 A 
ATOM     21  S   UNL     1       7.337   4.694  17.886  0.00  0.00    +0.000 S 
ATOM     22  N   UNL     1       7.772   4.662  16.287  0.00  0.00    +0.000 NA
BRANCH  18  24
ATOM     23  C   UNL     1       6.280   3.976  13.580  0.00  0.00    +0.000 C 
ATOM     24  O   UNL     1       6.834   5.125  14.215  0.00  0.00    +0.000 OA
ENDBRANCH  18  24
ENDBRANCH  17  20
ENDBRANCH  15  17
ENDBRANCH  14  15
ENDBRANCH   1  14
TORSDOF 6
ENDMDL
MODEL 9
REMARK VINA RESULT:      -6.8      2.566      3.841
REMARK  Name = 
REMARK  8 active torsions:
REMARK  status: ('A' for Active; 'I' for Inactive)
REMARK    1  A    between atoms: C_1  and  O_2
REMARK    2  A    between atoms: O_2  and  C_3
REMARK    3  A    between atoms: C_5  and  C_6
REMARK    4  A    between atoms: C_6  and  N_7
REMARK    5  A    between atoms: N_7  and  C_8
REMARK    6  A    between atoms: N_7  and  C_9
REMARK    7  A    between atoms: C_9  and  C_10
REMARK    8  A    between atoms: C_10  and  C_11
REMARK                            x       y       z     vdW  Elec       q    Type
REMARK                         _______ _______ _______ _____ _____    ______ ____
ROOT
ATOM      1  C   UNL     1       2.796   7.537  18.704  0.00  0.00    +0.000 C 
ENDROOT
BRANCH   1   2
ATOM      2  C   UNL     1       1.898   8.730  18.442  0.00  0.00    +0.000 C 
ATOM      3  O   UNL     1       1.939   9.340  17.375  0.00  0.00    +0.000 OA
ATOM      4  N   UNL     1       1.013   9.066  19.470  0.00  0.00    +0.000 N 
ATOM      5  C   UNL     1       0.965   8.362  20.759  0.00  0.00    +0.000 C 
ATOM      6  C   UNL     1      -0.266   8.659  21.612  0.00  0.00    +0.000 C 
ATOM      7  C   UNL     1      -0.445  10.145  21.734  0.00  0.00    +0.000 A 
ATOM      8  C   UNL     1      -0.870  10.741  22.926  0.00  0.00    +0.000 A 
ATOM      9  C   UNL     1      -1.031  12.125  22.989  0.00  0.00    +0.000 A 
ATOM     10  C   UNL     1      -0.777  12.911  21.866  0.00  0.00    +0.000 A 
ATOM     11  C   UNL     1      -0.371  12.317  20.671  0.00  0.00    +0.000 A 
ATOM     12  C   UNL     1      -0.194  10.932  20.597  0.00  0.00    +0.000 A 
ATOM     13  C   UNL     1       0.195  10.266  19.297  0.00  0.00    +0.000 C 
ENDBRANCH   1   2
BRANCH   1  14
ATOM     14  C   UNL     1       3.855   7.333  17.617  0.00  0.00    +0.000 C 
BRANCH  14  15
ATOM     15  N   UNL     1       4.697   6.136  17.871  0.00  0.00    +0.000 NA
ATOM     16  C   UNL     1       6.083   6.342  17.426  0.00  0.00    +0.000 C 
BRANCH  15  17
ATOM     17  C   UNL     1       4.093   4.959  17.210  0.00  0.00    +0.000 C 
BRANCH  17  20
ATOM     18  C   UNL     1       3.126   2.771  20.116  0.00  0.00    +0.000 A 
ATOM     19  C   UNL     1       3.388   4.048  19.556  0.00  0.00    +0.000 A 
ATOM     20  C   UNL     1       3.657   3.929  18.206  0.00  0.00    +0.000 A 
ATOM     21  S   UNL     1       3.502   2.279  17.769  0.00  0.00    +0.000 S 
ATOM     22  N   UNL     1       3.160   1.727  19.293  0.00  0.00    +0.000 NA
BRANCH  18  24
ATOM     23  C   UNL     1       1.532   2.652  21.808  0.00  0.00    +0.000 C 
ATOM     24  O   UNL     1       2.905   2.575  21.438  0.00  0.00    +0.000 OA
ENDBRANCH  18  24
ENDBRANCH  17  20
ENDBRANCH  15  17
ENDBRANCH  14  15
ENDBRANCH   1  14
TORSDOF 6
ENDMDL
