MODEL 1
REMARK VINA RESULT:      -9.5      0.000      0.000
REMARK  Name = 
REMARK  7 active torsions:
REMARK  status: ('A' for Active; 'I' for Inactive)
REMARK    1  A    between atoms: C_1  and  C_2
REMARK    2  A    between atoms: C_3  and  C_4
REMARK    3  A    between atoms: C_5  and  C_6
REMARK    4  A    between atoms: C_7  and  O_8
REMARK    5  A    between atoms: C_15  and  O_16
REMARK    6  A    between atoms: C_33  and  C_34
REMARK    7  A    between atoms: C_33  and  C_35
REMARK                            x       y       z     vdW  Elec       q    Type
REMARK                         _______ _______ _______ _____ _____    ______ ____
ROOT
ATOM      1  C   UNL     1       1.465  11.426  18.622  0.00  0.00    +0.000 C 
ATOM      2  C   UNL     1       1.215  10.275  19.523  0.00  0.00    +0.000 A 
ATOM      3  C   UNL     1       0.590  10.166  20.775  0.00  0.00    +0.000 A 
ATOM      4  O   UNL     1       0.672   8.801  21.190  0.00  0.00    +0.000 OA
ATOM      5  C   UNL     1       1.353   8.099  20.192  0.00  0.00    +0.000 A 
ATOM      6  C   UNL     1       1.639   8.989  19.183  0.00  0.00    +0.000 A 
ATOM      7  C   UNL     1       2.337   8.551  18.005  0.00  0.00    +0.000 C 
ATOM      8  O   UNL     1       2.217   9.048  16.904  0.00  0.00    +0.000 OA
ATOM      9  C   UNL     1       3.218   7.376  18.232  0.00  0.00    +0.000 C 
ATOM     10  O   UNL     1       4.375   7.412  17.865  0.00  0.00    +0.000 OA
ATOM     11  C   UNL     1       2.633   6.281  19.038  0.00  0.00    +0.000 A 
ATOM     12  C   UNL     1       1.749   6.644  20.113  0.00  0.00    +0.000 A 
ATOM     13  C   UNL     1       1.322   5.573  20.886  0.00  0.00    +0.000 A 
ATOM     14  C   UNL     1       1.755   4.234  20.581  0.00  0.00    +0.000 A 
ATOM     15  C   UNL     1       2.589   3.900  19.475  0.00  0.00    +0.000 A 
ATOM     16  C   UNL     1       2.999   4.958  18.672  0.00  0.00    +0.000 A 
ATOM     17  C   UNL     1       3.848   4.735  17.442  0.00  0.00    +0.000 C 
ATOM     18  C   UNL     1       3.721   3.388  16.771  0.00  0.00    +0.000 C 
ATOM     19  C   UNL     1       3.433   2.207  17.676  0.00  0.00    +0.000 C 
ATOM     20  C   UNL     1       3.136   2.483  19.183  0.00  0.00    +0.000 C 
ATOM     21  C   UNL     1       4.468   2.288  19.950  0.00  0.00    +0.000 C 
ATOM     22  C   UNL     1       2.176   1.357  19.628  0.00  0.00    +0.000 C 
ENDROOT
BRANCH   3  23
ATOM     23  C   UNL     1      -0.145  11.227  21.530  0.00  0.00    +0.000 A 
ATOM     24  C   UNL     1      -0.274  12.488  20.929  0.00  0.00    +0.000 A 
ATOM     25  C   UNL     1      -1.343  12.510  19.804  0.00  0.00    +0.000 C 
ATOM     26  C   UNL     1      -0.357  13.582  21.801  0.00  0.00    +0.000 A 
ATOM     27  C   UNL     1      -1.475  13.515  22.583  0.00  0.00    +0.000 A 
ATOM     28  C   UNL     1      -2.303  14.648  22.699  0.00  0.00    +0.000 A 
ATOM     29  C   UNL     1      -3.629  14.461  23.058  0.00  0.00    +0.000 A 
ATOM     30  C   UNL     1      -4.074  13.176  23.371  0.00  0.00    +0.000 A 
ATOM     31  C   UNL     1      -3.182  12.080  23.411  0.00  0.00    +0.000 A 
ATOM     32  C   UNL     1      -1.836  12.223  22.998  0.00  0.00    +0.000 A 
ATOM     33  C   UNL     1      -0.891  11.163  22.712  0.00  0.00    +0.000 A 
BRANCH  26  34
ATOM     34  O   UNL     1       0.823  13.977  22.411  0.00  0.00    +0.000 OA
ATOM     35  H   UNL     1       1.549  13.821  21.777  0.00  0.00    +0.000 HD
ENDBRANCH  26  34
BRANCH  33  36
ATOM     36  O   UNL     1      -0.343  10.538  23.811  0.00  0.00    +0.000 OA
ATOM     37  H   UNL     1      -0.749  11.001  24.576  0.00  0.00    +0.000 HD
ENDBRANCH  33  36
ENDBRANCH   3  23
TORSDOF 3
ENDMDL
MODEL 2
REMARK VINA RESULT:      -8.9      1.676      9.436
REMARK  Name = 
REMARK  7 active torsions:
REMARK  status: ('A' for Active; 'I' for Inactive)
REMARK    1  A    between atoms: C_1  and  C_2
REMARK    2  A    between atoms: C_3  and  C_4
REMARK    3  A    between atoms: C_5  and  C_6
REMARK    4  A    between atoms: C_7  and  O_8
REMARK    5  A    between atoms: C_15  and  O_16
REMARK    6  A    between atoms: C_33  and  C_34
REMARK    7  A    between atoms: C_33  and  C_35
REMARK                            x       y       z     vdW  Elec       q    Type
REMARK                         _______ _______ _______ _____ _____    ______ ____
ROOT
ATOM      1  C   UNL     1       2.706   8.195  17.621  0.00  0.00    +0.000 C 
ATOM      2  C   UNL     1       1.999   8.171  18.925  0.00  0.00    +0.000 A 
ATOM      3  C   UNL     1       1.815   7.165  19.887  0.00  0.00    +0.000 A 
ATOM      4  O   UNL     1       1.010   7.706  20.937  0.00  0.00    +0.000 OA
ATOM      5  C   UNL     1       0.707   9.027  20.596  0.00  0.00    +0.000 A 
ATOM      6  C   UNL     1       1.337   9.302  19.405  0.00  0.00    +0.000 A 
ATOM      7  C   UNL     1       1.214  10.600  18.802  0.00  0.00    +0.000 C 
ATOM      8  O   UNL     1       2.051  11.114  18.088  0.00  0.00    +0.000 OA
ATOM      9  C   UNL     1      -0.041  11.311  19.160  0.00  0.00    +0.000 C 
ATOM     10  O   UNL     1      -0.738  11.780  18.283  0.00  0.00    +0.000 OA
ATOM     11  C   UNL     1      -0.419  11.264  20.590  0.00  0.00    +0.000 A 
ATOM     12  C   UNL     1      -0.130  10.057  21.317  0.00  0.00    +0.000 A 
ATOM     13  C   UNL     1      -0.605  10.049  22.621  0.00  0.00    +0.000 A 
ATOM     14  C   UNL     1      -1.312  11.188  23.148  0.00  0.00    +0.000 A 
ATOM     15  C   UNL     1      -1.536  12.392  22.419  0.00  0.00    +0.000 A 
ATOM     16  C   UNL     1      -1.037  12.428  21.122  0.00  0.00    +0.000 A 
ATOM     17  C   UNL     1      -1.168  13.661  20.258  0.00  0.00    +0.000 C 
ATOM     18  C   UNL     1      -1.263  14.983  20.982  0.00  0.00    +0.000 C 
ATOM     19  C   UNL     1      -1.954  14.968  22.330  0.00  0.00    +0.000 C 
ATOM     20  C   UNL     1      -2.368  13.589  22.934  0.00  0.00    +0.000 C 
ATOM     21  C   UNL     1      -3.857  13.364  22.570  0.00  0.00    +0.000 C 
ATOM     22  C   UNL     1      -2.289  13.770  24.467  0.00  0.00    +0.000 C 
ENDROOT
BRANCH   3  23
ATOM     23  C   UNL     1       2.423   5.799  19.917  0.00  0.00    +0.000 A 
ATOM     24  C   UNL     1       1.607   4.729  20.311  0.00  0.00    +0.000 A 
ATOM     25  C   UNL     1       0.613   4.292  19.202  0.00  0.00    +0.000 C 
ATOM     26  C   UNL     1       2.256   3.655  20.935  0.00  0.00    +0.000 A 
ATOM     27  C   UNL     1       3.146   3.050  20.092  0.00  0.00    +0.000 A 
ATOM     28  C   UNL     1       3.125   1.649  19.960  0.00  0.00    +0.000 A 
ATOM     29  C   UNL     1       3.646   1.089  18.804  0.00  0.00    +0.000 A 
ATOM     30  C   UNL     1       4.243   1.919  17.855  0.00  0.00    +0.000 A 
ATOM     31  C   UNL     1       4.402   3.305  18.089  0.00  0.00    +0.000 A 
ATOM     32  C   UNL     1       3.836   3.918  19.230  0.00  0.00    +0.000 A 
ATOM     33  C   UNL     1       3.664   5.338  19.467  0.00  0.00    +0.000 A 
BRANCH  26  34
ATOM     34  O   UNL     1       2.656   3.852  22.247  0.00  0.00    +0.000 OA
ATOM     35  H   UNL     1       3.366   3.210  22.438  0.00  0.00    +0.000 HD
ENDBRANCH  26  34
BRANCH  33  36
ATOM     36  O   UNL     1       4.802   6.024  19.832  0.00  0.00    +0.000 OA
ATOM     37  H   UNL     1       4.910   6.700  19.128  0.00  0.00    +0.000 HD
ENDBRANCH  33  36
ENDBRANCH   3  23
TORSDOF 3
ENDMDL
MODEL 3
REMARK VINA RESULT:      -8.3      1.679      9.894
REMARK  Name = 
REMARK  7 active torsions:
REMARK  status: ('A' for Active; 'I' for Inactive)
REMARK    1  A    between atoms: C_1  and  C_2
REMARK    2  A    between atoms: C_3  and  C_4
REMARK    3  A    between atoms: C_5  and  C_6
REMARK    4  A    between atoms: C_7  and  O_8
REMARK    5  A    between atoms: C_15  and  O_16
REMARK    6  A    between atoms: C_33  and  C_34
REMARK    7  A    between atoms: C_33  and  C_35
REMARK                            x       y       z     vdW  Elec       q    Type
REMARK                         _______ _______ _______ _____ _____    ______ ____
ROOT
ATOM      1  C   UNL     1       1.614   5.933  20.852  0.00  0.00    +0.000 C 
ATOM      2  C   UNL     1       1.904   7.175  20.095  0.00  0.00    +0.000 A 
ATOM      3  C   UNL     1       2.807   7.469  19.061  0.00  0.00    +0.000 A 
ATOM      4  O   UNL     1       2.671   8.856  18.742  0.00  0.00    +0.000 OA
ATOM      5  C   UNL     1       1.698   9.390  19.591  0.00  0.00    +0.000 A 
ATOM      6  C   UNL     1       1.221   8.362  20.371  0.00  0.00    +0.000 A 
ATOM      7  C   UNL     1       0.195   8.607  21.346  0.00  0.00    +0.000 C 
ATOM      8  O   UNL     1      -0.621   7.786  21.714  0.00  0.00    +0.000 OA
ATOM      9  C   UNL     1       0.177  10.000  21.861  0.00  0.00    +0.000 C 
ATOM     10  O   UNL     1       0.170  10.200  23.059  0.00  0.00    +0.000 OA
ATOM     11  C   UNL     1       0.316  11.064  20.841  0.00  0.00    +0.000 A 
ATOM     12  C   UNL     1       1.175  10.801  19.717  0.00  0.00    +0.000 A 
ATOM     13  C   UNL     1       1.336  11.879  18.857  0.00  0.00    +0.000 A 
ATOM     14  C   UNL     1       0.666  13.127  19.119  0.00  0.00    +0.000 A 
ATOM     15  C   UNL     1      -0.222  13.340  20.213  0.00  0.00    +0.000 A 
ATOM     16  C   UNL     1      -0.419  12.259  21.064  0.00  0.00    +0.000 A 
ATOM     17  C   UNL     1      -1.370  12.338  22.237  0.00  0.00    +0.000 C 
ATOM     18  C   UNL     1      -2.514  13.316  22.110  0.00  0.00    +0.000 C 
ATOM     19  C   UNL     1      -2.242  14.575  21.313  0.00  0.00    +0.000 C 
ATOM     20  C   UNL     1      -0.879  14.695  20.560  0.00  0.00    +0.000 C 
ATOM     21  C   UNL     1       0.075  15.500  21.477  0.00  0.00    +0.000 C 
ATOM     22  C   UNL     1      -1.170  15.566  19.317  0.00  0.00    +0.000 C 
ENDROOT
BRANCH   3  23
ATOM     23  C   UNL     1       3.688   6.521  18.314  0.00  0.00    +0.000 A 
ATOM     24  C   UNL     1       3.380   5.154  18.376  0.00  0.00    +0.000 A 
ATOM     25  C   UNL     1       2.168   4.771  17.486  0.00  0.00    +0.000 C 
ATOM     26  C   UNL     1       4.462   4.271  18.258  0.00  0.00    +0.000 A 
ATOM     27  C   UNL     1       5.066   4.380  17.037  0.00  0.00    +0.000 A 
ATOM     28  C   UNL     1       5.335   3.213  16.296  0.00  0.00    +0.000 A 
ATOM     29  C   UNL     1       5.478   3.324  14.922  0.00  0.00    +0.000 A 
ATOM     30  C   UNL     1       5.432   4.588  14.333  0.00  0.00    +0.000 A 
ATOM     31  C   UNL     1       5.329   5.760  15.118  0.00  0.00    +0.000 A 
ATOM     32  C   UNL     1       5.127   5.682  16.516  0.00  0.00    +0.000 A 
ATOM     33  C   UNL     1       4.724   6.755  17.403  0.00  0.00    +0.000 A 
BRANCH  26  34
ATOM     34  O   UNL     1       5.286   4.151  19.366  0.00  0.00    +0.000 OA
ATOM     35  H   UNL     1       6.143   3.802  19.059  0.00  0.00    +0.000 HD
ENDBRANCH  26  34
BRANCH  33  36
ATOM     36  O   UNL     1       5.710   7.659  17.734  0.00  0.00    +0.000 OA
ATOM     37  H   UNL     1       5.871   8.153  16.901  0.00  0.00    +0.000 HD
ENDBRANCH  33  36
ENDBRANCH   3  23
TORSDOF 3
ENDMDL
MODEL 4
REMARK VINA RESULT:      -8.2      2.393      4.101
REMARK  Name = 
REMARK  7 active torsions:
REMARK  status: ('A' for Active; 'I' for Inactive)
REMARK    1  A    between atoms: C_1  and  C_2
REMARK    2  A    between atoms: C_3  and  C_4
REMARK    3  A    between atoms: C_5  and  C_6
REMARK    4  A    between atoms: C_7  and  O_8
REMARK    5  A    between atoms: C_15  and  O_16
REMARK    6  A    between atoms: C_33  and  C_34
REMARK    7  A    between atoms: C_33  and  C_35
REMARK                            x       y       z     vdW  Elec       q    Type
REMARK                         _______ _______ _______ _____ _____    ______ ____
ROOT
ATOM      1  C   UNL     1      -0.397  10.940  22.287  0.00  0.00    +0.000 C 
ATOM      2  C   UNL     1       0.238  10.771  20.958  0.00  0.00    +0.000 A 
ATOM      3  C   UNL     1       0.285  11.586  19.816  0.00  0.00    +0.000 A 
ATOM      4  O   UNL     1       1.018  10.887  18.807  0.00  0.00    +0.000 OA
ATOM      5  C   UNL     1       1.399   9.654  19.343  0.00  0.00    +0.000 A 
ATOM      6  C   UNL     1       0.956   9.615  20.645  0.00  0.00    +0.000 A 
ATOM      7  C   UNL     1       1.208   8.460  21.463  0.00  0.00    +0.000 C 
ATOM      8  O   UNL     1       1.327   8.480  22.672  0.00  0.00    +0.000 OA
ATOM      9  C   UNL     1       1.360   7.200  20.692  0.00  0.00    +0.000 C 
ATOM     10  O   UNL     1       0.714   6.220  21.005  0.00  0.00    +0.000 OA
ATOM     11  C   UNL     1       2.205   7.286  19.480  0.00  0.00    +0.000 A 
ATOM     12  C   UNL     1       2.160   8.507  18.721  0.00  0.00    +0.000 A 
ATOM     13  C   UNL     1       2.899   8.477  17.546  0.00  0.00    +0.000 A 
ATOM     14  C   UNL     1       3.635   7.295  17.177  0.00  0.00    +0.000 A 
ATOM     15  C   UNL     1       3.704   6.118  17.978  0.00  0.00    +0.000 A 
ATOM     16  C   UNL     1       2.996   6.146  19.174  0.00  0.00    +0.000 A 
ATOM     17  C   UNL     1       3.022   4.980  20.135  0.00  0.00    +0.000 C 
ATOM     18  C   UNL     1       4.252   4.104  20.099  0.00  0.00    +0.000 C 
ATOM     19  C   UNL     1       4.930   3.948  18.753  0.00  0.00    +0.000 C 
ATOM     20  C   UNL     1       4.414   4.811  17.559  0.00  0.00    +0.000 C 
ATOM     21  C   UNL     1       3.422   3.930  16.759  0.00  0.00    +0.000 C 
ATOM     22  C   UNL     1       5.648   5.050  16.660  0.00  0.00    +0.000 C 
ENDROOT
BRANCH   3  23
ATOM     23  C   UNL     1      -0.222  12.985  19.664  0.00  0.00    +0.000 A 
ATOM     24  C   UNL     1      -0.587  13.678  20.827  0.00  0.00    +0.000 A 
ATOM     25  C   UNL     1       0.638  14.181  21.635  0.00  0.00    +0.000 C 
ATOM     26  C   UNL     1      -1.594  14.641  20.681  0.00  0.00    +0.000 A 
ATOM     27  C   UNL     1      -1.204  15.651  19.848  0.00  0.00    +0.000 A 
ATOM     28  C   UNL     1      -1.384  16.987  20.254  0.00  0.00    +0.000 A 
ATOM     29  C   UNL     1      -0.584  17.964  19.682  0.00  0.00    +0.000 A 
ATOM     30  C   UNL     1       0.308  17.605  18.670  0.00  0.00    +0.000 A 
ATOM     31  C   UNL     1       0.350  16.286  18.162  0.00  0.00    +0.000 A 
ATOM     32  C   UNL     1      -0.412  15.254  18.759  0.00  0.00    +0.000 A 
ATOM     33  C   UNL     1      -0.268  13.827  18.549  0.00  0.00    +0.000 A 
BRANCH  26  34
ATOM     34  O   UNL     1      -2.889  14.166  20.540  0.00  0.00    +0.000 OA
ATOM     35  H   UNL     1      -3.496  14.905  20.735  0.00  0.00    +0.000 HD
ENDBRANCH  26  34
BRANCH  33  36
ATOM     36  O   UNL     1      -0.789  13.342  17.368  0.00  0.00    +0.000 OA
ATOM     37  H   UNL     1      -0.234  12.557  17.167  0.00  0.00    +0.000 HD
ENDBRANCH  33  36
ENDBRANCH   3  23
TORSDOF 3
ENDMDL
MODEL 5
REMARK VINA RESULT:      -8.1      2.584      4.468
REMARK  Name = 
REMARK  7 active torsions:
REMARK  status: ('A' for Active; 'I' for Inactive)
REMARK    1  A    between atoms: C_1  and  C_2
REMARK    2  A    between atoms: C_3  and  C_4
REMARK    3  A    between atoms: C_5  and  C_6
REMARK    4  A    between atoms: C_7  and  O_8
REMARK    5  A    between atoms: C_15  and  O_16
REMARK    6  A    between atoms: C_33  and  C_34
REMARK    7  A    between atoms: C_33  and  C_35
REMARK                            x       y       z     vdW  Elec       q    Type
REMARK                         _______ _______ _______ _____ _____    ______ ____
ROOT
ATOM      1  C   UNL     1      -0.633  11.808  22.514  0.00  0.00    +0.000 C 
ATOM      2  C   UNL     1       0.062  11.486  21.244  0.00  0.00    +0.000 A 
ATOM      3  C   UNL     1       0.346  12.246  20.097  0.00  0.00    +0.000 A 
ATOM      4  O   UNL     1       1.015  11.396  19.163  0.00  0.00    +0.000 OA
ATOM      5  C   UNL     1       1.122  10.131  19.747  0.00  0.00    +0.000 A 
ATOM      6  C   UNL     1       0.579  10.211  21.009  0.00  0.00    +0.000 A 
ATOM      7  C   UNL     1       0.552   9.055  21.862  0.00  0.00    +0.000 C 
ATOM      8  O   UNL     1       0.577   9.089  23.076  0.00  0.00    +0.000 OA
ATOM      9  C   UNL     1       0.530   7.765  21.124  0.00  0.00    +0.000 C 
ATOM     10  O   UNL     1      -0.306   6.929  21.398  0.00  0.00    +0.000 OA
ATOM     11  C   UNL     1       1.470   7.662  19.985  0.00  0.00    +0.000 A 
ATOM     12  C   UNL     1       1.708   8.848  19.207  0.00  0.00    +0.000 A 
ATOM     13  C   UNL     1       2.518   8.650  18.097  0.00  0.00    +0.000 A 
ATOM     14  C   UNL     1       3.053   7.344  17.808  0.00  0.00    +0.000 A 
ATOM     15  C   UNL     1       2.843   6.198  18.630  0.00  0.00    +0.000 A 
ATOM     16  C   UNL     1       2.061   6.388  19.763  0.00  0.00    +0.000 A 
ATOM     17  C   UNL     1       1.798   5.266  20.740  0.00  0.00    +0.000 C 
ATOM     18  C   UNL     1       2.847   4.182  20.818  0.00  0.00    +0.000 C 
ATOM     19  C   UNL     1       3.588   3.866  19.536  0.00  0.00    +0.000 C 
ATOM     20  C   UNL     1       3.333   4.772  18.290  0.00  0.00    +0.000 C 
ATOM     21  C   UNL     1       2.262   4.062  17.425  0.00  0.00    +0.000 C 
ATOM     22  C   UNL     1       4.657   4.758  17.492  0.00  0.00    +0.000 C 
ENDROOT
BRANCH   3  23
ATOM     23  C   UNL     1       0.116  13.708  19.883  0.00  0.00    +0.000 A 
ATOM     24  C   UNL     1       0.143  14.546  21.008  0.00  0.00    +0.000 A 
ATOM     25  C   UNL     1       1.584  14.819  21.517  0.00  0.00    +0.000 C 
ATOM     26  C   UNL     1      -0.653  15.696  20.939  0.00  0.00    +0.000 A 
ATOM     27  C   UNL     1      -0.241  16.532  19.940  0.00  0.00    +0.000 A 
ATOM     28  C   UNL     1      -0.058  17.900  20.220  0.00  0.00    +0.000 A 
ATOM     29  C   UNL     1       0.792  18.631  19.404  0.00  0.00    +0.000 A 
ATOM     30  C   UNL     1       1.369  18.012  18.294  0.00  0.00    +0.000 A 
ATOM     31  C   UNL     1       1.036  16.684  17.940  0.00  0.00    +0.000 A 
ATOM     32  C   UNL     1       0.216  15.892  18.777  0.00  0.00    +0.000 A 
ATOM     33  C   UNL     1       0.019  14.458  18.707  0.00  0.00    +0.000 A 
BRANCH  26  34
ATOM     34  O   UNL     1      -2.019  15.512  21.091  0.00  0.00    +0.000 OA
ATOM     35  H   UNL     1      -2.446  16.384  20.988  0.00  0.00    +0.000 HD
ENDBRANCH  26  34
BRANCH  33  36
ATOM     36  O   UNL     1      -0.818  14.019  17.704  0.00  0.00    +0.000 OA
ATOM     37  H   UNL     1      -0.671  14.658  16.973  0.00  0.00    +0.000 HD
ENDBRANCH  33  36
ENDBRANCH   3  23
TORSDOF 3
ENDMDL
MODEL 6
REMARK VINA RESULT:      -8.1      6.384      7.969
REMARK  Name = 
REMARK  7 active torsions:
REMARK  status: ('A' for Active; 'I' for Inactive)
REMARK    1  A    between atoms: C_1  and  C_2
REMARK    2  A    between atoms: C_3  and  C_4
REMARK    3  A    between atoms: C_5  and  C_6
REMARK    4  A    between atoms: C_7  and  O_8
REMARK    5  A    between atoms: C_15  and  O_16
REMARK    6  A    between atoms: C_33  and  C_34
REMARK    7  A    between atoms: C_33  and  C_35
REMARK                            x       y       z     vdW  Elec       q    Type
REMARK                         _______ _______ _______ _____ _____    ______ ____
ROOT
ATOM      1  C   UNL     1       0.219  13.415  19.160  0.00  0.00    +0.000 C 
ATOM      2  C   UNL     1       1.145  13.860  20.229  0.00  0.00    +0.000 A 
ATOM      3  C   UNL     1       0.949  14.195  21.579  0.00  0.00    +0.000 A 
ATOM      4  O   UNL     1       2.211  14.592  22.120  0.00  0.00    +0.000 OA
ATOM      5  C   UNL     1       3.155  14.503  21.094  0.00  0.00    +0.000 A 
ATOM      6  C   UNL     1       2.508  14.028  19.977  0.00  0.00    +0.000 A 
ATOM      7  C   UNL     1       3.231  13.823  18.752  0.00  0.00    +0.000 C 
ATOM      8  O   UNL     1       2.944  12.998  17.908  0.00  0.00    +0.000 OA
ATOM      9  C   UNL     1       4.422  14.699  18.604  0.00  0.00    +0.000 C 
ATOM     10  O   UNL     1       4.573  15.344  17.586  0.00  0.00    +0.000 OA
ATOM     11  C   UNL     1       5.279  14.825  19.805  0.00  0.00    +0.000 A 
ATOM     12  C   UNL     1       4.631  14.825  21.089  0.00  0.00    +0.000 A 
ATOM     13  C   UNL     1       5.486  15.049  22.160  0.00  0.00    +0.000 A 
ATOM     14  C   UNL     1       6.895  15.249  21.939  0.00  0.00    +0.000 A 
ATOM     15  C   UNL     1       7.516  15.189  20.657  0.00  0.00    +0.000 A 
ATOM     16  C   UNL     1       6.677  14.932  19.579  0.00  0.00    +0.000 A 
ATOM     17  C   UNL     1       7.215  14.800  18.173  0.00  0.00    +0.000 C 
ATOM     18  C   UNL     1       8.646  14.336  18.040  0.00  0.00    +0.000 C 
ATOM     19  C   UNL     1       9.598  14.756  19.142  0.00  0.00    +0.000 C 
ATOM     20  C   UNL     1       9.009  15.487  20.390  0.00  0.00    +0.000 C 
ATOM     21  C   UNL     1       9.185  17.008  20.149  0.00  0.00    +0.000 C 
ATOM     22  C   UNL     1       9.928  15.096  21.569  0.00  0.00    +0.000 C 
ENDROOT
BRANCH   3  23
ATOM     23  C   UNL     1      -0.305  14.069  22.384  0.00  0.00    +0.000 A 
ATOM     24  C   UNL     1      -0.917  15.249  22.831  0.00  0.00    +0.000 A 
ATOM     25  C   UNL     1      -1.684  15.991  21.704  0.00  0.00    +0.000 C 
ATOM     26  C   UNL     1      -1.637  15.154  24.029  0.00  0.00    +0.000 A 
ATOM     27  C   UNL     1      -2.698  14.301  23.910  0.00  0.00    +0.000 A 
ATOM     28  C   UNL     1      -3.968  14.715  24.355  0.00  0.00    +0.000 A 
ATOM     29  C   UNL     1      -5.087  14.100  23.816  0.00  0.00    +0.000 A 
ATOM     30  C   UNL     1      -4.918  13.044  22.920  0.00  0.00    +0.000 A 
ATOM     31  C   UNL     1      -3.633  12.536  22.619  0.00  0.00    +0.000 A 
ATOM     32  C   UNL     1      -2.468  13.172  23.107  0.00  0.00    +0.000 A 
ATOM     33  C   UNL     1      -1.104  12.956  22.668  0.00  0.00    +0.000 A 
BRANCH  26  34
ATOM     34  O   UNL     1      -0.891  15.082  25.195  0.00  0.00    +0.000 OA
ATOM     35  H   UNL     1       0.048  15.180  24.950  0.00  0.00    +0.000 HD
ENDBRANCH  26  34
BRANCH  33  36
ATOM     36  O   UNL     1      -0.503  11.805  23.130  0.00  0.00    +0.000 OA
ATOM     37  H   UNL     1      -1.056  11.083  22.763  0.00  0.00    +0.000 HD
ENDBRANCH  33  36
ENDBRANCH   3  23
TORSDOF 3
ENDMDL
MODEL 7
REMARK VINA RESULT:      -8.0      1.721      9.361
REMARK  Name = 
REMARK  7 active torsions:
REMARK  status: ('A' for Active; 'I' for Inactive)
REMARK    1  A    between atoms: C_1  and  C_2
REMARK    2  A    between atoms: C_3  and  C_4
REMARK    3  A    between atoms: C_5  and  C_6
REMARK    4  A    between atoms: C_7  and  O_8
REMARK    5  A    between atoms: C_15  and  O_16
REMARK    6  A    between atoms: C_33  and  C_34
REMARK    7  A    between atoms: C_33  and  C_35
REMARK                            x       y       z     vdW  Elec       q    Type
REMARK                         _______ _______ _______ _____ _____    ______ ____
ROOT
ATOM      1  C   UNL     1       2.713   8.257  17.347  0.00  0.00    +0.000 C 
ATOM      2  C   UNL     1       1.968   8.258  18.629  0.00  0.00    +0.000 A 
ATOM      3  C   UNL     1       1.613   7.235  19.523  0.00  0.00    +0.000 A 
ATOM      4  O   UNL     1       0.858   7.823  20.585  0.00  0.00    +0.000 OA
ATOM      5  C   UNL     1       0.755   9.191  20.319  0.00  0.00    +0.000 A 
ATOM      6  C   UNL     1       1.457   9.442  19.163  0.00  0.00    +0.000 A 
ATOM      7  C   UNL     1       1.537  10.777  18.639  0.00  0.00    +0.000 C 
ATOM      8  O   UNL     1       2.461  11.208  17.979  0.00  0.00    +0.000 OA
ATOM      9  C   UNL     1       0.385  11.638  19.010  0.00  0.00    +0.000 C 
ATOM     10  O   UNL     1      -0.211  12.252  18.148  0.00  0.00    +0.000 OA
ATOM     11  C   UNL     1      -0.044  11.563  20.425  0.00  0.00    +0.000 A 
ATOM     12  C   UNL     1       0.048  10.287  21.082  0.00  0.00    +0.000 A 
ATOM     13  C   UNL     1      -0.465  10.270  22.371  0.00  0.00    +0.000 A 
ATOM     14  C   UNL     1      -1.022  11.466  22.951  0.00  0.00    +0.000 A 
ATOM     15  C   UNL     1      -1.050  12.730  22.293  0.00  0.00    +0.000 A 
ATOM     16  C   UNL     1      -0.509  12.770  21.013  0.00  0.00    +0.000 A 
ATOM     17  C   UNL     1      -0.436  14.057  20.224  0.00  0.00    +0.000 C 
ATOM     18  C   UNL     1      -0.367  15.335  21.027  0.00  0.00    +0.000 C 
ATOM     19  C   UNL     1      -1.097  15.340  22.354  0.00  0.00    +0.000 C 
ATOM     20  C   UNL     1      -1.721  14.002  22.861  0.00  0.00    +0.000 C 
ATOM     21  C   UNL     1      -3.214  14.013  22.448  0.00  0.00    +0.000 C 
ATOM     22  C   UNL     1      -1.668  14.080  24.403  0.00  0.00    +0.000 C 
ENDROOT
BRANCH   3  23
ATOM     23  C   UNL     1       2.020   5.797  19.482  0.00  0.00    +0.000 A 
ATOM     24  C   UNL     1       3.069   5.438  18.623  0.00  0.00    +0.000 A 
ATOM     25  C   UNL     1       4.461   5.844  19.176  0.00  0.00    +0.000 C 
ATOM     26  C   UNL     1       3.030   4.134  18.112  0.00  0.00    +0.000 A 
ATOM     27  C   UNL     1       3.132   3.202  19.105  0.00  0.00    +0.000 A 
ATOM     28  C   UNL     1       4.055   2.148  18.968  0.00  0.00    +0.000 A 
ATOM     29  C   UNL     1       4.509   1.516  20.114  0.00  0.00    +0.000 A 
ATOM     30  C   UNL     1       3.979   1.887  21.351  0.00  0.00    +0.000 A 
ATOM     31  C   UNL     1       2.931   2.831  21.446  0.00  0.00    +0.000 A 
ATOM     32  C   UNL     1       2.482   3.535  20.304  0.00  0.00    +0.000 A 
ATOM     33  C   UNL     1       1.637   4.712  20.278  0.00  0.00    +0.000 A 
BRANCH  26  34
ATOM     34  O   UNL     1       2.106   3.892  17.107  0.00  0.00    +0.000 OA
ATOM     35  H   UNL     1       1.655   3.053  17.318  0.00  0.00    +0.000 HD
ENDBRANCH  26  34
BRANCH  33  36
ATOM     36  O   UNL     1       0.295   4.490  20.500  0.00  0.00    +0.000 OA
ATOM     37  H   UNL     1      -0.101   5.388  20.492  0.00  0.00    +0.000 HD
ENDBRANCH  33  36
ENDBRANCH   3  23
TORSDOF 3
ENDMDL
MODEL 8
REMARK VINA RESULT:      -8.0      1.939      9.848
REMARK  Name = 
REMARK  7 active torsions:
REMARK  status: ('A' for Active; 'I' for Inactive)
REMARK    1  A    between atoms: C_1  and  C_2
REMARK    2  A    between atoms: C_3  and  C_4
REMARK    3  A    between atoms: C_5  and  C_6
REMARK    4  A    between atoms: C_7  and  O_8
REMARK    5  A    between atoms: C_15  and  O_16
REMARK    6  A    between atoms: C_33  and  C_34
REMARK    7  A    between atoms: C_33  and  C_35
REMARK                            x       y       z     vdW  Elec       q    Type
REMARK                         _______ _______ _______ _____ _____    ______ ____
ROOT
ATOM      1  C   UNL     1       1.256   5.967  21.172  0.00  0.00    +0.000 C 
ATOM      2  C   UNL     1       1.664   7.150  20.377  0.00  0.00    +0.000 A 
ATOM      3  C   UNL     1       2.634   7.336  19.379  0.00  0.00    +0.000 A 
ATOM      4  O   UNL     1       2.606   8.712  18.992  0.00  0.00    +0.000 OA
ATOM      5  C   UNL     1       1.630   9.347  19.764  0.00  0.00    +0.000 A 
ATOM      6  C   UNL     1       1.049   8.390  20.563  0.00  0.00    +0.000 A 
ATOM      7  C   UNL     1      -0.006   8.746  21.472  0.00  0.00    +0.000 C 
ATOM      8  O   UNL     1      -0.892   7.997  21.833  0.00  0.00    +0.000 OA
ATOM      9  C   UNL     1       0.043  10.161  21.923  0.00  0.00    +0.000 C 
ATOM     10  O   UNL     1      -0.009  10.417  23.109  0.00  0.00    +0.000 OA
ATOM     11  C   UNL     1       0.302  11.163  20.865  0.00  0.00    +0.000 A 
ATOM     12  C   UNL     1       1.195  10.793  19.800  0.00  0.00    +0.000 A 
ATOM     13  C   UNL     1       1.469  11.816  18.903  0.00  0.00    +0.000 A 
ATOM     14  C   UNL     1       0.871  13.115  19.074  0.00  0.00    +0.000 A 
ATOM     15  C   UNL     1      -0.053  13.436  20.110  0.00  0.00    +0.000 A 
ATOM     16  C   UNL     1      -0.363  12.412  20.997  0.00  0.00    +0.000 A 
ATOM     17  C   UNL     1      -1.362  12.608  22.113  0.00  0.00    +0.000 C 
ATOM     18  C   UNL     1      -2.432  13.649  21.885  0.00  0.00    +0.000 C 
ATOM     19  C   UNL     1      -2.039  14.849  21.047  0.00  0.00    +0.000 C 
ATOM     20  C   UNL     1      -0.636  14.846  20.362  0.00  0.00    +0.000 C 
ATOM     21  C   UNL     1       0.324  15.631  21.291  0.00  0.00    +0.000 C 
ATOM     22  C   UNL     1      -0.807  15.673  19.068  0.00  0.00    +0.000 C 
ENDROOT
BRANCH   3  23
ATOM     23  C   UNL     1       3.486   6.299  18.721  0.00  0.00    +0.000 A 
ATOM     24  C   UNL     1       3.350   6.121  17.336  0.00  0.00    +0.000 A 
ATOM     25  C   UNL     1       4.039   7.245  16.517  0.00  0.00    +0.000 C 
ATOM     26  C   UNL     1       3.613   4.834  16.851  0.00  0.00    +0.000 A 
ATOM     27  C   UNL     1       4.913   4.473  17.066  0.00  0.00    +0.000 A 
ATOM     28  C   UNL     1       5.663   3.933  16.003  0.00  0.00    +0.000 A 
ATOM     29  C   UNL     1       7.044   4.024  16.059  0.00  0.00    +0.000 A 
ATOM     30  C   UNL     1       7.645   4.568  17.195  0.00  0.00    +0.000 A 
ATOM     31  C   UNL     1       6.877   4.949  18.320  0.00  0.00    +0.000 A 
ATOM     32  C   UNL     1       5.464   4.921  18.277  0.00  0.00    +0.000 A 
ATOM     33  C   UNL     1       4.547   5.535  19.217  0.00  0.00    +0.000 A 
BRANCH  26  34
ATOM     34  O   UNL     1       2.640   3.875  17.084  0.00  0.00    +0.000 OA
ATOM     35  H   UNL     1       1.970   3.958  16.379  0.00  0.00    +0.000 HD
ENDBRANCH  26  34
BRANCH  33  36
ATOM     36  O   UNL     1       4.388   4.872  20.415  0.00  0.00    +0.000 OA
ATOM     37  H   UNL     1       4.313   3.928  20.158  0.00  0.00    +0.000 HD
ENDBRANCH  33  36
ENDBRANCH   3  23
TORSDOF 3
ENDMDL
MODEL 9
REMARK VINA RESULT:      -8.0      2.606      4.415
REMARK  Name = 
REMARK  7 active torsions:
REMARK  status: ('A' for Active; 'I' for Inactive)
REMARK    1  A    between atoms: C_1  and  C_2
REMARK    2  A    between atoms: C_3  and  C_4
REMARK    3  A    between atoms: C_5  and  C_6
REMARK    4  A    between atoms: C_7  and  O_8
REMARK    5  A    between atoms: C_15  and  O_16
REMARK    6  A    between atoms: C_33  and  C_34
REMARK    7  A    between atoms: C_33  and  C_35
REMARK                            x       y       z     vdW  Elec       q    Type
REMARK                         _______ _______ _______ _____ _____    ______ ____
ROOT
ATOM      1  C   UNL     1      -0.564  12.432  22.674  0.00  0.00    +0.000 C 
ATOM      2  C   UNL     1       0.070  12.049  21.389  0.00  0.00    +0.000 A 
ATOM      3  C   UNL     1       0.345  12.767  20.214  0.00  0.00    +0.000 A 
ATOM      4  O   UNL     1       0.942  11.866  19.280  0.00  0.00    +0.000 OA
ATOM      5  C   UNL     1       1.014  10.612  19.892  0.00  0.00    +0.000 A 
ATOM      6  C   UNL     1       0.521  10.747  21.169  0.00  0.00    +0.000 A 
ATOM      7  C   UNL     1       0.474   9.614  22.052  0.00  0.00    +0.000 C 
ATOM      8  O   UNL     1       0.545   9.676  23.263  0.00  0.00    +0.000 OA
ATOM      9  C   UNL     1       0.370   8.309  21.349  0.00  0.00    +0.000 C 
ATOM     10  O   UNL     1      -0.492   7.518  21.674  0.00  0.00    +0.000 OA
ATOM     11  C   UNL     1       1.262   8.136  20.181  0.00  0.00    +0.000 A 
ATOM     12  C   UNL     1       1.523   9.292  19.364  0.00  0.00    +0.000 A 
ATOM     13  C   UNL     1       2.283   9.031  18.232  0.00  0.00    +0.000 A 
ATOM     14  C   UNL     1       2.749   7.696  17.958  0.00  0.00    +0.000 A 
ATOM     15  C   UNL     1       2.519   6.581  18.815  0.00  0.00    +0.000 A 
ATOM     16  C   UNL     1       1.788   6.833  19.970  0.00  0.00    +0.000 A 
ATOM     17  C   UNL     1       1.512   5.748  20.985  0.00  0.00    +0.000 C 
ATOM     18  C   UNL     1       2.514   4.620  21.053  0.00  0.00    +0.000 C 
ATOM     19  C   UNL     1       3.194   4.240  19.754  0.00  0.00    +0.000 C 
ATOM     20  C   UNL     1       2.934   5.126  18.495  0.00  0.00    +0.000 C 
ATOM     21  C   UNL     1       1.802   4.444  17.687  0.00  0.00    +0.000 C 
ATOM     22  C   UNL     1       4.226   5.034  17.652  0.00  0.00    +0.000 C 
ENDROOT
BRANCH   3  23
ATOM     23  C   UNL     1       0.172  14.233  19.971  0.00  0.00    +0.000 A 
ATOM     24  C   UNL     1       0.723  14.771  18.800  0.00  0.00    +0.000 A 
ATOM     25  C   UNL     1      -0.112  14.436  17.535  0.00  0.00    +0.000 C 
ATOM     26  C   UNL     1       1.124  16.112  18.866  0.00  0.00    +0.000 A 
ATOM     27  C   UNL     1       0.063  16.941  19.098  0.00  0.00    +0.000 A 
ATOM     28  C   UNL     1      -0.109  18.083  18.292  0.00  0.00    +0.000 A 
ATOM     29  C   UNL     1      -1.378  18.630  18.186  0.00  0.00    +0.000 A 
ATOM     30  C   UNL     1      -2.418  18.087  18.942  0.00  0.00    +0.000 A 
ATOM     31  C   UNL     1      -2.184  17.047  19.872  0.00  0.00    +0.000 A 
ATOM     32  C   UNL     1      -0.915  16.429  19.966  0.00  0.00    +0.000 A 
ATOM     33  C   UNL     1      -0.594  15.190  20.645  0.00  0.00    +0.000 A 
BRANCH  26  34
ATOM     34  O   UNL     1       2.298  16.373  19.555  0.00  0.00    +0.000 OA
ATOM     35  H   UNL     1       2.593  17.269  19.304  0.00  0.00    +0.000 HD
ENDBRANCH  26  34
BRANCH  33  36
ATOM     36  O   UNL     1      -0.506  15.267  22.018  0.00  0.00    +0.000 OA
ATOM     37  H   UNL     1       0.380  14.895  22.222  0.00  0.00    +0.000 HD
ENDBRANCH  33  36
ENDBRANCH   3  23
TORSDOF 3
ENDMDL
