MODEL 1
REMARK VINA RESULT:      -7.5      0.000      0.000
REMARK  Name = 
REMARK  13 active torsions:
REMARK  status: ('A' for Active; 'I' for Inactive)
REMARK    1  A    between atoms: C_1  and  O_2
REMARK    2  A    between atoms: O_2  and  C_3
REMARK    3  A    between atoms: C_3  and  C_5
REMARK    4  A    between atoms: C_5  and  C_6
REMARK    5  A    between atoms: C_5  and  N_13
REMARK    6  A    between atoms: C_6  and  C_7
REMARK    7  A    between atoms: C_7  and  C_8
REMARK    8  A    between atoms: C_8  and  N_9
REMARK    9  A    between atoms: C_14  and  C_16
REMARK   10  A    between atoms: C_16  and  N_17
REMARK   11  A    between atoms: C_16  and  C_18
REMARK   12  A    between atoms: C_18  and  C_19
REMARK   13  A    between atoms: C_22  and  C_23
REMARK                            x       y       z     vdW  Elec       q    Type
REMARK                         _______ _______ _______ _____ _____    ______ ____
ROOT
ATOM      1  C   UNL     1      -0.277   9.980  20.235  0.00  0.00    +0.000 C 
ENDROOT
BRANCH   1   3
ATOM      2  N   UNL     1      -1.779  11.845  20.896  0.00  0.00    +0.000 N 
ATOM      3  C   UNL     1      -0.699  11.065  21.245  0.00  0.00    +0.000 C 
ATOM      4  O   UNL     1      -0.068  11.280  22.287  0.00  0.00    +0.000 OA
ATOM      5  H   UNL     1      -2.204  11.741  19.979  0.00  0.00    +0.000 HD
BRANCH   2   6
ATOM      6  C   UNL     1      -2.290  12.871  21.816  0.00  0.00    +0.000 C 
BRANCH   6   7
ATOM      7  C   UNL     1      -3.630  12.444  22.447  0.00  0.00    +0.000 C 
ATOM      8  O   UNL     1      -4.704  12.442  21.843  0.00  0.00    +0.000 OA
BRANCH   7  10
ATOM      9  C   UNL     1      -4.279  12.605  24.695  0.00  0.00    +0.000 C 
ATOM     10  O   UNL     1      -3.461  11.961  23.712  0.00  0.00    +0.000 OA
ENDBRANCH   7  10
ENDBRANCH   6   7
BRANCH   6  11
ATOM     11  C   UNL     1      -2.404  14.236  21.102  0.00  0.00    +0.000 C 
BRANCH  11  12
ATOM     12  C   UNL     1      -1.062  14.994  21.046  0.00  0.00    +0.000 C 
BRANCH  12  13
ATOM     13  C   UNL     1      -0.661  15.298  19.604  0.00  0.00    +0.000 C 
BRANCH  13  14
ATOM     14  N   UNL     1       0.394  14.432  19.101  0.00  0.00    +0.000 N 
ATOM     15  C   UNL     1       0.167  13.379  18.278  0.00  0.00    +0.000 C 
ATOM     16  N   UNL     1      -0.969  12.992  17.832  0.00  0.00    +0.000 NA
ATOM     17  N   UNL     1       1.246  12.667  17.915  0.00  0.00    +0.000 N 
ATOM     18  H   UNL     1       1.346  14.644  19.368  0.00  0.00    +0.000 HD
ATOM     19  H   UNL     1      -1.699  13.601  18.200  0.00  0.00    +0.000 HD
ATOM     20  H   UNL     1       2.195  12.920  18.113  0.00  0.00    +0.000 HD
ATOM     21  H   UNL     1       1.069  11.925  17.248  0.00  0.00    +0.000 HD
ENDBRANCH  13  14
ENDBRANCH  12  13
ENDBRANCH  11  12
ENDBRANCH   6  11
ENDBRANCH   2   6
ENDBRANCH   1   3
BRANCH   1  22
ATOM     22  N   UNL     1      -0.948  10.206  18.929  0.00  0.00    +0.000 NA
ATOM     23  H   UNL     1      -0.780   9.406  18.320  0.00  0.00    +0.000 HD
ATOM     24  H   UNL     1      -0.571  11.029  18.466  0.00  0.00    +0.000 HD
ENDBRANCH   1  22
BRANCH   1  25
ATOM     25  C   UNL     1       1.248  10.015  20.058  0.00  0.00    +0.000 C 
BRANCH  25  26
ATOM     26  C   UNL     1       1.770   8.795  19.389  0.00  0.00    +0.000 A 
ATOM     27  C   UNL     1       2.274   8.660  18.116  0.00  0.00    +0.000 A 
ATOM     28  N   UNL     1       2.497   7.324  17.958  0.00  0.00    +0.000 N 
ATOM     29  C   UNL     1       2.144   6.697  19.134  0.00  0.00    +0.000 A 
ATOM     30  N   UNL     1       1.748   7.579  20.025  0.00  0.00    +0.000 NA
ATOM     31  H   UNL     1       2.815   6.874  17.113  0.00  0.00    +0.000 HD
BRANCH  29  32
ATOM     32  C   UNL     1       2.184   5.203  19.310  0.00  0.00    +0.000 C 
ATOM     33  C   UNL     1       1.208   4.760  20.423  0.00  0.00    +0.000 C 
ATOM     34  C   UNL     1       1.257   3.234  20.610  0.00  0.00    +0.000 C 
ATOM     35  C   UNL     1       0.862   2.549  19.293  0.00  0.00    +0.000 C 
ATOM     36  C   UNL     1       1.835   2.954  18.175  0.00  0.00    +0.000 C 
ATOM     37  C   UNL     1       3.264   2.543  18.565  0.00  0.00    +0.000 C 
ATOM     38  C   UNL     1       3.669   3.227  19.879  0.00  0.00    +0.000 C 
ATOM     39  C   UNL     1       2.687   2.816  20.989  0.00  0.00    +0.000 C 
ATOM     40  C   UNL     1       3.615   4.752  19.695  0.00  0.00    +0.000 C 
ATOM     41  C   UNL     1       1.785   4.478  17.994  0.00  0.00    +0.000 C 
ENDBRANCH  29  32
ENDBRANCH  25  26
ENDBRANCH   1  25
TORSDOF 12
ENDMDL
MODEL 2
REMARK VINA RESULT:      -7.4      7.051      8.919
REMARK  Name = 
REMARK  13 active torsions:
REMARK  status: ('A' for Active; 'I' for Inactive)
REMARK    1  A    between atoms: C_1  and  O_2
REMARK    2  A    between atoms: O_2  and  C_3
REMARK    3  A    between atoms: C_3  and  C_5
REMARK    4  A    between atoms: C_5  and  C_6
REMARK    5  A    between atoms: C_5  and  N_13
REMARK    6  A    between atoms: C_6  and  C_7
REMARK    7  A    between atoms: C_7  and  C_8
REMARK    8  A    between atoms: C_8  and  N_9
REMARK    9  A    between atoms: C_14  and  C_16
REMARK   10  A    between atoms: C_16  and  N_17
REMARK   11  A    between atoms: C_16  and  C_18
REMARK   12  A    between atoms: C_18  and  C_19
REMARK   13  A    between atoms: C_22  and  C_23
REMARK                            x       y       z     vdW  Elec       q    Type
REMARK                         _______ _______ _______ _____ _____    ______ ____
ROOT
ATOM      1  C   UNL     1       8.521   8.187  18.115  0.00  0.00    +0.000 C 
ENDROOT
BRANCH   1   3
ATOM      2  N   UNL     1       8.909  10.630  17.898  0.00  0.00    +0.000 N 
ATOM      3  C   UNL     1       8.805   9.558  18.757  0.00  0.00    +0.000 C 
ATOM      4  O   UNL     1       8.999   9.693  19.971  0.00  0.00    +0.000 OA
ATOM      5  H   UNL     1       8.877  10.481  16.895  0.00  0.00    +0.000 HD
BRANCH   2   6
ATOM      6  C   UNL     1       9.127  11.988  18.419  0.00  0.00    +0.000 C 
BRANCH   6   7
ATOM      7  C   UNL     1       8.326  13.033  17.616  0.00  0.00    +0.000 C 
ATOM      8  O   UNL     1       7.453  12.747  16.796  0.00  0.00    +0.000 OA
BRANCH   7  10
ATOM      9  C   UNL     1       7.519  15.004  18.599  0.00  0.00    +0.000 C 
ATOM     10  O   UNL     1       8.621  14.306  18.009  0.00  0.00    +0.000 OA
ENDBRANCH   7  10
ENDBRANCH   6   7
BRANCH   6  11
ATOM     11  C   UNL     1      10.634  12.325  18.453  0.00  0.00    +0.000 C 
BRANCH  11  12
ATOM     12  C   UNL     1      11.222  12.565  17.048  0.00  0.00    +0.000 C 
BRANCH  12  13
ATOM     13  C   UNL     1      12.230  13.714  17.062  0.00  0.00    +0.000 C 
BRANCH  13  14
ATOM     14  N   UNL     1      11.761  14.888  17.780  0.00  0.00    +0.000 N 
ATOM     15  C   UNL     1      11.037  15.877  17.202  0.00  0.00    +0.000 C 
ATOM     16  N   UNL     1      10.666  15.933  15.978  0.00  0.00    +0.000 NA
ATOM     17  N   UNL     1      10.694  16.903  17.997  0.00  0.00    +0.000 N 
ATOM     18  H   UNL     1      11.975  14.955  18.766  0.00  0.00    +0.000 HD
ATOM     19  H   UNL     1      11.010  15.110  15.485  0.00  0.00    +0.000 HD
ATOM     20  H   UNL     1      10.835  16.934  18.989  0.00  0.00    +0.000 HD
ATOM     21  H   UNL     1      10.096  17.601  17.568  0.00  0.00    +0.000 HD
ENDBRANCH  13  14
ENDBRANCH  12  13
ENDBRANCH  11  12
ENDBRANCH   6  11
ENDBRANCH   2   6
ENDBRANCH   1   3
BRANCH   1  22
ATOM     22  N   UNL     1       8.486   7.129  19.159  0.00  0.00    +0.000 NA
ATOM     23  H   UNL     1       7.854   7.414  19.907  0.00  0.00    +0.000 HD
ATOM     24  H   UNL     1       9.406   6.995  19.568  0.00  0.00    +0.000 HD
ENDBRANCH   1  22
BRANCH   1  25
ATOM     25  C   UNL     1       7.177   8.241  17.374  0.00  0.00    +0.000 C 
BRANCH  25  26
ATOM     26  C   UNL     1       6.568   6.895  17.203  0.00  0.00    +0.000 A 
ATOM     27  C   UNL     1       6.754   5.991  16.183  0.00  0.00    +0.000 A 
ATOM     28  N   UNL     1       5.878   4.976  16.441  0.00  0.00    +0.000 N 
ATOM     29  C   UNL     1       5.210   5.284  17.607  0.00  0.00    +0.000 A 
ATOM     30  N   UNL     1       5.651   6.418  18.105  0.00  0.00    +0.000 NA
ATOM     31  H   UNL     1       5.717   4.173  15.854  0.00  0.00    +0.000 HD
BRANCH  29  32
ATOM     32  C   UNL     1       4.108   4.428  18.169  0.00  0.00    +0.000 C 
ATOM     33  C   UNL     1       3.498   3.533  17.066  0.00  0.00    +0.000 C 
ATOM     34  C   UNL     1       2.364   2.666  17.639  0.00  0.00    +0.000 C 
ATOM     35  C   UNL     1       2.923   1.774  18.758  0.00  0.00    +0.000 C 
ATOM     36  C   UNL     1       3.512   2.643  19.880  0.00  0.00    +0.000 C 
ATOM     37  C   UNL     1       2.417   3.561  20.447  0.00  0.00    +0.000 C 
ATOM     38  C   UNL     1       1.855   4.459  19.335  0.00  0.00    +0.000 C 
ATOM     39  C   UNL     1       1.270   3.578  18.218  0.00  0.00    +0.000 C 
ATOM     40  C   UNL     1       2.988   5.322  18.758  0.00  0.00    +0.000 C 
ATOM     41  C   UNL     1       4.641   3.509  19.303  0.00  0.00    +0.000 C 
ENDBRANCH  29  32
ENDBRANCH  25  26
ENDBRANCH   1  25
TORSDOF 12
ENDMDL
MODEL 3
REMARK VINA RESULT:      -7.3      6.639     10.725
REMARK  Name = 
REMARK  13 active torsions:
REMARK  status: ('A' for Active; 'I' for Inactive)
REMARK    1  A    between atoms: C_1  and  O_2
REMARK    2  A    between atoms: O_2  and  C_3
REMARK    3  A    between atoms: C_3  and  C_5
REMARK    4  A    between atoms: C_5  and  C_6
REMARK    5  A    between atoms: C_5  and  N_13
REMARK    6  A    between atoms: C_6  and  C_7
REMARK    7  A    between atoms: C_7  and  C_8
REMARK    8  A    between atoms: C_8  and  N_9
REMARK    9  A    between atoms: C_14  and  C_16
REMARK   10  A    between atoms: C_16  and  N_17
REMARK   11  A    between atoms: C_16  and  C_18
REMARK   12  A    between atoms: C_18  and  C_19
REMARK   13  A    between atoms: C_22  and  C_23
REMARK                            x       y       z     vdW  Elec       q    Type
REMARK                         _______ _______ _______ _____ _____    ______ ____
ROOT
ATOM      1  C   UNL     1       7.171   6.060  19.608  0.00  0.00    +0.000 C 
ENDROOT
BRANCH   1   3
ATOM      2  N   UNL     1       4.715   5.729  19.765  0.00  0.00    +0.000 N 
ATOM      3  C   UNL     1       5.912   5.227  19.304  0.00  0.00    +0.000 C 
ATOM      4  O   UNL     1       5.966   4.129  18.736  0.00  0.00    +0.000 OA
ATOM      5  H   UNL     1       4.705   6.564  20.342  0.00  0.00    +0.000 HD
BRANCH   2   6
ATOM      6  C   UNL     1       3.452   5.033  19.480  0.00  0.00    +0.000 C 
BRANCH   6   7
ATOM      7  C   UNL     1       2.674   5.724  18.342  0.00  0.00    +0.000 C 
ATOM      8  O   UNL     1       2.228   5.132  17.357  0.00  0.00    +0.000 OA
BRANCH   7  10
ATOM      9  C   UNL     1       2.995   7.941  17.650  0.00  0.00    +0.000 C 
ATOM     10  O   UNL     1       2.442   7.040  18.614  0.00  0.00    +0.000 OA
ENDBRANCH   7  10
ENDBRANCH   6   7
BRANCH   6  11
ATOM     11  C   UNL     1       2.597   4.906  20.760  0.00  0.00    +0.000 C 
BRANCH  11  12
ATOM     12  C   UNL     1       1.497   3.832  20.637  0.00  0.00    +0.000 C 
BRANCH  12  13
ATOM     13  C   UNL     1       2.077   2.428  20.793  0.00  0.00    +0.000 C 
BRANCH  13  14
ATOM     14  N   UNL     1       2.467   1.818  19.532  0.00  0.00    +0.000 N 
ATOM     15  C   UNL     1       3.752   1.533  19.207  0.00  0.00    +0.000 C 
ATOM     16  N   UNL     1       4.786   1.748  19.929  0.00  0.00    +0.000 NA
ATOM     17  N   UNL     1       3.950   0.986  17.996  0.00  0.00    +0.000 N 
ATOM     18  H   UNL     1       1.736   1.581  18.875  0.00  0.00    +0.000 HD
ATOM     19  H   UNL     1       4.499   2.184  20.805  0.00  0.00    +0.000 HD
ATOM     20  H   UNL     1       3.223   0.678  17.379  0.00  0.00    +0.000 HD
ATOM     21  H   UNL     1       4.906   0.717  17.794  0.00  0.00    +0.000 HD
ENDBRANCH  13  14
ENDBRANCH  12  13
ENDBRANCH  11  12
ENDBRANCH   6  11
ENDBRANCH   2   6
ENDBRANCH   1   3
BRANCH   1  22
ATOM     22  N   UNL     1       8.124   5.269  20.430  0.00  0.00    +0.000 NA
ATOM     23  H   UNL     1       8.725   5.904  20.955  0.00  0.00    +0.000 HD
ATOM     24  H   UNL     1       8.722   4.698  19.840  0.00  0.00    +0.000 HD
ENDBRANCH   1  22
BRANCH   1  25
ATOM     25  C   UNL     1       7.835   6.478  18.287  0.00  0.00    +0.000 C 
BRANCH  25  26
ATOM     26  C   UNL     1       7.912   7.954  18.133  0.00  0.00    +0.000 A 
ATOM     27  C   UNL     1       7.174   8.773  17.310  0.00  0.00    +0.000 A 
ATOM     28  N   UNL     1       7.717  10.015  17.460  0.00  0.00    +0.000 N 
ATOM     29  C   UNL     1       8.743   9.918  18.375  0.00  0.00    +0.000 A 
ATOM     30  N   UNL     1       8.842   8.687  18.827  0.00  0.00    +0.000 NA
ATOM     31  H   UNL     1       7.446  10.844  16.953  0.00  0.00    +0.000 HD
BRANCH  29  32
ATOM     32  C   UNL     1       9.627  11.079  18.742  0.00  0.00    +0.000 C 
ATOM     33  C   UNL     1      10.955  11.023  17.952  0.00  0.00    +0.000 C 
ATOM     34  C   UNL     1      11.862  12.205  18.336  0.00  0.00    +0.000 C 
ATOM     35  C   UNL     1      11.141  13.523  18.014  0.00  0.00    +0.000 C 
ATOM     36  C   UNL     1       9.829  13.614  18.808  0.00  0.00    +0.000 C 
ATOM     37  C   UNL     1      10.134  13.543  20.313  0.00  0.00    +0.000 C 
ATOM     38  C   UNL     1      10.852  12.226  20.645  0.00  0.00    +0.000 C 
ATOM     39  C   UNL     1      12.162  12.146  19.842  0.00  0.00    +0.000 C 
ATOM     40  C   UNL     1       9.948  11.045  20.257  0.00  0.00    +0.000 C 
ATOM     41  C   UNL     1       8.928  12.431  18.425  0.00  0.00    +0.000 C 
ENDBRANCH  29  32
ENDBRANCH  25  26
ENDBRANCH   1  25
TORSDOF 12
ENDMDL
MODEL 4
REMARK VINA RESULT:      -7.3      4.780     10.366
REMARK  Name = 
REMARK  13 active torsions:
REMARK  status: ('A' for Active; 'I' for Inactive)
REMARK    1  A    between atoms: C_1  and  O_2
REMARK    2  A    between atoms: O_2  and  C_3
REMARK    3  A    between atoms: C_3  and  C_5
REMARK    4  A    between atoms: C_5  and  C_6
REMARK    5  A    between atoms: C_5  and  N_13
REMARK    6  A    between atoms: C_6  and  C_7
REMARK    7  A    between atoms: C_7  and  C_8
REMARK    8  A    between atoms: C_8  and  N_9
REMARK    9  A    between atoms: C_14  and  C_16
REMARK   10  A    between atoms: C_16  and  N_17
REMARK   11  A    between atoms: C_16  and  C_18
REMARK   12  A    between atoms: C_18  and  C_19
REMARK   13  A    between atoms: C_22  and  C_23
REMARK                            x       y       z     vdW  Elec       q    Type
REMARK                         _______ _______ _______ _____ _____    ______ ____
ROOT
ATOM      1  C   UNL     1       2.898   5.685  18.306  0.00  0.00    +0.000 C 
ENDROOT
BRANCH   1   3
ATOM      2  N   UNL     1       5.157   5.646  17.275  0.00  0.00    +0.000 N 
ATOM      3  C   UNL     1       4.384   5.284  18.356  0.00  0.00    +0.000 C 
ATOM      4  O   UNL     1       4.858   4.613  19.282  0.00  0.00    +0.000 OA
ATOM      5  H   UNL     1       4.724   6.081  16.466  0.00  0.00    +0.000 HD
BRANCH   2   6
ATOM      6  C   UNL     1       6.598   5.355  17.253  0.00  0.00    +0.000 C 
BRANCH   6   7
ATOM      7  C   UNL     1       7.411   6.490  17.907  0.00  0.00    +0.000 C 
ATOM      8  O   UNL     1       8.042   6.365  18.958  0.00  0.00    +0.000 OA
BRANCH   7  10
ATOM      9  C   UNL     1       7.974   8.763  17.778  0.00  0.00    +0.000 C 
ATOM     10  O   UNL     1       7.439   7.607  17.124  0.00  0.00    +0.000 OA
ENDBRANCH   7  10
ENDBRANCH   6   7
BRANCH   6  11
ATOM     11  C   UNL     1       7.075   5.067  15.813  0.00  0.00    +0.000 C 
BRANCH  11  12
ATOM     12  C   UNL     1       6.020   4.319  14.973  0.00  0.00    +0.000 C 
BRANCH  12  13
ATOM     13  C   UNL     1       6.323   4.431  13.480  0.00  0.00    +0.000 C 
BRANCH  13  14
ATOM     14  N   UNL     1       6.454   3.144  12.817  0.00  0.00    +0.000 N 
ATOM     15  C   UNL     1       5.536   2.655  11.948  0.00  0.00    +0.000 C 
ATOM     16  N   UNL     1       4.449   3.226  11.587  0.00  0.00    +0.000 NA
ATOM     17  N   UNL     1       5.795   1.442  11.432  0.00  0.00    +0.000 N 
ATOM     18  H   UNL     1       7.284   2.597  13.005  0.00  0.00    +0.000 HD
ATOM     19  H   UNL     1       4.365   4.122  12.067  0.00  0.00    +0.000 HD
ATOM     20  H   UNL     1       6.651   0.936  11.554  0.00  0.00    +0.000 HD
ATOM     21  H   UNL     1       5.135   1.120  10.733  0.00  0.00    +0.000 HD
ENDBRANCH  13  14
ENDBRANCH  12  13
ENDBRANCH  11  12
ENDBRANCH   6  11
ENDBRANCH   2   6
ENDBRANCH   1   3
BRANCH   1  22
ATOM     22  N   UNL     1       2.036   4.480  18.425  0.00  0.00    +0.000 NA
ATOM     23  H   UNL     1       1.170   4.729  18.901  0.00  0.00    +0.000 HD
ATOM     24  H   UNL     1       2.495   3.761  18.978  0.00  0.00    +0.000 HD
ENDBRANCH   1  22
BRANCH   1  25
ATOM     25  C   UNL     1       2.596   6.664  19.451  0.00  0.00    +0.000 C 
BRANCH  25  26
ATOM     26  C   UNL     1       2.060   7.962  18.961  0.00  0.00    +0.000 A 
ATOM     27  C   UNL     1       2.257   8.569  17.743  0.00  0.00    +0.000 A 
ATOM     28  N   UNL     1       1.653   9.787  17.848  0.00  0.00    +0.000 N 
ATOM     29  C   UNL     1       1.097   9.873  19.107  0.00  0.00    +0.000 A 
ATOM     30  N   UNL     1       1.293   8.757  19.774  0.00  0.00    +0.000 NA
ATOM     31  H   UNL     1       1.658  10.512  17.147  0.00  0.00    +0.000 HD
BRANCH  29  32
ATOM     32  C   UNL     1       0.406  11.110  19.615  0.00  0.00    +0.000 C 
ATOM     33  C   UNL     1      -0.232  10.848  20.997  0.00  0.00    +0.000 C 
ATOM     34  C   UNL     1      -0.947  12.109  21.511  0.00  0.00    +0.000 C 
ATOM     35  C   UNL     1       0.071  13.253  21.636  0.00  0.00    +0.000 C 
ATOM     36  C   UNL     1       0.701  13.551  20.267  0.00  0.00    +0.000 C 
ATOM     37  C   UNL     1      -0.401  13.943  19.270  0.00  0.00    +0.000 C 
ATOM     38  C   UNL     1      -1.422  12.803  19.136  0.00  0.00    +0.000 C 
ATOM     39  C   UNL     1      -2.043  12.513  20.512  0.00  0.00    +0.000 C 
ATOM     40  C   UNL     1      -0.708  11.540  18.627  0.00  0.00    +0.000 C 
ATOM     41  C   UNL     1       1.410  12.289  19.756  0.00  0.00    +0.000 C 
ENDBRANCH  29  32
ENDBRANCH  25  26
ENDBRANCH   1  25
TORSDOF 12
ENDMDL
MODEL 5
REMARK VINA RESULT:      -7.3      5.904      9.696
REMARK  Name = 
REMARK  13 active torsions:
REMARK  status: ('A' for Active; 'I' for Inactive)
REMARK    1  A    between atoms: C_1  and  O_2
REMARK    2  A    between atoms: O_2  and  C_3
REMARK    3  A    between atoms: C_3  and  C_5
REMARK    4  A    between atoms: C_5  and  C_6
REMARK    5  A    between atoms: C_5  and  N_13
REMARK    6  A    between atoms: C_6  and  C_7
REMARK    7  A    between atoms: C_7  and  C_8
REMARK    8  A    between atoms: C_8  and  N_9
REMARK    9  A    between atoms: C_14  and  C_16
REMARK   10  A    between atoms: C_16  and  N_17
REMARK   11  A    between atoms: C_16  and  C_18
REMARK   12  A    between atoms: C_18  and  C_19
REMARK   13  A    between atoms: C_22  and  C_23
REMARK                            x       y       z     vdW  Elec       q    Type
REMARK                         _______ _______ _______ _____ _____    ______ ____
ROOT
ATOM      1  C   UNL     1       5.851   5.592  17.325  0.00  0.00    +0.000 C 
ENDROOT
BRANCH   1   3
ATOM      2  N   UNL     1       3.897   6.742  18.338  0.00  0.00    +0.000 N 
ATOM      3  C   UNL     1       4.331   5.701  17.547  0.00  0.00    +0.000 C 
ATOM      4  O   UNL     1       3.535   4.866  17.099  0.00  0.00    +0.000 OA
ATOM      5  H   UNL     1       4.573   7.340  18.803  0.00  0.00    +0.000 HD
BRANCH   2   6
ATOM      6  C   UNL     1       2.462   6.961  18.566  0.00  0.00    +0.000 C 
BRANCH   6   7
ATOM      7  C   UNL     1       2.064   8.424  18.283  0.00  0.00    +0.000 C 
ATOM      8  O   UNL     1       2.246   8.987  17.202  0.00  0.00    +0.000 OA
BRANCH   7  10
ATOM      9  C   UNL     1       0.655  10.159  18.993  0.00  0.00    +0.000 C 
ATOM     10  O   UNL     1       1.387   8.975  19.331  0.00  0.00    +0.000 OA
ENDBRANCH   7  10
ENDBRANCH   6   7
BRANCH   6  11
ATOM     11  C   UNL     1       2.062   6.527  19.994  0.00  0.00    +0.000 C 
BRANCH  11  12
ATOM     12  C   UNL     1       2.843   5.290  20.481  0.00  0.00    +0.000 C 
BRANCH  12  13
ATOM     13  C   UNL     1       1.905   4.110  20.732  0.00  0.00    +0.000 C 
BRANCH  13  14
ATOM     14  N   UNL     1       2.325   2.885  20.071  0.00  0.00    +0.000 N 
ATOM     15  C   UNL     1       1.978   2.567  18.799  0.00  0.00    +0.000 C 
ATOM     16  N   UNL     1       1.254   3.267  18.010  0.00  0.00    +0.000 NA
ATOM     17  N   UNL     1       2.432   1.390  18.338  0.00  0.00    +0.000 N 
ATOM     18  H   UNL     1       2.920   2.250  20.585  0.00  0.00    +0.000 HD
ATOM     19  H   UNL     1       0.959   4.117  18.489  0.00  0.00    +0.000 HD
ATOM     20  H   UNL     1       3.085   0.799  18.815  0.00  0.00    +0.000 HD
ATOM     21  H   UNL     1       2.221   1.198  17.365  0.00  0.00    +0.000 HD
ENDBRANCH  13  14
ENDBRANCH  12  13
ENDBRANCH  11  12
ENDBRANCH   6  11
ENDBRANCH   2   6
ENDBRANCH   1   3
BRANCH   1  22
ATOM     22  N   UNL     1       6.159   4.436  16.443  0.00  0.00    +0.000 NA
ATOM     23  H   UNL     1       5.924   3.570  16.927  0.00  0.00    +0.000 HD
ATOM     24  H   UNL     1       7.151   4.404  16.222  0.00  0.00    +0.000 HD
ENDBRANCH   1  22
BRANCH   1  25
ATOM     25  C   UNL     1       6.368   6.892  16.690  0.00  0.00    +0.000 C 
BRANCH  25  26
ATOM     26  C   UNL     1       7.396   7.563  17.528  0.00  0.00    +0.000 A 
ATOM     27  C   UNL     1       8.065   7.074  18.626  0.00  0.00    +0.000 A 
ATOM     28  N   UNL     1       8.801   8.123  19.093  0.00  0.00    +0.000 N 
ATOM     29  C   UNL     1       8.575   9.199  18.262  0.00  0.00    +0.000 A 
ATOM     30  N   UNL     1       7.765   8.862  17.282  0.00  0.00    +0.000 NA
ATOM     31  H   UNL     1       9.368   8.121  19.927  0.00  0.00    +0.000 HD
BRANCH  29  32
ATOM     32  C   UNL     1       9.164  10.562  18.508  0.00  0.00    +0.000 C 
ATOM     33  C   UNL     1       9.313  10.825  20.023  0.00  0.00    +0.000 C 
ATOM     34  C   UNL     1       9.905  12.222  20.274  0.00  0.00    +0.000 C 
ATOM     35  C   UNL     1      11.288  12.313  19.609  0.00  0.00    +0.000 C 
ATOM     36  C   UNL     1      11.161  12.081  18.096  0.00  0.00    +0.000 C 
ATOM     37  C   UNL     1      10.224  13.138  17.491  0.00  0.00    +0.000 C 
ATOM     38  C   UNL     1       8.838  13.052  18.147  0.00  0.00    +0.000 C 
ATOM     39  C   UNL     1       8.978  13.284  19.661  0.00  0.00    +0.000 C 
ATOM     40  C   UNL     1       8.247  11.654  17.902  0.00  0.00    +0.000 C 
ATOM     41  C   UNL     1      10.567  10.687  17.850  0.00  0.00    +0.000 C 
ENDBRANCH  29  32
ENDBRANCH  25  26
ENDBRANCH   1  25
TORSDOF 12
ENDMDL
MODEL 6
REMARK VINA RESULT:      -7.3      6.001      9.373
REMARK  Name = 
REMARK  13 active torsions:
REMARK  status: ('A' for Active; 'I' for Inactive)
REMARK    1  A    between atoms: C_1  and  O_2
REMARK    2  A    between atoms: O_2  and  C_3
REMARK    3  A    between atoms: C_3  and  C_5
REMARK    4  A    between atoms: C_5  and  C_6
REMARK    5  A    between atoms: C_5  and  N_13
REMARK    6  A    between atoms: C_6  and  C_7
REMARK    7  A    between atoms: C_7  and  C_8
REMARK    8  A    between atoms: C_8  and  N_9
REMARK    9  A    between atoms: C_14  and  C_16
REMARK   10  A    between atoms: C_16  and  N_17
REMARK   11  A    between atoms: C_16  and  C_18
REMARK   12  A    between atoms: C_18  and  C_19
REMARK   13  A    between atoms: C_22  and  C_23
REMARK                            x       y       z     vdW  Elec       q    Type
REMARK                         _______ _______ _______ _____ _____    ______ ____
ROOT
ATOM      1  C   UNL     1       6.278   5.366  17.132  0.00  0.00    +0.000 C 
ENDROOT
BRANCH   1   3
ATOM      2  N   UNL     1       4.027   5.682  18.133  0.00  0.00    +0.000 N 
ATOM      3  C   UNL     1       5.251   5.058  18.238  0.00  0.00    +0.000 C 
ATOM      4  O   UNL     1       5.520   4.343  19.211  0.00  0.00    +0.000 OA
ATOM      5  H   UNL     1       3.868   6.366  17.400  0.00  0.00    +0.000 HD
BRANCH   2   6
ATOM      6  C   UNL     1       2.962   5.410  19.110  0.00  0.00    +0.000 C 
BRANCH   6   7
ATOM      7  C   UNL     1       2.013   4.301  18.615  0.00  0.00    +0.000 C 
ATOM      8  O   UNL     1       1.507   4.281  17.491  0.00  0.00    +0.000 OA
BRANCH   7  10
ATOM      9  C   UNL     1       2.455   2.048  19.092  0.00  0.00    +0.000 C 
ATOM     10  O   UNL     1       1.896   3.292  19.525  0.00  0.00    +0.000 OA
ENDBRANCH   7  10
ENDBRANCH   6   7
BRANCH   6  11
ATOM     11  C   UNL     1       2.195   6.706  19.456  0.00  0.00    +0.000 C 
BRANCH  11  12
ATOM     12  C   UNL     1       2.421   7.826  18.421  0.00  0.00    +0.000 C 
BRANCH  12  13
ATOM     13  C   UNL     1       1.649   9.089  18.799  0.00  0.00    +0.000 C 
BRANCH  13  14
ATOM     14  N   UNL     1       0.610   9.442  17.845  0.00  0.00    +0.000 N 
ATOM     15  C   UNL     1      -0.458  10.215  18.157  0.00  0.00    +0.000 C 
ATOM     16  N   UNL     1      -0.715  10.736  19.297  0.00  0.00    +0.000 NA
ATOM     17  N   UNL     1      -1.339  10.436  17.167  0.00  0.00    +0.000 N 
ATOM     18  H   UNL     1       0.706   9.105  16.896  0.00  0.00    +0.000 HD
ATOM     19  H   UNL     1       0.015  10.473  19.958  0.00  0.00    +0.000 HD
ATOM     20  H   UNL     1      -1.207  10.171  16.210  0.00  0.00    +0.000 HD
ATOM     21  H   UNL     1      -2.096  11.070  17.396  0.00  0.00    +0.000 HD
ENDBRANCH  13  14
ENDBRANCH  12  13
ENDBRANCH  11  12
ENDBRANCH   6  11
ENDBRANCH   2   6
ENDBRANCH   1   3
BRANCH   1  22
ATOM     22  N   UNL     1       5.930   4.630  15.889  0.00  0.00    +0.000 NA
ATOM     23  H   UNL     1       6.655   3.941  15.690  0.00  0.00    +0.000 HD
ATOM     24  H   UNL     1       5.882   5.263  15.095  0.00  0.00    +0.000 HD
ENDBRANCH   1  22
BRANCH   1  25
ATOM     25  C   UNL     1       6.296   6.878  16.862  0.00  0.00    +0.000 C 
BRANCH  25  26
ATOM     26  C   UNL     1       7.363   7.578  17.624  0.00  0.00    +0.000 A 
ATOM     27  C   UNL     1       8.118   7.111  18.675  0.00  0.00    +0.000 A 
ATOM     28  N   UNL     1       8.859   8.179  19.087  0.00  0.00    +0.000 N 
ATOM     29  C   UNL     1       8.550   9.245  18.271  0.00  0.00    +0.000 A 
ATOM     30  N   UNL     1       7.683   8.885  17.350  0.00  0.00    +0.000 NA
ATOM     31  H   UNL     1       9.483   8.195  19.880  0.00  0.00    +0.000 HD
BRANCH  29  32
ATOM     32  C   UNL     1       9.121  10.623  18.471  0.00  0.00    +0.000 C 
ATOM     33  C   UNL     1       8.214  11.689  17.814  0.00  0.00    +0.000 C 
ATOM     34  C   UNL     1       8.803  13.095  18.010  0.00  0.00    +0.000 C 
ATOM     35  C   UNL     1       8.920  13.392  19.513  0.00  0.00    +0.000 C 
ATOM     36  C   UNL     1       9.840  12.360  20.184  0.00  0.00    +0.000 C 
ATOM     37  C   UNL     1      11.232  12.414  19.534  0.00  0.00    +0.000 C 
ATOM     38  C   UNL     1      11.125  12.115  18.031  0.00  0.00    +0.000 C 
ATOM     39  C   UNL     1      10.201  13.153  17.372  0.00  0.00    +0.000 C 
ATOM     40  C   UNL     1      10.531  10.711  17.835  0.00  0.00    +0.000 C 
ATOM     41  C   UNL     1       9.249  10.957  19.983  0.00  0.00    +0.000 C 
ENDBRANCH  29  32
ENDBRANCH  25  26
ENDBRANCH   1  25
TORSDOF 12
ENDMDL
MODEL 7
REMARK VINA RESULT:      -7.2      7.189      8.900
REMARK  Name = 
REMARK  13 active torsions:
REMARK  status: ('A' for Active; 'I' for Inactive)
REMARK    1  A    between atoms: C_1  and  O_2
REMARK    2  A    between atoms: O_2  and  C_3
REMARK    3  A    between atoms: C_3  and  C_5
REMARK    4  A    between atoms: C_5  and  C_6
REMARK    5  A    between atoms: C_5  and  N_13
REMARK    6  A    between atoms: C_6  and  C_7
REMARK    7  A    between atoms: C_7  and  C_8
REMARK    8  A    between atoms: C_8  and  N_9
REMARK    9  A    between atoms: C_14  and  C_16
REMARK   10  A    between atoms: C_16  and  N_17
REMARK   11  A    between atoms: C_16  and  C_18
REMARK   12  A    between atoms: C_18  and  C_19
REMARK   13  A    between atoms: C_22  and  C_23
REMARK                            x       y       z     vdW  Elec       q    Type
REMARK                         _______ _______ _______ _____ _____    ______ ____
ROOT
ATOM      1  C   UNL     1       7.817   8.162  18.097  0.00  0.00    +0.000 C 
ENDROOT
BRANCH   1   3
ATOM      2  N   UNL     1       8.635  10.477  17.721  0.00  0.00    +0.000 N 
ATOM      3  C   UNL     1       8.626   9.387  18.563  0.00  0.00    +0.000 C 
ATOM      4  O   UNL     1       9.293   9.382  19.605  0.00  0.00    +0.000 OA
ATOM      5  H   UNL     1       8.189  10.416  16.810  0.00  0.00    +0.000 HD
BRANCH   2   6
ATOM      6  C   UNL     1       9.335  11.712  18.102  0.00  0.00    +0.000 C 
BRANCH   6   7
ATOM      7  C   UNL     1       8.566  12.963  17.631  0.00  0.00    +0.000 C 
ATOM      8  O   UNL     1       7.446  12.927  17.118  0.00  0.00    +0.000 OA
BRANCH   7  10
ATOM      9  C   UNL     1       8.360  15.197  18.313  0.00  0.00    +0.000 C 
ATOM     10  O   UNL     1       9.224  14.113  17.955  0.00  0.00    +0.000 OA
ENDBRANCH   7  10
ENDBRANCH   6   7
BRANCH   6  11
ATOM     11  C   UNL     1      10.787  11.702  17.574  0.00  0.00    +0.000 C 
BRANCH  11  12
ATOM     12  C   UNL     1      11.827  11.921  18.691  0.00  0.00    +0.000 C 
BRANCH  12  13
ATOM     13  C   UNL     1      11.152  12.045  20.056  0.00  0.00    +0.000 C 
BRANCH  13  14
ATOM     14  N   UNL     1      11.023  13.419  20.516  0.00  0.00    +0.000 N 
ATOM     15  C   UNL     1      10.049  13.834  21.361  0.00  0.00    +0.000 C 
ATOM     16  N   UNL     1       9.122  13.112  21.869  0.00  0.00    +0.000 NA
ATOM     17  N   UNL     1      10.055  15.140  21.678  0.00  0.00    +0.000 N 
ATOM     18  H   UNL     1      11.710  14.090  20.198  0.00  0.00    +0.000 HD
ATOM     19  H   UNL     1       9.219  12.155  21.531  0.00  0.00    +0.000 HD
ATOM     20  H   UNL     1      10.778  15.788  21.430  0.00  0.00    +0.000 HD
ATOM     21  H   UNL     1       9.363  15.421  22.363  0.00  0.00    +0.000 HD
ENDBRANCH  13  14
ENDBRANCH  12  13
ENDBRANCH  11  12
ENDBRANCH   6  11
ENDBRANCH   2   6
ENDBRANCH   1   3
BRANCH   1  22
ATOM     22  N   UNL     1       8.070   7.898  16.657  0.00  0.00    +0.000 NA
ATOM     23  H   UNL     1       7.338   8.338  16.099  0.00  0.00    +0.000 HD
ATOM     24  H   UNL     1       8.046   6.901  16.462  0.00  0.00    +0.000 HD
ENDBRANCH   1  22
BRANCH   1  25
ATOM     25  C   UNL     1       8.218   6.939  18.936  0.00  0.00    +0.000 C 
BRANCH  25  26
ATOM     26  C   UNL     1       7.377   5.749  18.641  0.00  0.00    +0.000 A 
ATOM     27  C   UNL     1       7.667   4.666  17.844  0.00  0.00    +0.000 A 
ATOM     28  N   UNL     1       6.522   3.925  17.815  0.00  0.00    +0.000 N 
ATOM     29  C   UNL     1       5.589   4.563  18.603  0.00  0.00    +0.000 A 
ATOM     30  N   UNL     1       6.106   5.642  19.149  0.00  0.00    +0.000 NA
ATOM     31  H   UNL     1       6.374   3.088  17.272  0.00  0.00    +0.000 HD
BRANCH  29  32
ATOM     32  C   UNL     1       4.173   4.075  18.755  0.00  0.00    +0.000 C 
ATOM     33  C   UNL     1       4.064   3.081  19.933  0.00  0.00    +0.000 C 
ATOM     34  C   UNL     1       2.619   2.575  20.080  0.00  0.00    +0.000 C 
ATOM     35  C   UNL     1       1.687   3.768  20.342  0.00  0.00    +0.000 C 
ATOM     36  C   UNL     1       1.759   4.760  19.170  0.00  0.00    +0.000 C 
ATOM     37  C   UNL     1       1.342   4.051  17.872  0.00  0.00    +0.000 C 
ATOM     38  C   UNL     1       2.271   2.858  17.600  0.00  0.00    +0.000 C 
ATOM     39  C   UNL     1       2.191   1.874  18.780  0.00  0.00    +0.000 C 
ATOM     40  C   UNL     1       3.716   3.362  17.458  0.00  0.00    +0.000 C 
ATOM     41  C   UNL     1       3.203   5.260  19.024  0.00  0.00    +0.000 C 
ENDBRANCH  29  32
ENDBRANCH  25  26
ENDBRANCH   1  25
TORSDOF 12
ENDMDL
MODEL 8
REMARK VINA RESULT:      -7.2      5.844      9.916
REMARK  Name = 
REMARK  13 active torsions:
REMARK  status: ('A' for Active; 'I' for Inactive)
REMARK    1  A    between atoms: C_1  and  O_2
REMARK    2  A    between atoms: O_2  and  C_3
REMARK    3  A    between atoms: C_3  and  C_5
REMARK    4  A    between atoms: C_5  and  C_6
REMARK    5  A    between atoms: C_5  and  N_13
REMARK    6  A    between atoms: C_6  and  C_7
REMARK    7  A    between atoms: C_7  and  C_8
REMARK    8  A    between atoms: C_8  and  N_9
REMARK    9  A    between atoms: C_14  and  C_16
REMARK   10  A    between atoms: C_16  and  N_17
REMARK   11  A    between atoms: C_16  and  C_18
REMARK   12  A    between atoms: C_18  and  C_19
REMARK   13  A    between atoms: C_22  and  C_23
REMARK                            x       y       z     vdW  Elec       q    Type
REMARK                         _______ _______ _______ _____ _____    ______ ____
ROOT
ATOM      1  C   UNL     1       5.796   5.677  17.964  0.00  0.00    +0.000 C 
ENDROOT
BRANCH   1   3
ATOM      2  N   UNL     1       3.668   5.758  19.242  0.00  0.00    +0.000 N 
ATOM      3  C   UNL     1       4.271   5.888  18.010  0.00  0.00    +0.000 C 
ATOM      4  O   UNL     1       3.601   6.097  16.991  0.00  0.00    +0.000 OA
ATOM      5  H   UNL     1       4.213   5.458  20.044  0.00  0.00    +0.000 HD
BRANCH   2   6
ATOM      6  C   UNL     1       2.225   5.993  19.397  0.00  0.00    +0.000 C 
BRANCH   6   7
ATOM      7  C   UNL     1       1.939   7.419  19.907  0.00  0.00    +0.000 C 
ATOM      8  O   UNL     1       1.733   7.697  21.090  0.00  0.00    +0.000 OA
BRANCH   7  10
ATOM      9  C   UNL     1       1.182   9.470  19.057  0.00  0.00    +0.000 C 
ATOM     10  O   UNL     1       2.055   8.345  18.912  0.00  0.00    +0.000 OA
ENDBRANCH   7  10
ENDBRANCH   6   7
BRANCH   6  11
ATOM     11  C   UNL     1       1.592   4.921  20.312  0.00  0.00    +0.000 C 
BRANCH  11  12
ATOM     12  C   UNL     1       2.590   4.354  21.342  0.00  0.00    +0.000 C 
BRANCH  12  13
ATOM     13  C   UNL     1       2.734   2.840  21.192  0.00  0.00    +0.000 C 
BRANCH  13  14
ATOM     14  N   UNL     1       2.257   2.336  19.914  0.00  0.00    +0.000 N 
ATOM     15  C   UNL     1       3.062   2.143  18.841  0.00  0.00    +0.000 C 
ATOM     16  N   UNL     1       4.320   2.365  18.782  0.00  0.00    +0.000 NA
ATOM     17  N   UNL     1       2.465   1.687  17.727  0.00  0.00    +0.000 N 
ATOM     18  H   UNL     1       1.276   2.103  19.834  0.00  0.00    +0.000 HD
ATOM     19  H   UNL     1       4.639   2.728  19.680  0.00  0.00    +0.000 HD
ATOM     20  H   UNL     1       1.513   1.381  17.669  0.00  0.00    +0.000 HD
ATOM     21  H   UNL     1       3.089   1.484  16.954  0.00  0.00    +0.000 HD
ENDBRANCH  13  14
ENDBRANCH  12  13
ENDBRANCH  11  12
ENDBRANCH   6  11
ENDBRANCH   2   6
ENDBRANCH   1   3
BRANCH   1  22
ATOM     22  N   UNL     1       6.111   4.323  17.439  0.00  0.00    +0.000 NA
ATOM     23  H   UNL     1       6.499   3.751  18.189  0.00  0.00    +0.000 HD
ATOM     24  H   UNL     1       6.807   4.375  16.700  0.00  0.00    +0.000 HD
ENDBRANCH   1  22
BRANCH   1  25
ATOM     25  C   UNL     1       6.432   6.751  17.069  0.00  0.00    +0.000 C 
BRANCH  25  26
ATOM     26  C   UNL     1       7.484   7.529  17.776  0.00  0.00    +0.000 A 
ATOM     27  C   UNL     1       8.298   7.131  18.810  0.00  0.00    +0.000 A 
ATOM     28  N   UNL     1       8.992   8.250  19.169  0.00  0.00    +0.000 N 
ATOM     29  C   UNL     1       8.597   9.275  18.337  0.00  0.00    +0.000 A 
ATOM     30  N   UNL     1       7.720   8.842  17.457  0.00  0.00    +0.000 NA
ATOM     31  H   UNL     1       9.641   8.321  19.938  0.00  0.00    +0.000 HD
BRANCH  29  32
ATOM     32  C   UNL     1       9.097  10.687  18.482  0.00  0.00    +0.000 C 
ATOM     33  C   UNL     1       8.186  11.668  17.710  0.00  0.00    +0.000 C 
ATOM     34  C   UNL     1       8.704  13.110  17.850  0.00  0.00    +0.000 C 
ATOM     35  C   UNL     1       8.720  13.501  19.336  0.00  0.00    +0.000 C 
ATOM     36  C   UNL     1       9.642  12.554  20.120  0.00  0.00    +0.000 C 
ATOM     37  C   UNL     1      11.066  12.633  19.547  0.00  0.00    +0.000 C 
ATOM     38  C   UNL     1      11.059  12.239  18.062  0.00  0.00    +0.000 C 
ATOM     39  C   UNL     1      10.133  13.192  17.289  0.00  0.00    +0.000 C 
ATOM     40  C   UNL     1      10.537  10.800  17.921  0.00  0.00    +0.000 C 
ATOM     41  C   UNL     1       9.123  11.117  19.975  0.00  0.00    +0.000 C 
ENDBRANCH  29  32
ENDBRANCH  25  26
ENDBRANCH   1  25
TORSDOF 12
ENDMDL
MODEL 9
REMARK VINA RESULT:      -7.2      3.712     10.021
REMARK  Name = 
REMARK  13 active torsions:
REMARK  status: ('A' for Active; 'I' for Inactive)
REMARK    1  A    between atoms: C_1  and  O_2
REMARK    2  A    between atoms: O_2  and  C_3
REMARK    3  A    between atoms: C_3  and  C_5
REMARK    4  A    between atoms: C_5  and  C_6
REMARK    5  A    between atoms: C_5  and  N_13
REMARK    6  A    between atoms: C_6  and  C_7
REMARK    7  A    between atoms: C_7  and  C_8
REMARK    8  A    between atoms: C_8  and  N_9
REMARK    9  A    between atoms: C_14  and  C_16
REMARK   10  A    between atoms: C_16  and  N_17
REMARK   11  A    between atoms: C_16  and  C_18
REMARK   12  A    between atoms: C_18  and  C_19
REMARK   13  A    between atoms: C_22  and  C_23
REMARK                            x       y       z     vdW  Elec       q    Type
REMARK                         _______ _______ _______ _____ _____    ______ ____
ROOT
ATOM      1  C   UNL     1       2.179   7.032  19.349  0.00  0.00    +0.000 C 
ENDROOT
BRANCH   1   3
ATOM      2  N   UNL     1       3.609   5.793  17.741  0.00  0.00    +0.000 N 
ATOM      3  C   UNL     1       3.327   6.045  19.066  0.00  0.00    +0.000 C 
ATOM      4  O   UNL     1       3.927   5.450  19.970  0.00  0.00    +0.000 OA
ATOM      5  H   UNL     1       3.022   6.189  17.014  0.00  0.00    +0.000 HD
BRANCH   2   6
ATOM      6  C   UNL     1       4.721   4.906  17.369  0.00  0.00    +0.000 C 
BRANCH   6   7
ATOM      7  C   UNL     1       5.407   5.378  16.072  0.00  0.00    +0.000 C 
ATOM      8  O   UNL     1       5.267   6.505  15.592  0.00  0.00    +0.000 OA
BRANCH   7  10
ATOM      9  C   UNL     1       6.539   4.563  14.187  0.00  0.00    +0.000 C 
ATOM     10  O   UNL     1       6.273   4.442  15.588  0.00  0.00    +0.000 OA
ENDBRANCH   7  10
ENDBRANCH   6   7
BRANCH   6  11
ATOM     11  C   UNL     1       4.239   3.442  17.259  0.00  0.00    +0.000 C 
BRANCH  11  12
ATOM     12  C   UNL     1       2.703   3.325  17.185  0.00  0.00    +0.000 C 
BRANCH  12  13
ATOM     13  C   UNL     1       2.177   2.320  18.208  0.00  0.00    +0.000 C 
BRANCH  13  14
ATOM     14  N   UNL     1       2.616   2.593  19.567  0.00  0.00    +0.000 N 
ATOM     15  C   UNL     1       1.774   2.963  20.563  0.00  0.00    +0.000 C 
ATOM     16  N   UNL     1       0.508   3.126  20.469  0.00  0.00    +0.000 NA
ATOM     17  N   UNL     1       2.337   3.196  21.760  0.00  0.00    +0.000 N 
ATOM     18  H   UNL     1       3.599   2.482  19.778  0.00  0.00    +0.000 HD
ATOM     19  H   UNL     1       0.216   2.941  19.509  0.00  0.00    +0.000 HD
ATOM     20  H   UNL     1       3.294   3.010  21.991  0.00  0.00    +0.000 HD
ATOM     21  H   UNL     1       1.687   3.405  22.509  0.00  0.00    +0.000 HD
ENDBRANCH  13  14
ENDBRANCH  12  13
ENDBRANCH  11  12
ENDBRANCH   6  11
ENDBRANCH   2   6
ENDBRANCH   1   3
BRANCH   1  22
ATOM     22  N   UNL     1       2.094   7.316  20.806  0.00  0.00    +0.000 NA
ATOM     23  H   UNL     1       1.544   6.588  21.260  0.00  0.00    +0.000 HD
ATOM     24  H   UNL     1       1.629   8.203  20.975  0.00  0.00    +0.000 HD
ENDBRANCH   1  22
BRANCH   1  25
ATOM     25  C   UNL     1       2.424   8.334  18.572  0.00  0.00    +0.000 C 
BRANCH  25  26
ATOM     26  C   UNL     1       1.256   9.253  18.621  0.00  0.00    +0.000 A 
ATOM     27  C   UNL     1       0.415   9.629  17.600  0.00  0.00    +0.000 A 
ATOM     28  N   UNL     1      -0.407  10.574  18.143  0.00  0.00    +0.000 N 
ATOM     29  C   UNL     1      -0.055  10.725  19.467  0.00  0.00    +0.000 A 
ATOM     30  N   UNL     1       0.917   9.898  19.783  0.00  0.00    +0.000 NA
ATOM     31  H   UNL     1      -1.110  11.100  17.647  0.00  0.00    +0.000 HD
BRANCH  29  32
ATOM     32  C   UNL     1      -0.698  11.740  20.374  0.00  0.00    +0.000 C 
ATOM     33  C   UNL     1       0.091  13.068  20.348  0.00  0.00    +0.000 C 
ATOM     34  C   UNL     1      -0.560  14.101  21.284  0.00  0.00    +0.000 C 
ATOM     35  C   UNL     1      -2.002  14.364  20.824  0.00  0.00    +0.000 C 
ATOM     36  C   UNL     1      -2.815  13.061  20.866  0.00  0.00    +0.000 C 
ATOM     37  C   UNL     1      -2.820  12.505  22.299  0.00  0.00    +0.000 C 
ATOM     38  C   UNL     1      -1.381  12.236  22.766  0.00  0.00    +0.000 C 
ATOM     39  C   UNL     1      -0.578  13.547  22.718  0.00  0.00    +0.000 C 
ATOM     40  C   UNL     1      -0.728  11.208  21.829  0.00  0.00    +0.000 C 
ATOM     41  C   UNL     1      -2.160  12.032  19.934  0.00  0.00    +0.000 C 
ENDBRANCH  29  32
ENDBRANCH  25  26
ENDBRANCH   1  25
TORSDOF 12
ENDMDL
