MODEL 1
REMARK VINA RESULT:      -7.7      0.000      0.000
REMARK  Name = 
REMARK  1 active torsions:
REMARK  status: ('A' for Active; 'I' for Inactive)
REMARK    1  A    between atoms: C_4  and  C_5
REMARK                            x       y       z     vdW  Elec       q    Type
REMARK                         _______ _______ _______ _____ _____    ______ ____
ROOT
ATOM      1  O   UNL     1       4.241   6.077  19.238  0.00  0.00    +0.000 OA
ATOM      2  C   UNL     1       3.933   5.010  18.749  0.00  0.00    +0.000 C 
ATOM      3  C   UNL     1       4.649   4.229  17.686  0.00  0.00    +0.000 C 
ATOM      4  C   UNL     1       5.850   4.510  17.155  0.00  0.00    +0.000 C 
ATOM      5  C   UNL     1       3.788   3.029  17.340  0.00  0.00    +0.000 C 
ATOM      6  C   UNL     1       2.648   3.112  18.308  0.00  0.00    +0.000 A 
ATOM      7  C   UNL     1       1.587   2.232  18.474  0.00  0.00    +0.000 A 
ATOM      8  C   UNL     1       0.636   2.516  19.462  0.00  0.00    +0.000 A 
ATOM      9  C   UNL     1       0.744   3.666  20.265  0.00  0.00    +0.000 A 
ATOM     10  C   UNL     1       1.807   4.552  20.086  0.00  0.00    +0.000 A 
ATOM     11  C   UNL     1       2.735   4.247  19.108  0.00  0.00    +0.000 A 
ENDROOT
BRANCH   4  12
ATOM     12  C   UNL     1       6.679   5.656  17.534  0.00  0.00    +0.000 A 
ATOM     13  C   UNL     1       7.574   5.564  18.609  0.00  0.00    +0.000 A 
ATOM     14  C   UNL     1       8.300   6.686  19.017  0.00  0.00    +0.000 A 
ATOM     15  C   UNL     1       8.142   7.896  18.343  0.00  0.00    +0.000 A 
ATOM     16 CL   UNL     1       9.004   9.289  18.872  0.00  0.00    +0.000 Cl
ATOM     17  C   UNL     1       7.281   7.988  17.252  0.00  0.00    +0.000 A 
ATOM     18  C   UNL     1       6.550   6.869  16.847  0.00  0.00    +0.000 A 
ENDBRANCH   4  12
TORSDOF 1
ENDMDL
MODEL 2
REMARK VINA RESULT:      -7.5      0.173      1.152
REMARK  Name = 
REMARK  1 active torsions:
REMARK  status: ('A' for Active; 'I' for Inactive)
REMARK    1  A    between atoms: C_4  and  C_5
REMARK                            x       y       z     vdW  Elec       q    Type
REMARK                         _______ _______ _______ _____ _____    ______ ____
ROOT
ATOM      1  O   UNL     1       4.091   6.089  19.295  0.00  0.00    +0.000 OA
ATOM      2  C   UNL     1       3.851   5.019  18.774  0.00  0.00    +0.000 C 
ATOM      3  C   UNL     1       4.632   4.304  17.709  0.00  0.00    +0.000 C 
ATOM      4  C   UNL     1       5.827   4.662  17.214  0.00  0.00    +0.000 C 
ATOM      5  C   UNL     1       3.844   3.069  17.315  0.00  0.00    +0.000 C 
ATOM      6  C   UNL     1       2.680   3.067  18.258  0.00  0.00    +0.000 A 
ATOM      7  C   UNL     1       1.664   2.128  18.379  0.00  0.00    +0.000 A 
ATOM      8  C   UNL     1       0.678   2.336  19.351  0.00  0.00    +0.000 A 
ATOM      9  C   UNL     1       0.707   3.470  20.184  0.00  0.00    +0.000 A 
ATOM     10  C   UNL     1       1.725   4.415  20.051  0.00  0.00    +0.000 A 
ATOM     11  C   UNL     1       2.689   4.185  19.087  0.00  0.00    +0.000 A 
ENDROOT
BRANCH   4  12
ATOM     12  C   UNL     1       6.585   5.841  17.638  0.00  0.00    +0.000 A 
ATOM     13  C   UNL     1       6.403   7.073  16.997  0.00  0.00    +0.000 A 
ATOM     14  C   UNL     1       7.191   8.172  17.350  0.00  0.00    +0.000 A 
ATOM     15  C   UNL     1       8.150   8.044  18.353  0.00  0.00    +0.000 A 
ATOM     16 CL   UNL     1       9.149   9.385  18.760  0.00  0.00    +0.000 Cl
ATOM     17  C   UNL     1       8.314   6.832  19.020  0.00  0.00    +0.000 A 
ATOM     18  C   UNL     1       7.532   5.730  18.663  0.00  0.00    +0.000 A 
ENDBRANCH   4  12
TORSDOF 1
ENDMDL
MODEL 3
REMARK VINA RESULT:      -7.4      3.573      6.312
REMARK  Name = 
REMARK  1 active torsions:
REMARK  status: ('A' for Active; 'I' for Inactive)
REMARK    1  A    between atoms: C_4  and  C_5
REMARK                            x       y       z     vdW  Elec       q    Type
REMARK                         _______ _______ _______ _____ _____    ______ ____
ROOT
ATOM      1  O   UNL     1       3.927   3.688  16.298  0.00  0.00    +0.000 OA
ATOM      2  C   UNL     1       5.009   4.190  16.074  0.00  0.00    +0.000 C 
ATOM      3  C   UNL     1       5.919   4.912  17.025  0.00  0.00    +0.000 C 
ATOM      4  C   UNL     1       5.758   5.033  18.352  0.00  0.00    +0.000 C 
ATOM      5  C   UNL     1       7.086   5.453  16.222  0.00  0.00    +0.000 C 
ATOM      6  C   UNL     1       6.853   4.920  14.842  0.00  0.00    +0.000 A 
ATOM      7  C   UNL     1       7.647   5.061  13.712  0.00  0.00    +0.000 A 
ATOM      8  C   UNL     1       7.224   4.459  12.521  0.00  0.00    +0.000 A 
ATOM      9  C   UNL     1       6.021   3.732  12.463  0.00  0.00    +0.000 A 
ATOM     10  C   UNL     1       5.222   3.601  13.599  0.00  0.00    +0.000 A 
ATOM     11  C   UNL     1       5.663   4.201  14.763  0.00  0.00    +0.000 A 
ENDROOT
BRANCH   4  12
ATOM     12  C   UNL     1       4.639   4.469  19.111  0.00  0.00    +0.000 A 
ATOM     13  C   UNL     1       3.566   5.280  19.505  0.00  0.00    +0.000 A 
ATOM     14  C   UNL     1       2.544   4.755  20.301  0.00  0.00    +0.000 A 
ATOM     15  C   UNL     1       2.587   3.417  20.690  0.00  0.00    +0.000 A 
ATOM     16 CL   UNL     1       1.351   2.781  21.705  0.00  0.00    +0.000 Cl
ATOM     17  C   UNL     1       3.632   2.595  20.275  0.00  0.00    +0.000 A 
ATOM     18  C   UNL     1       4.658   3.121  19.485  0.00  0.00    +0.000 A 
ENDBRANCH   4  12
TORSDOF 1
ENDMDL
MODEL 4
REMARK VINA RESULT:      -7.4      3.552      6.203
REMARK  Name = 
REMARK  1 active torsions:
REMARK  status: ('A' for Active; 'I' for Inactive)
REMARK    1  A    between atoms: C_4  and  C_5
REMARK                            x       y       z     vdW  Elec       q    Type
REMARK                         _______ _______ _______ _____ _____    ______ ____
ROOT
ATOM      1  O   UNL     1       3.973   3.768  16.356  0.00  0.00    +0.000 OA
ATOM      2  C   UNL     1       5.055   4.252  16.098  0.00  0.00    +0.000 C 
ATOM      3  C   UNL     1       5.994   4.983  17.015  0.00  0.00    +0.000 C 
ATOM      4  C   UNL     1       5.863   5.134  18.342  0.00  0.00    +0.000 C 
ATOM      5  C   UNL     1       7.149   5.493  16.176  0.00  0.00    +0.000 C 
ATOM      6  C   UNL     1       6.880   4.934  14.812  0.00  0.00    +0.000 A 
ATOM      7  C   UNL     1       7.651   5.043  13.663  0.00  0.00    +0.000 A 
ATOM      8  C   UNL     1       7.196   4.421  12.494  0.00  0.00    +0.000 A 
ATOM      9  C   UNL     1       5.983   3.707  12.477  0.00  0.00    +0.000 A 
ATOM     10  C   UNL     1       5.207   3.609  13.632  0.00  0.00    +0.000 A 
ATOM     11  C   UNL     1       5.681   4.229  14.774  0.00  0.00    +0.000 A 
ENDROOT
BRANCH   4  12
ATOM     12  C   UNL     1       4.754   4.599  19.136  0.00  0.00    +0.000 A 
ATOM     13  C   UNL     1       4.729   3.247  19.504  0.00  0.00    +0.000 A 
ATOM     14  C   UNL     1       3.628   2.725  20.188  0.00  0.00    +0.000 A 
ATOM     15  C   UNL     1       2.559   3.557  20.516  0.00  0.00    +0.000 A 
ATOM     16 CL   UNL     1       1.183   2.906  21.322  0.00  0.00    +0.000 Cl
ATOM     17  C   UNL     1       2.590   4.910  20.185  0.00  0.00    +0.000 A 
ATOM     18  C   UNL     1       3.687   5.431  19.494  0.00  0.00    +0.000 A 
ENDBRANCH   4  12
TORSDOF 1
ENDMDL
MODEL 5
REMARK VINA RESULT:      -7.2      4.602      6.260
REMARK  Name = 
REMARK  1 active torsions:
REMARK  status: ('A' for Active; 'I' for Inactive)
REMARK    1  A    between atoms: C_4  and  C_5
REMARK                            x       y       z     vdW  Elec       q    Type
REMARK                         _______ _______ _______ _____ _____    ______ ____
ROOT
ATOM      1  O   UNL     1       1.677   6.626  20.875  0.00  0.00    +0.000 OA
ATOM      2  C   UNL     1       1.509   7.696  20.327  0.00  0.00    +0.000 C 
ATOM      3  C   UNL     1       1.917   8.109  18.942  0.00  0.00    +0.000 C 
ATOM      4  C   UNL     1       2.443   7.321  17.992  0.00  0.00    +0.000 C 
ATOM      5  C   UNL     1       1.590   9.582  18.788  0.00  0.00    +0.000 C 
ATOM      6  C   UNL     1       0.899   9.934  20.070  0.00  0.00    +0.000 A 
ATOM      7  C   UNL     1       0.335  11.146  20.447  0.00  0.00    +0.000 A 
ATOM      8  C   UNL     1      -0.272  11.235  21.705  0.00  0.00    +0.000 A 
ATOM      9  C   UNL     1      -0.308  10.129  22.574  0.00  0.00    +0.000 A 
ATOM     10  C   UNL     1       0.269   8.916  22.194  0.00  0.00    +0.000 A 
ATOM     11  C   UNL     1       0.858   8.853  20.945  0.00  0.00    +0.000 A 
ENDROOT
BRANCH   4  12
ATOM     12  C   UNL     1       2.715   5.891  18.153  0.00  0.00    +0.000 A 
ATOM     13  C   UNL     1       3.975   5.450  18.582  0.00  0.00    +0.000 A 
ATOM     14  C   UNL     1       4.254   4.082  18.652  0.00  0.00    +0.000 A 
ATOM     15  C   UNL     1       3.272   3.156  18.307  0.00  0.00    +0.000 A 
ATOM     16 CL   UNL     1       3.629   1.472  18.353  0.00  0.00    +0.000 Cl
ATOM     17  C   UNL     1       2.006   3.584  17.912  0.00  0.00    +0.000 A 
ATOM     18  C   UNL     1       1.728   4.951  17.835  0.00  0.00    +0.000 A 
ENDBRANCH   4  12
TORSDOF 1
ENDMDL
MODEL 6
REMARK VINA RESULT:      -7.1      4.646      6.318
REMARK  Name = 
REMARK  1 active torsions:
REMARK  status: ('A' for Active; 'I' for Inactive)
REMARK    1  A    between atoms: C_4  and  C_5
REMARK                            x       y       z     vdW  Elec       q    Type
REMARK                         _______ _______ _______ _____ _____    ______ ____
ROOT
ATOM      1  O   UNL     1       1.684   6.728  20.926  0.00  0.00    +0.000 OA
ATOM      2  C   UNL     1       1.463   7.808  20.419  0.00  0.00    +0.000 C 
ATOM      3  C   UNL     1       1.842   8.291  19.049  0.00  0.00    +0.000 C 
ATOM      4  C   UNL     1       2.398   7.564  18.067  0.00  0.00    +0.000 C 
ATOM      5  C   UNL     1       1.445   9.752  18.952  0.00  0.00    +0.000 C 
ATOM      6  C   UNL     1       0.747  10.023  20.249  0.00  0.00    +0.000 A 
ATOM      7  C   UNL     1       0.129  11.192  20.673  0.00  0.00    +0.000 A 
ATOM      8  C   UNL     1      -0.473  11.206  21.937  0.00  0.00    +0.000 A 
ATOM      9  C   UNL     1      -0.451  10.068  22.764  0.00  0.00    +0.000 A 
ATOM     10  C   UNL     1       0.179   8.899  22.337  0.00  0.00    +0.000 A 
ATOM     11  C   UNL     1       0.763   8.910  21.084  0.00  0.00    +0.000 A 
ENDROOT
BRANCH   4  12
ATOM     12  C   UNL     1       2.738   6.143  18.174  0.00  0.00    +0.000 A 
ATOM     13  C   UNL     1       1.790   5.159  17.867  0.00  0.00    +0.000 A 
ATOM     14  C   UNL     1       2.094   3.807  18.052  0.00  0.00    +0.000 A 
ATOM     15  C   UNL     1       3.350   3.439  18.531  0.00  0.00    +0.000 A 
ATOM     16 CL   UNL     1       3.711   1.777  18.799  0.00  0.00    +0.000 Cl
ATOM     17  C   UNL     1       4.311   4.409  18.806  0.00  0.00    +0.000 A 
ATOM     18  C   UNL     1       4.006   5.761  18.629  0.00  0.00    +0.000 A 
ENDBRANCH   4  12
TORSDOF 1
ENDMDL
MODEL 7
REMARK VINA RESULT:      -6.8      3.119      4.238
REMARK  Name = 
REMARK  1 active torsions:
REMARK  status: ('A' for Active; 'I' for Inactive)
REMARK    1  A    between atoms: C_4  and  C_5
REMARK                            x       y       z     vdW  Elec       q    Type
REMARK                         _______ _______ _______ _____ _____    ______ ____
ROOT
ATOM      1  O   UNL     1       3.749   7.119  16.771  0.00  0.00    +0.000 OA
ATOM      2  C   UNL     1       3.401   6.820  17.895  0.00  0.00    +0.000 C 
ATOM      3  C   UNL     1       3.765   5.600  18.690  0.00  0.00    +0.000 C 
ATOM      4  C   UNL     1       4.655   4.656  18.349  0.00  0.00    +0.000 C 
ATOM      5  C   UNL     1       2.970   5.641  19.981  0.00  0.00    +0.000 C 
ATOM      6  C   UNL     1       2.254   6.956  19.923  0.00  0.00    +0.000 A 
ATOM      7  C   UNL     1       1.425   7.534  20.874  0.00  0.00    +0.000 A 
ATOM      8  C   UNL     1       0.870   8.790  20.599  0.00  0.00    +0.000 A 
ATOM      9  C   UNL     1       1.138   9.451  19.386  0.00  0.00    +0.000 A 
ATOM     10  C   UNL     1       1.964   8.861  18.430  0.00  0.00    +0.000 A 
ATOM     11  C   UNL     1       2.503   7.623  18.727  0.00  0.00    +0.000 A 
ENDROOT
BRANCH   4  12
ATOM     12  C   UNL     1       5.438   4.658  17.111  0.00  0.00    +0.000 A 
ATOM     13  C   UNL     1       6.693   5.280  17.063  0.00  0.00    +0.000 A 
ATOM     14  C   UNL     1       7.396   5.352  15.857  0.00  0.00    +0.000 A 
ATOM     15  C   UNL     1       6.852   4.791  14.703  0.00  0.00    +0.000 A 
ATOM     16 CL   UNL     1       7.698   4.916  13.209  0.00  0.00    +0.000 Cl
ATOM     17  C   UNL     1       5.621   4.140  14.749  0.00  0.00    +0.000 A 
ATOM     18  C   UNL     1       4.914   4.074  15.952  0.00  0.00    +0.000 A 
ENDBRANCH   4  12
TORSDOF 1
ENDMDL
MODEL 8
REMARK VINA RESULT:      -6.8      2.821      3.832
REMARK  Name = 
REMARK  1 active torsions:
REMARK  status: ('A' for Active; 'I' for Inactive)
REMARK    1  A    between atoms: C_4  and  C_5
REMARK                            x       y       z     vdW  Elec       q    Type
REMARK                         _______ _______ _______ _____ _____    ______ ____
ROOT
ATOM      1  O   UNL     1       4.083   6.690  16.806  0.00  0.00    +0.000 OA
ATOM      2  C   UNL     1       3.654   6.087  17.767  0.00  0.00    +0.000 C 
ATOM      3  C   UNL     1       3.867   4.648  18.137  0.00  0.00    +0.000 C 
ATOM      4  C   UNL     1       4.685   3.775  17.528  0.00  0.00    +0.000 C 
ATOM      5  C   UNL     1       3.016   4.358  19.358  0.00  0.00    +0.000 C 
ATOM      6  C   UNL     1       2.425   5.688  19.711  0.00  0.00    +0.000 A 
ATOM      7  C   UNL     1       1.605   6.016  20.782  0.00  0.00    +0.000 A 
ATOM      8  C   UNL     1       1.179   7.344  20.913  0.00  0.00    +0.000 A 
ATOM      9  C   UNL     1       1.565   8.324  19.981  0.00  0.00    +0.000 A 
ATOM     10  C   UNL     1       2.381   7.987  18.901  0.00  0.00    +0.000 A 
ATOM     11  C   UNL     1       2.791   6.671  18.797  0.00  0.00    +0.000 A 
ENDROOT
BRANCH   4  12
ATOM     12  C   UNL     1       5.525   4.091  16.370  0.00  0.00    +0.000 A 
ATOM     13  C   UNL     1       6.792   4.664  16.545  0.00  0.00    +0.000 A 
ATOM     14  C   UNL     1       7.553   5.040  15.434  0.00  0.00    +0.000 A 
ATOM     15  C   UNL     1       7.054   4.831  14.150  0.00  0.00    +0.000 A 
ATOM     16 CL   UNL     1       7.972   5.332  12.783  0.00  0.00    +0.000 Cl
ATOM     17  C   UNL     1       5.811   4.231  13.966  0.00  0.00    +0.000 A 
ATOM     18  C   UNL     1       5.046   3.861  15.075  0.00  0.00    +0.000 A 
ENDBRANCH   4  12
TORSDOF 1
ENDMDL
MODEL 9
REMARK VINA RESULT:      -6.8      3.439      4.697
REMARK  Name = 
REMARK  1 active torsions:
REMARK  status: ('A' for Active; 'I' for Inactive)
REMARK    1  A    between atoms: C_4  and  C_5
REMARK                            x       y       z     vdW  Elec       q    Type
REMARK                         _______ _______ _______ _____ _____    ______ ____
ROOT
ATOM      1  O   UNL     1       3.116   7.662  17.537  0.00  0.00    +0.000 OA
ATOM      2  C   UNL     1       2.640   7.486  18.639  0.00  0.00    +0.000 C 
ATOM      3  C   UNL     1       2.836   6.321  19.566  0.00  0.00    +0.000 C 
ATOM      4  C   UNL     1       3.685   5.295  19.396  0.00  0.00    +0.000 C 
ATOM      5  C   UNL     1       1.926   6.528  20.761  0.00  0.00    +0.000 C 
ATOM      6  C   UNL     1       1.316   7.875  20.522  0.00  0.00    +0.000 A 
ATOM      7  C   UNL     1       0.443   8.588  21.333  0.00  0.00    +0.000 A 
ATOM      8  C   UNL     1       0.009   9.847  20.899  0.00  0.00    +0.000 A 
ATOM      9  C   UNL     1       0.440  10.379  19.670  0.00  0.00    +0.000 A 
ATOM     10  C   UNL     1       1.309   9.654  18.855  0.00  0.00    +0.000 A 
ATOM     11  C   UNL     1       1.726   8.416  19.307  0.00  0.00    +0.000 A 
ENDROOT
BRANCH   4  12
ATOM     12  C   UNL     1       4.582   5.137  18.249  0.00  0.00    +0.000 A 
ATOM     13  C   UNL     1       5.849   5.735  18.248  0.00  0.00    +0.000 A 
ATOM     14  C   UNL     1       6.665   5.651  17.116  0.00  0.00    +0.000 A 
ATOM     15  C   UNL     1       6.221   4.959  15.992  0.00  0.00    +0.000 A 
ATOM     16 CL   UNL     1       7.207   4.891  14.583  0.00  0.00    +0.000 Cl
ATOM     17  C   UNL     1       4.977   4.332  15.996  0.00  0.00    +0.000 A 
ATOM     18  C   UNL     1       4.157   4.422  17.124  0.00  0.00    +0.000 A 
ENDBRANCH   4  12
TORSDOF 1
ENDMDL
