MODEL 1
REMARK VINA RESULT:      -8.0      0.000      0.000
REMARK  Name = 
REMARK  7 active torsions:
REMARK  status: ('A' for Active; 'I' for Inactive)
REMARK    1  A    between atoms: C_1  and  C_2
REMARK    2  A    between atoms: C_2  and  O_3
REMARK    3  A    between atoms: O_3  and  C_4
REMARK    4  A    between atoms: C_4  and  C_6
REMARK    5  A    between atoms: C_6  and  O_7
REMARK    6  A    between atoms: O_7  and  C_8
REMARK    7  A    between atoms: C_17  and  C_18
REMARK                            x       y       z     vdW  Elec       q    Type
REMARK                         _______ _______ _______ _____ _____    ______ ____
ROOT
ATOM      1  C   UNL     1       5.234   4.642  18.535  0.00  0.00    +0.000 A 
ATOM      2  C   UNL     1       6.074   5.443  19.313  0.00  0.00    +0.000 A 
ATOM      3  C   UNL     1       7.154   6.093  18.724  0.00  0.00    +0.000 A 
ATOM      4  C   UNL     1       7.400   5.939  17.363  0.00  0.00    +0.000 A 
ATOM      5  C   UNL     1       6.579   5.126  16.551  0.00  0.00    +0.000 A 
ATOM      6  C   UNL     1       5.483   4.468  17.149  0.00  0.00    +0.000 A 
ATOM      7  C   UNL     1       4.665   3.658  16.333  0.00  0.00    +0.000 A 
ATOM      8  C   UNL     1       4.917   3.493  14.964  0.00  0.00    +0.000 A 
ATOM      9  C   UNL     1       5.993   4.132  14.349  0.00  0.00    +0.000 A 
ATOM     10  C   UNL     1       6.311   4.006  12.917  0.00  0.00    +0.000 A 
ATOM     11  C   UNL     1       5.494   3.174  11.970  0.00  0.00    +0.000 C 
ATOM     12  C   UNL     1       7.379   4.668  12.441  0.00  0.00    +0.000 A 
ATOM     13  C   UNL     1       8.246   5.513  13.267  0.00  0.00    +0.000 A 
ATOM     14  O   UNL     1       9.209   6.095  12.778  0.00  0.00    +0.000 OA
ATOM     15  O   UNL     1       7.917   5.616  14.604  0.00  0.00    +0.000 OA
ATOM     16  C   UNL     1       6.803   4.939  15.163  0.00  0.00    +0.000 A 
ENDROOT
BRANCH   1  17
ATOM     17  O   UNL     1       4.166   3.952  19.054  0.00  0.00    +0.000 OA
BRANCH  17  18
ATOM     18  C   UNL     1       2.959   4.682  19.240  0.00  0.00    +0.000 C 
BRANCH  18  19
ATOM     19  C   UNL     1       1.816   3.934  18.578  0.00  0.00    +0.000 C 
ATOM     20  O   UNL     1       1.404   4.110  17.439  0.00  0.00    +0.000 OA
BRANCH  19  21
ATOM     21  O   UNL     1       1.240   3.105  19.500  0.00  0.00    +0.000 OA
BRANCH  21  23
ATOM     22  C   UNL     1       1.543   2.515  21.790  0.00  0.00    +0.000 C 
ATOM     23  C   UNL     1       1.184   3.636  20.830  0.00  0.00    +0.000 C 
ENDBRANCH  21  23
ENDBRANCH  19  21
ENDBRANCH  18  19
ENDBRANCH  17  18
ENDBRANCH   1  17
TORSDOF 5
ENDMDL
MODEL 2
REMARK VINA RESULT:      -7.9      1.334      2.071
REMARK  Name = 
REMARK  7 active torsions:
REMARK  status: ('A' for Active; 'I' for Inactive)
REMARK    1  A    between atoms: C_1  and  C_2
REMARK    2  A    between atoms: C_2  and  O_3
REMARK    3  A    between atoms: O_3  and  C_4
REMARK    4  A    between atoms: C_4  and  C_6
REMARK    5  A    between atoms: C_6  and  O_7
REMARK    6  A    between atoms: O_7  and  C_8
REMARK    7  A    between atoms: C_17  and  C_18
REMARK                            x       y       z     vdW  Elec       q    Type
REMARK                         _______ _______ _______ _____ _____    ______ ____
ROOT
ATOM      1  C   UNL     1       5.391   4.618  18.671  0.00  0.00    +0.000 A 
ATOM      2  C   UNL     1       6.259   5.423  19.415  0.00  0.00    +0.000 A 
ATOM      3  C   UNL     1       7.310   6.079  18.781  0.00  0.00    +0.000 A 
ATOM      4  C   UNL     1       7.501   5.927  17.411  0.00  0.00    +0.000 A 
ATOM      5  C   UNL     1       6.650   5.110  16.633  0.00  0.00    +0.000 A 
ATOM      6  C   UNL     1       5.584   4.446  17.277  0.00  0.00    +0.000 A 
ATOM      7  C   UNL     1       4.737   3.633  16.494  0.00  0.00    +0.000 A 
ATOM      8  C   UNL     1       4.931   3.469  15.117  0.00  0.00    +0.000 A 
ATOM      9  C   UNL     1       5.978   4.114  14.458  0.00  0.00    +0.000 A 
ATOM     10  C   UNL     1       6.236   3.990  13.013  0.00  0.00    +0.000 A 
ATOM     11  C   UNL     1       5.384   3.154  12.101  0.00  0.00    +0.000 C 
ATOM     12  C   UNL     1       7.279   4.658  12.494  0.00  0.00    +0.000 A 
ATOM     13  C   UNL     1       8.177   5.507  13.283  0.00  0.00    +0.000 A 
ATOM     14  O   UNL     1       9.115   6.094  12.755  0.00  0.00    +0.000 OA
ATOM     15  O   UNL     1       7.903   5.608  14.633  0.00  0.00    +0.000 OA
ATOM     16  C   UNL     1       6.817   4.925  15.237  0.00  0.00    +0.000 A 
ENDROOT
BRANCH   1  17
ATOM     17  O   UNL     1       4.350   3.923  19.234  0.00  0.00    +0.000 OA
BRANCH  17  18
ATOM     18  C   UNL     1       3.377   4.684  19.941  0.00  0.00    +0.000 C 
BRANCH  18  19
ATOM     19  C   UNL     1       2.430   5.330  18.946  0.00  0.00    +0.000 C 
ATOM     20  O   UNL     1       1.793   4.750  18.077  0.00  0.00    +0.000 OA
BRANCH  19  21
ATOM     21  O   UNL     1       2.488   6.687  19.100  0.00  0.00    +0.000 OA
BRANCH  21  23
ATOM     22  C   UNL     1       2.171   8.716  17.890  0.00  0.00    +0.000 C 
ATOM     23  C   UNL     1       2.931   7.403  17.939  0.00  0.00    +0.000 C 
ENDBRANCH  21  23
ENDBRANCH  19  21
ENDBRANCH  18  19
ENDBRANCH  17  18
ENDBRANCH   1  17
TORSDOF 5
ENDMDL
MODEL 3
REMARK VINA RESULT:      -7.8      0.898      1.126
REMARK  Name = 
REMARK  7 active torsions:
REMARK  status: ('A' for Active; 'I' for Inactive)
REMARK    1  A    between atoms: C_1  and  C_2
REMARK    2  A    between atoms: C_2  and  O_3
REMARK    3  A    between atoms: O_3  and  C_4
REMARK    4  A    between atoms: C_4  and  C_6
REMARK    5  A    between atoms: C_6  and  O_7
REMARK    6  A    between atoms: O_7  and  C_8
REMARK    7  A    between atoms: C_17  and  C_18
REMARK                            x       y       z     vdW  Elec       q    Type
REMARK                         _______ _______ _______ _____ _____    ______ ____
ROOT
ATOM      1  C   UNL     1       5.504   4.633  18.687  0.00  0.00    +0.000 A 
ATOM      2  C   UNL     1       6.373   5.453  19.410  0.00  0.00    +0.000 A 
ATOM      3  C   UNL     1       7.403   6.121  18.755  0.00  0.00    +0.000 A 
ATOM      4  C   UNL     1       7.571   5.966  17.382  0.00  0.00    +0.000 A 
ATOM      5  C   UNL     1       6.718   5.133  16.624  0.00  0.00    +0.000 A 
ATOM      6  C   UNL     1       5.673   4.457  17.289  0.00  0.00    +0.000 A 
ATOM      7  C   UNL     1       4.824   3.627  16.526  0.00  0.00    +0.000 A 
ATOM      8  C   UNL     1       4.996   3.460  15.146  0.00  0.00    +0.000 A 
ATOM      9  C   UNL     1       6.021   4.117  14.465  0.00  0.00    +0.000 A 
ATOM     10  C   UNL     1       6.255   3.990  13.017  0.00  0.00    +0.000 A 
ATOM     11  C   UNL     1       5.398   3.138  12.124  0.00  0.00    +0.000 C 
ATOM     12  C   UNL     1       7.279   4.670  12.476  0.00  0.00    +0.000 A 
ATOM     13  C   UNL     1       8.178   5.536  13.244  0.00  0.00    +0.000 A 
ATOM     14  O   UNL     1       9.098   6.133  12.696  0.00  0.00    +0.000 OA
ATOM     15  O   UNL     1       7.927   5.639  14.598  0.00  0.00    +0.000 OA
ATOM     16  C   UNL     1       6.862   4.943  15.225  0.00  0.00    +0.000 A 
ENDROOT
BRANCH   1  17
ATOM     17  O   UNL     1       4.483   3.925  19.272  0.00  0.00    +0.000 OA
BRANCH  17  18
ATOM     18  C   UNL     1       3.546   4.668  20.043  0.00  0.00    +0.000 C 
BRANCH  18  19
ATOM     19  C   UNL     1       2.633   5.440  19.108  0.00  0.00    +0.000 C 
ATOM     20  O   UNL     1       2.639   6.651  18.931  0.00  0.00    +0.000 OA
BRANCH  19  21
ATOM     21  O   UNL     1       1.717   4.577  18.574  0.00  0.00    +0.000 OA
BRANCH  21  23
ATOM     22  C   UNL     1       0.905   2.352  18.850  0.00  0.00    +0.000 C 
ATOM     23  C   UNL     1       1.097   3.699  19.524  0.00  0.00    +0.000 C 
ENDBRANCH  21  23
ENDBRANCH  19  21
ENDBRANCH  18  19
ENDBRANCH  17  18
ENDBRANCH   1  17
TORSDOF 5
ENDMDL
MODEL 4
REMARK VINA RESULT:      -7.8      0.999      1.481
REMARK  Name = 
REMARK  7 active torsions:
REMARK  status: ('A' for Active; 'I' for Inactive)
REMARK    1  A    between atoms: C_1  and  C_2
REMARK    2  A    between atoms: C_2  and  O_3
REMARK    3  A    between atoms: O_3  and  C_4
REMARK    4  A    between atoms: C_4  and  C_6
REMARK    5  A    between atoms: C_6  and  O_7
REMARK    6  A    between atoms: O_7  and  C_8
REMARK    7  A    between atoms: C_17  and  C_18
REMARK                            x       y       z     vdW  Elec       q    Type
REMARK                         _______ _______ _______ _____ _____    ______ ____
ROOT
ATOM      1  C   UNL     1       5.155   4.381  18.434  0.00  0.00    +0.000 A 
ATOM      2  C   UNL     1       5.950   5.176  19.264  0.00  0.00    +0.000 A 
ATOM      3  C   UNL     1       7.024   5.880  18.728  0.00  0.00    +0.000 A 
ATOM      4  C   UNL     1       7.310   5.785  17.369  0.00  0.00    +0.000 A 
ATOM      5  C   UNL     1       6.535   4.978  16.506  0.00  0.00    +0.000 A 
ATOM      6  C   UNL     1       5.445   4.266  17.051  0.00  0.00    +0.000 A 
ATOM      7  C   UNL     1       4.673   3.464  16.183  0.00  0.00    +0.000 A 
ATOM      8  C   UNL     1       4.964   3.357  14.817  0.00  0.00    +0.000 A 
ATOM      9  C   UNL     1       6.037   4.050  14.255  0.00  0.00    +0.000 A 
ATOM     10  C   UNL     1       6.395   3.987  12.828  0.00  0.00    +0.000 A 
ATOM     11  C   UNL     1       5.628   3.168  11.830  0.00  0.00    +0.000 C 
ATOM     12  C   UNL     1       7.453   4.698  12.405  0.00  0.00    +0.000 A 
ATOM     13  C   UNL     1       8.274   5.537  13.284  0.00  0.00    +0.000 A 
ATOM     14  O   UNL     1       9.230   6.164  12.843  0.00  0.00    +0.000 OA
ATOM     15  O   UNL     1       7.907   5.580  14.615  0.00  0.00    +0.000 OA
ATOM     16  C   UNL     1       6.800   4.850  15.118  0.00  0.00    +0.000 A 
ENDROOT
BRANCH   1  17
ATOM     17  O   UNL     1       4.096   3.641  18.899  0.00  0.00    +0.000 OA
BRANCH  17  18
ATOM     18  C   UNL     1       4.293   2.933  20.118  0.00  0.00    +0.000 C 
BRANCH  18  19
ATOM     19  C   UNL     1       2.968   2.818  20.848  0.00  0.00    +0.000 C 
ATOM     20  O   UNL     1       2.807   2.409  21.990  0.00  0.00    +0.000 OA
BRANCH  19  21
ATOM     21  O   UNL     1       1.959   3.139  19.982  0.00  0.00    +0.000 OA
BRANCH  21  23
ATOM     22  C   UNL     1       1.680   5.416  20.630  0.00  0.00    +0.000 C 
ATOM     23  C   UNL     1       0.996   4.066  20.502  0.00  0.00    +0.000 C 
ENDBRANCH  21  23
ENDBRANCH  19  21
ENDBRANCH  18  19
ENDBRANCH  17  18
ENDBRANCH   1  17
TORSDOF 5
ENDMDL
MODEL 5
REMARK VINA RESULT:      -7.7      1.083      1.258
REMARK  Name = 
REMARK  7 active torsions:
REMARK  status: ('A' for Active; 'I' for Inactive)
REMARK    1  A    between atoms: C_1  and  C_2
REMARK    2  A    between atoms: C_2  and  O_3
REMARK    3  A    between atoms: O_3  and  C_4
REMARK    4  A    between atoms: C_4  and  C_6
REMARK    5  A    between atoms: C_6  and  O_7
REMARK    6  A    between atoms: O_7  and  C_8
REMARK    7  A    between atoms: C_17  and  C_18
REMARK                            x       y       z     vdW  Elec       q    Type
REMARK                         _______ _______ _______ _____ _____    ______ ____
ROOT
ATOM      1  C   UNL     1       5.277   4.795  18.622  0.00  0.00    +0.000 A 
ATOM      2  C   UNL     1       6.185   5.544  19.374  0.00  0.00    +0.000 A 
ATOM      3  C   UNL     1       7.288   6.124  18.754  0.00  0.00    +0.000 A 
ATOM      4  C   UNL     1       7.489   5.951  17.387  0.00  0.00    +0.000 A 
ATOM      5  C   UNL     1       6.597   5.188  16.601  0.00  0.00    +0.000 A 
ATOM      6  C   UNL     1       5.479   4.601  17.231  0.00  0.00    +0.000 A 
ATOM      7  C   UNL     1       4.590   3.842  16.440  0.00  0.00    +0.000 A 
ATOM      8  C   UNL     1       4.795   3.657  15.066  0.00  0.00    +0.000 A 
ATOM      9  C   UNL     1       5.893   4.225  14.421  0.00  0.00    +0.000 A 
ATOM     10  C   UNL     1       6.165   4.075  12.981  0.00  0.00    +0.000 A 
ATOM     11  C   UNL     1       5.272   3.292  12.060  0.00  0.00    +0.000 C 
ATOM     12  C   UNL     1       7.258   4.667  12.475  0.00  0.00    +0.000 A 
ATOM     13  C   UNL     1       8.199   5.459  13.273  0.00  0.00    +0.000 A 
ATOM     14  O   UNL     1       9.183   5.977  12.757  0.00  0.00    +0.000 OA
ATOM     15  O   UNL     1       7.911   5.587  14.618  0.00  0.00    +0.000 OA
ATOM     16  C   UNL     1       6.773   4.983  15.209  0.00  0.00    +0.000 A 
ENDROOT
BRANCH   1  17
ATOM     17  O   UNL     1       4.182   4.175  19.172  0.00  0.00    +0.000 OA
BRANCH  17  18
ATOM     18  C   UNL     1       4.409   2.932  19.826  0.00  0.00    +0.000 C 
BRANCH  18  19
ATOM     19  C   UNL     1       3.373   1.926  19.359  0.00  0.00    +0.000 C 
ATOM     20  O   UNL     1       3.470   1.190  18.387  0.00  0.00    +0.000 OA
BRANCH  19  21
ATOM     21  O   UNL     1       2.254   2.055  20.135  0.00  0.00    +0.000 OA
BRANCH  21  23
ATOM     22  C   UNL     1       0.920   4.018  20.357  0.00  0.00    +0.000 C 
ATOM     23  C   UNL     1       1.179   2.777  19.520  0.00  0.00    +0.000 C 
ENDBRANCH  21  23
ENDBRANCH  19  21
ENDBRANCH  18  19
ENDBRANCH  17  18
ENDBRANCH   1  17
TORSDOF 5
ENDMDL
MODEL 6
REMARK VINA RESULT:      -7.7      0.813      1.310
REMARK  Name = 
REMARK  7 active torsions:
REMARK  status: ('A' for Active; 'I' for Inactive)
REMARK    1  A    between atoms: C_1  and  C_2
REMARK    2  A    between atoms: C_2  and  O_3
REMARK    3  A    between atoms: O_3  and  C_4
REMARK    4  A    between atoms: C_4  and  C_6
REMARK    5  A    between atoms: C_6  and  O_7
REMARK    6  A    between atoms: O_7  and  C_8
REMARK    7  A    between atoms: C_17  and  C_18
REMARK                            x       y       z     vdW  Elec       q    Type
REMARK                         _______ _______ _______ _____ _____    ______ ____
ROOT
ATOM      1  C   UNL     1       5.377   4.757  18.686  0.00  0.00    +0.000 A 
ATOM      2  C   UNL     1       6.288   5.526  19.417  0.00  0.00    +0.000 A 
ATOM      3  C   UNL     1       7.365   6.124  18.772  0.00  0.00    +0.000 A 
ATOM      4  C   UNL     1       7.539   5.952  17.401  0.00  0.00    +0.000 A 
ATOM      5  C   UNL     1       6.645   5.170  16.636  0.00  0.00    +0.000 A 
ATOM      6  C   UNL     1       5.552   4.564  17.292  0.00  0.00    +0.000 A 
ATOM      7  C   UNL     1       4.662   3.785  16.523  0.00  0.00    +0.000 A 
ATOM      8  C   UNL     1       4.839   3.600  15.145  0.00  0.00    +0.000 A 
ATOM      9  C   UNL     1       5.912   4.188  14.474  0.00  0.00    +0.000 A 
ATOM     10  C   UNL     1       6.155   4.038  13.029  0.00  0.00    +0.000 A 
ATOM     11  C   UNL     1       5.257   3.237  12.130  0.00  0.00    +0.000 C 
ATOM     12  C   UNL     1       7.225   4.650  12.498  0.00  0.00    +0.000 A 
ATOM     13  C   UNL     1       8.168   5.462  13.273  0.00  0.00    +0.000 A 
ATOM     14  O   UNL     1       9.130   5.998  12.734  0.00  0.00    +0.000 OA
ATOM     15  O   UNL     1       7.908   5.588  14.624  0.00  0.00    +0.000 OA
ATOM     16  C   UNL     1       6.794   4.964  15.241  0.00  0.00    +0.000 A 
ENDROOT
BRANCH   1  17
ATOM     17  O   UNL     1       4.307   4.118  19.262  0.00  0.00    +0.000 OA
BRANCH  17  18
ATOM     18  C   UNL     1       3.413   4.921  20.025  0.00  0.00    +0.000 C 
BRANCH  18  19
ATOM     19  C   UNL     1       2.169   4.114  20.347  0.00  0.00    +0.000 C 
ATOM     20  O   UNL     1       1.910   3.586  21.420  0.00  0.00    +0.000 OA
BRANCH  19  21
ATOM     21  O   UNL     1       1.429   3.972  19.207  0.00  0.00    +0.000 OA
BRANCH  21  23
ATOM     22  C   UNL     1       2.060   1.863  18.292  0.00  0.00    +0.000 C 
ATOM     23  C   UNL     1       0.946   2.644  18.968  0.00  0.00    +0.000 C 
ENDBRANCH  21  23
ENDBRANCH  19  21
ENDBRANCH  18  19
ENDBRANCH  17  18
ENDBRANCH   1  17
TORSDOF 5
ENDMDL
MODEL 7
REMARK VINA RESULT:      -7.7      3.824      7.823
REMARK  Name = 
REMARK  7 active torsions:
REMARK  status: ('A' for Active; 'I' for Inactive)
REMARK    1  A    between atoms: C_1  and  C_2
REMARK    2  A    between atoms: C_2  and  O_3
REMARK    3  A    between atoms: O_3  and  C_4
REMARK    4  A    between atoms: C_4  and  C_6
REMARK    5  A    between atoms: C_6  and  O_7
REMARK    6  A    between atoms: O_7  and  C_8
REMARK    7  A    between atoms: C_17  and  C_18
REMARK                            x       y       z     vdW  Elec       q    Type
REMARK                         _______ _______ _______ _____ _____    ______ ____
ROOT
ATOM      1  C   UNL     1       3.608   5.460  18.102  0.00  0.00    +0.000 A 
ATOM      2  C   UNL     1       3.605   4.359  18.962  0.00  0.00    +0.000 A 
ATOM      3  C   UNL     1       2.925   4.427  20.174  0.00  0.00    +0.000 A 
ATOM      4  C   UNL     1       2.256   5.594  20.532  0.00  0.00    +0.000 A 
ATOM      5  C   UNL     1       2.252   6.730  19.692  0.00  0.00    +0.000 A 
ATOM      6  C   UNL     1       2.941   6.659  18.463  0.00  0.00    +0.000 A 
ATOM      7  C   UNL     1       2.932   7.796  17.627  0.00  0.00    +0.000 A 
ATOM      8  C   UNL     1       2.268   8.976  17.989  0.00  0.00    +0.000 A 
ATOM      9  C   UNL     1       1.581   9.071  19.199  0.00  0.00    +0.000 A 
ATOM     10  C   UNL     1       0.859  10.278  19.638  0.00  0.00    +0.000 A 
ATOM     11  C   UNL     1       0.788  11.531  18.814  0.00  0.00    +0.000 C 
ATOM     12  C   UNL     1       0.237  10.249  20.828  0.00  0.00    +0.000 A 
ATOM     13  C   UNL     1       0.233   9.083  21.717  0.00  0.00    +0.000 A 
ATOM     14  O   UNL     1      -0.352   9.114  22.794  0.00  0.00    +0.000 OA
ATOM     15  O   UNL     1       0.912   7.966  21.272  0.00  0.00    +0.000 OA
ATOM     16  C   UNL     1       1.588   7.938  20.026  0.00  0.00    +0.000 A 
ENDROOT
BRANCH   1  17
ATOM     17  O   UNL     1       4.278   5.472  16.903  0.00  0.00    +0.000 OA
BRANCH  17  18
ATOM     18  C   UNL     1       5.324   4.520  16.743  0.00  0.00    +0.000 C 
BRANCH  18  19
ATOM     19  C   UNL     1       6.436   5.136  15.914  0.00  0.00    +0.000 C 
ATOM     20  O   UNL     1       6.319   5.616  14.795  0.00  0.00    +0.000 OA
BRANCH  19  21
ATOM     21  O   UNL     1       7.622   4.965  16.572  0.00  0.00    +0.000 OA
BRANCH  21  23
ATOM     22  C   UNL     1       7.709   6.050  18.692  0.00  0.00    +0.000 C 
ATOM     23  C   UNL     1       7.496   4.726  17.980  0.00  0.00    +0.000 C 
ENDBRANCH  21  23
ENDBRANCH  19  21
ENDBRANCH  18  19
ENDBRANCH  17  18
ENDBRANCH   1  17
TORSDOF 5
ENDMDL
MODEL 8
REMARK VINA RESULT:      -7.6      2.297      7.007
REMARK  Name = 
REMARK  7 active torsions:
REMARK  status: ('A' for Active; 'I' for Inactive)
REMARK    1  A    between atoms: C_1  and  C_2
REMARK    2  A    between atoms: C_2  and  O_3
REMARK    3  A    between atoms: O_3  and  C_4
REMARK    4  A    between atoms: C_4  and  C_6
REMARK    5  A    between atoms: C_6  and  O_7
REMARK    6  A    between atoms: O_7  and  C_8
REMARK    7  A    between atoms: C_17  and  C_18
REMARK                            x       y       z     vdW  Elec       q    Type
REMARK                         _______ _______ _______ _____ _____    ______ ____
ROOT
ATOM      1  C   UNL     1       5.504   4.606  15.527  0.00  0.00    +0.000 A 
ATOM      2  C   UNL     1       6.163   5.837  15.481  0.00  0.00    +0.000 A 
ATOM      3  C   UNL     1       5.844   6.830  16.402  0.00  0.00    +0.000 A 
ATOM      4  C   UNL     1       4.863   6.599  17.363  0.00  0.00    +0.000 A 
ATOM      5  C   UNL     1       4.169   5.370  17.428  0.00  0.00    +0.000 A 
ATOM      6  C   UNL     1       4.494   4.364  16.494  0.00  0.00    +0.000 A 
ATOM      7  C   UNL     1       3.798   3.138  16.565  0.00  0.00    +0.000 A 
ATOM      8  C   UNL     1       2.803   2.905  17.524  0.00  0.00    +0.000 A 
ATOM      9  C   UNL     1       2.463   3.884  18.458  0.00  0.00    +0.000 A 
ATOM     10  C   UNL     1       1.432   3.704  19.494  0.00  0.00    +0.000 A 
ATOM     11  C   UNL     1       0.647   2.434  19.651  0.00  0.00    +0.000 C 
ATOM     12  C   UNL     1       1.190   4.723  20.335  0.00  0.00    +0.000 A 
ATOM     13  C   UNL     1       1.897   6.007  20.282  0.00  0.00    +0.000 A 
ATOM     14  O   UNL     1       1.633   6.904  21.076  0.00  0.00    +0.000 OA
ATOM     15  O   UNL     1       2.862   6.141  19.303  0.00  0.00    +0.000 OA
ATOM     16  C   UNL     1       3.159   5.101  18.387  0.00  0.00    +0.000 A 
ENDROOT
BRANCH   1  17
ATOM     17  O   UNL     1       5.751   3.591  14.635  0.00  0.00    +0.000 OA
BRANCH  17  18
ATOM     18  C   UNL     1       6.377   3.952  13.410  0.00  0.00    +0.000 C 
BRANCH  18  19
ATOM     19  C   UNL     1       5.750   3.161  12.277  0.00  0.00    +0.000 C 
ATOM     20  O   UNL     1       6.214   2.156  11.756  0.00  0.00    +0.000 OA
BRANCH  19  21
ATOM     21  O   UNL     1       4.630   3.818  11.848  0.00  0.00    +0.000 OA
BRANCH  21  23
ATOM     22  C   UNL     1       3.156   3.988   9.982  0.00  0.00    +0.000 C 
ATOM     23  C   UNL     1       3.768   3.044  11.003  0.00  0.00    +0.000 C 
ENDBRANCH  21  23
ENDBRANCH  19  21
ENDBRANCH  18  19
ENDBRANCH  17  18
ENDBRANCH   1  17
TORSDOF 5
ENDMDL
MODEL 9
REMARK VINA RESULT:      -7.5      3.563      7.680
REMARK  Name = 
REMARK  7 active torsions:
REMARK  status: ('A' for Active; 'I' for Inactive)
REMARK    1  A    between atoms: C_1  and  C_2
REMARK    2  A    between atoms: C_2  and  O_3
REMARK    3  A    between atoms: O_3  and  C_4
REMARK    4  A    between atoms: C_4  and  C_6
REMARK    5  A    between atoms: C_6  and  O_7
REMARK    6  A    between atoms: O_7  and  C_8
REMARK    7  A    between atoms: C_17  and  C_18
REMARK                            x       y       z     vdW  Elec       q    Type
REMARK                         _______ _______ _______ _____ _____    ______ ____
ROOT
ATOM      1  C   UNL     1       3.950   4.941  18.036  0.00  0.00    +0.000 A 
ATOM      2  C   UNL     1       3.853   3.842  18.894  0.00  0.00    +0.000 A 
ATOM      3  C   UNL     1       3.079   3.929  20.048  0.00  0.00    +0.000 A 
ATOM      4  C   UNL     1       2.410   5.112  20.350  0.00  0.00    +0.000 A 
ATOM      5  C   UNL     1       2.499   6.245  19.511  0.00  0.00    +0.000 A 
ATOM      6  C   UNL     1       3.283   6.155  18.341  0.00  0.00    +0.000 A 
ATOM      7  C   UNL     1       3.367   7.290  17.506  0.00  0.00    +0.000 A 
ATOM      8  C   UNL     1       2.703   8.486  17.812  0.00  0.00    +0.000 A 
ATOM      9  C   UNL     1       1.923   8.600  18.963  0.00  0.00    +0.000 A 
ATOM     10  C   UNL     1       1.196   9.823  19.341  0.00  0.00    +0.000 A 
ATOM     11  C   UNL     1       1.219  11.076  18.512  0.00  0.00    +0.000 C 
ATOM     12  C   UNL     1       0.480   9.813  20.477  0.00  0.00    +0.000 A 
ATOM     13  C   UNL     1       0.377   8.649  21.364  0.00  0.00    +0.000 A 
ATOM     14  O   UNL     1      -0.292   8.697  22.390  0.00  0.00    +0.000 OA
ATOM     15  O   UNL     1       1.065   7.516  20.977  0.00  0.00    +0.000 OA
ATOM     16  C   UNL     1       1.838   7.469  19.789  0.00  0.00    +0.000 A 
ENDROOT
BRANCH   1  17
ATOM     17  O   UNL     1       4.714   4.934  16.895  0.00  0.00    +0.000 OA
BRANCH  17  18
ATOM     18  C   UNL     1       6.068   4.516  17.032  0.00  0.00    +0.000 C 
BRANCH  18  19
ATOM     19  C   UNL     1       6.984   5.633  16.568  0.00  0.00    +0.000 C 
ATOM     20  O   UNL     1       7.444   5.768  15.443  0.00  0.00    +0.000 OA
BRANCH  19  21
ATOM     21  O   UNL     1       7.310   6.411  17.645  0.00  0.00    +0.000 OA
BRANCH  21  23
ATOM     22  C   UNL     1       8.248   8.581  17.950  0.00  0.00    +0.000 C 
ATOM     23  C   UNL     1       7.028   7.807  17.482  0.00  0.00    +0.000 C 
ENDBRANCH  21  23
ENDBRANCH  19  21
ENDBRANCH  18  19
ENDBRANCH  17  18
ENDBRANCH   1  17
TORSDOF 5
ENDMDL
