MODEL 1
REMARK VINA RESULT:      -7.4      0.000      0.000
REMARK  Name = 
REMARK  8 active torsions:
REMARK  status: ('A' for Active; 'I' for Inactive)
REMARK    1  A    between atoms: C_1  and  C_2
REMARK    2  A    between atoms: C_3  and  C_4
REMARK    3  A    between atoms: C_4  and  O_6
REMARK    4  A    between atoms: N_13  and  C_14
REMARK    5  A    between atoms: C_20  and  O_21
REMARK    6  A    between atoms: O_21  and  C_22
REMARK    7  A    between atoms: C_22  and  C_23
REMARK    8  A    between atoms: C_23  and  C_24
REMARK                            x       y       z     vdW  Elec       q    Type
REMARK                         _______ _______ _______ _____ _____    ______ ____
ROOT
ATOM      1  C   UNL     1       0.409   9.463  17.493  0.00  0.00    +0.000 C 
ATOM      2  C   UNL     1       0.058  10.051  18.828  0.00  0.00    +0.000 A 
ATOM      3  C   UNL     1      -0.830  11.115  19.021  0.00  0.00    +0.000 A 
ATOM      4  S   UNL     1      -1.022  11.479  20.682  0.00  0.00    +0.000 S 
ATOM      5  C   UNL     1       0.066  10.276  21.156  0.00  0.00    +0.000 A 
ATOM      6  N   UNL     1       0.301  10.107  22.465  0.00  0.00    +0.000 NA
ATOM      7  C   UNL     1       1.185   9.148  22.702  0.00  0.00    +0.000 A 
ATOM      8  N   UNL     1       1.797   8.389  21.792  0.00  0.00    +0.000 NA
ATOM      9  C   UNL     1       1.510   8.532  20.469  0.00  0.00    +0.000 A 
ATOM     10  N   UNL     1       2.114   7.612  19.584  0.00  0.00    +0.000 N 
ATOM     11  C   UNL     1       0.606   9.563  20.096  0.00  0.00    +0.000 A 
ATOM     12  H   UNL     1       1.799   7.703  18.626  0.00  0.00    +0.000 HD
ENDROOT
BRANCH  10  13
ATOM     13  C   UNL     1       2.305   6.235  19.892  0.00  0.00    +0.000 A 
ATOM     14  C   UNL     1       1.237   5.513  20.477  0.00  0.00    +0.000 A 
ATOM     15  C   UNL     1       1.323   4.150  20.742  0.00  0.00    +0.000 A 
ATOM     16  C   UNL     1       2.477   3.475  20.397  0.00  0.00    +0.000 A 
ATOM     17  F   UNL     1       2.566   2.160  20.639  0.00  0.00    +0.000 F 
ATOM     18  C   UNL     1       3.537   4.140  19.791  0.00  0.00    +0.000 A 
ATOM     19  C   UNL     1       3.468   5.521  19.539  0.00  0.00    +0.000 A 
BRANCH  19  20
ATOM     20  O   UNL     1       4.585   5.992  18.896  0.00  0.00    +0.000 OA
BRANCH  20  21
ATOM     21  C   UNL     1       5.830   5.338  19.142  0.00  0.00    +0.000 C 
BRANCH  21  22
ATOM     22  C   UNL     1       6.725   5.432  17.898  0.00  0.00    +0.000 C 
ATOM     23  C   UNL     1       7.342   6.801  17.661  0.00  0.00    +0.000 C 
ATOM     24  F   UNL     1       7.740   4.527  18.018  0.00  0.00    +0.000 F 
ENDBRANCH  21  22
ENDBRANCH  20  21
ENDBRANCH  19  20
ENDBRANCH  10  13
BRANCH   3  25
ATOM     25  C   UNL     1      -1.570  11.896  18.027  0.00  0.00    +0.000 C 
ATOM     26  O   UNL     1      -2.681  11.637  17.593  0.00  0.00    +0.000 OA
BRANCH  25  27
ATOM     27  O   UNL     1      -0.896  12.999  17.596  0.00  0.00    +0.000 OA
ATOM     28  H   UNL     1      -0.718  12.975  16.636  0.00  0.00    +0.000 HD
ENDBRANCH  25  27
ENDBRANCH   3  25
TORSDOF 6
ENDMDL
MODEL 2
REMARK VINA RESULT:      -7.3      1.128      1.203
REMARK  Name = 
REMARK  8 active torsions:
REMARK  status: ('A' for Active; 'I' for Inactive)
REMARK    1  A    between atoms: C_1  and  C_2
REMARK    2  A    between atoms: C_3  and  C_4
REMARK    3  A    between atoms: C_4  and  O_6
REMARK    4  A    between atoms: N_13  and  C_14
REMARK    5  A    between atoms: C_20  and  O_21
REMARK    6  A    between atoms: O_21  and  C_22
REMARK    7  A    between atoms: C_22  and  C_23
REMARK    8  A    between atoms: C_23  and  C_24
REMARK                            x       y       z     vdW  Elec       q    Type
REMARK                         _______ _______ _______ _____ _____    ______ ____
ROOT
ATOM      1  C   UNL     1       0.167   9.474  17.510  0.00  0.00    +0.000 C 
ATOM      2  C   UNL     1      -0.131  10.060  18.859  0.00  0.00    +0.000 A 
ATOM      3  C   UNL     1      -1.044  11.094  19.093  0.00  0.00    +0.000 A 
ATOM      4  S   UNL     1      -1.158  11.465  20.760  0.00  0.00    +0.000 S 
ATOM      5  C   UNL     1      -0.003  10.305  21.181  0.00  0.00    +0.000 A 
ATOM      6  N   UNL     1       0.310  10.156  22.476  0.00  0.00    +0.000 NA
ATOM      7  C   UNL     1       1.239   9.231  22.670  0.00  0.00    +0.000 A 
ATOM      8  N   UNL     1       1.827   8.486  21.733  0.00  0.00    +0.000 NA
ATOM      9  C   UNL     1       1.462   8.608  20.426  0.00  0.00    +0.000 A 
ATOM     10  N   UNL     1       2.049   7.701  19.515  0.00  0.00    +0.000 N 
ATOM     11  C   UNL     1       0.503   9.602  20.097  0.00  0.00    +0.000 A 
ATOM     12  H   UNL     1       1.679   7.774  18.576  0.00  0.00    +0.000 HD
ENDROOT
BRANCH  10  13
ATOM     13  C   UNL     1       2.306   6.334  19.822  0.00  0.00    +0.000 A 
ATOM     14  C   UNL     1       1.327   5.601  20.535  0.00  0.00    +0.000 A 
ATOM     15  C   UNL     1       1.474   4.245  20.810  0.00  0.00    +0.000 A 
ATOM     16  C   UNL     1       2.598   3.589  20.348  0.00  0.00    +0.000 A 
ATOM     17  F   UNL     1       2.744   2.281  20.599  0.00  0.00    +0.000 F 
ATOM     18  C   UNL     1       3.567   4.265  19.615  0.00  0.00    +0.000 A 
ATOM     19  C   UNL     1       3.438   5.639  19.350  0.00  0.00    +0.000 A 
BRANCH  19  20
ATOM     20  O   UNL     1       4.463   6.123  18.577  0.00  0.00    +0.000 OA
BRANCH  20  21
ATOM     21  C   UNL     1       5.252   5.185  17.843  0.00  0.00    +0.000 C 
BRANCH  21  22
ATOM     22  C   UNL     1       5.567   5.745  16.449  0.00  0.00    +0.000 C 
ATOM     23  C   UNL     1       5.458   4.736  15.318  0.00  0.00    +0.000 C 
ATOM     24  F   UNL     1       4.706   6.771  16.183  0.00  0.00    +0.000 F 
ENDBRANCH  21  22
ENDBRANCH  20  21
ENDBRANCH  19  20
ENDBRANCH  10  13
BRANCH   3  25
ATOM     25  C   UNL     1      -1.866  11.840  18.136  0.00  0.00    +0.000 C 
ATOM     26  O   UNL     1      -3.062  11.691  17.949  0.00  0.00    +0.000 OA
BRANCH  25  27
ATOM     27  O   UNL     1      -1.161  12.769  17.430  0.00  0.00    +0.000 OA
ATOM     28  H   UNL     1      -0.617  13.340  18.006  0.00  0.00    +0.000 HD
ENDBRANCH  25  27
ENDBRANCH   3  25
TORSDOF 6
ENDMDL
MODEL 3
REMARK VINA RESULT:      -7.2      4.149      7.954
REMARK  Name = 
REMARK  8 active torsions:
REMARK  status: ('A' for Active; 'I' for Inactive)
REMARK    1  A    between atoms: C_1  and  C_2
REMARK    2  A    between atoms: C_3  and  C_4
REMARK    3  A    between atoms: C_4  and  O_6
REMARK    4  A    between atoms: N_13  and  C_14
REMARK    5  A    between atoms: C_20  and  O_21
REMARK    6  A    between atoms: O_21  and  C_22
REMARK    7  A    between atoms: C_22  and  C_23
REMARK    8  A    between atoms: C_23  and  C_24
REMARK                            x       y       z     vdW  Elec       q    Type
REMARK                         _______ _______ _______ _____ _____    ______ ____
ROOT
ATOM      1  C   UNL     1       5.507   7.367  17.152  0.00  0.00    +0.000 C 
ATOM      2  C   UNL     1       5.034   5.943  17.143  0.00  0.00    +0.000 A 
ATOM      3  C   UNL     1       5.827   4.844  16.795  0.00  0.00    +0.000 A 
ATOM      4  S   UNL     1       4.964   3.374  16.951  0.00  0.00    +0.000 S 
ATOM      5  C   UNL     1       3.552   4.160  17.445  0.00  0.00    +0.000 A 
ATOM      6  N   UNL     1       2.474   3.417  17.732  0.00  0.00    +0.000 NA
ATOM      7  C   UNL     1       1.430   4.152  18.087  0.00  0.00    +0.000 A 
ATOM      8  N   UNL     1       1.391   5.482  18.184  0.00  0.00    +0.000 NA
ATOM      9  C   UNL     1       2.507   6.223  17.944  0.00  0.00    +0.000 A 
ATOM     10  N   UNL     1       2.411   7.613  18.182  0.00  0.00    +0.000 N 
ATOM     11  C   UNL     1       3.676   5.540  17.512  0.00  0.00    +0.000 A 
ATOM     12  H   UNL     1       3.289   8.104  18.076  0.00  0.00    +0.000 HD
ENDROOT
BRANCH  10  13
ATOM     13  C   UNL     1       1.679   8.175  19.267  0.00  0.00    +0.000 A 
ATOM     14  C   UNL     1       2.010   7.784  20.586  0.00  0.00    +0.000 A 
ATOM     15  C   UNL     1       1.389   8.341  21.700  0.00  0.00    +0.000 A 
ATOM     16  C   UNL     1       0.441   9.327  21.512  0.00  0.00    +0.000 A 
ATOM     17  F   UNL     1      -0.156   9.877  22.578  0.00  0.00    +0.000 F 
ATOM     18  C   UNL     1       0.112   9.763  20.234  0.00  0.00    +0.000 A 
ATOM     19  C   UNL     1       0.717   9.192  19.101  0.00  0.00    +0.000 A 
BRANCH  19  20
ATOM     20  O   UNL     1       0.304   9.780  17.933  0.00  0.00    +0.000 OA
BRANCH  20  21
ATOM     21  C   UNL     1      -0.835  10.641  17.979  0.00  0.00    +0.000 C 
BRANCH  21  22
ATOM     22  C   UNL     1      -1.897  10.158  16.982  0.00  0.00    +0.000 C 
ATOM     23  C   UNL     1      -3.159   9.599  17.617  0.00  0.00    +0.000 C 
ATOM     24  F   UNL     1      -2.256  11.204  16.181  0.00  0.00    +0.000 F 
ENDBRANCH  21  22
ENDBRANCH  20  21
ENDBRANCH  19  20
ENDBRANCH  10  13
BRANCH   3  25
ATOM     25  C   UNL     1       7.221   4.811  16.348  0.00  0.00    +0.000 C 
ATOM     26  O   UNL     1       7.655   5.291  15.314  0.00  0.00    +0.000 OA
BRANCH  25  27
ATOM     27  O   UNL     1       8.052   4.171  17.219  0.00  0.00    +0.000 OA
ATOM     28  H   UNL     1       8.578   4.793  17.757  0.00  0.00    +0.000 HD
ENDBRANCH  25  27
ENDBRANCH   3  25
TORSDOF 6
ENDMDL
MODEL 4
REMARK VINA RESULT:      -7.1      3.764      7.302
REMARK  Name = 
REMARK  8 active torsions:
REMARK  status: ('A' for Active; 'I' for Inactive)
REMARK    1  A    between atoms: C_1  and  C_2
REMARK    2  A    between atoms: C_3  and  C_4
REMARK    3  A    between atoms: C_4  and  O_6
REMARK    4  A    between atoms: N_13  and  C_14
REMARK    5  A    between atoms: C_20  and  O_21
REMARK    6  A    between atoms: O_21  and  C_22
REMARK    7  A    between atoms: C_22  and  C_23
REMARK    8  A    between atoms: C_23  and  C_24
REMARK                            x       y       z     vdW  Elec       q    Type
REMARK                         _______ _______ _______ _____ _____    ______ ____
ROOT
ATOM      1  C   UNL     1       5.916   7.163  17.443  0.00  0.00    +0.000 C 
ATOM      2  C   UNL     1       5.301   5.802  17.298  0.00  0.00    +0.000 A 
ATOM      3  C   UNL     1       6.015   4.631  17.024  0.00  0.00    +0.000 A 
ATOM      4  S   UNL     1       4.986   3.264  16.981  0.00  0.00    +0.000 S 
ATOM      5  C   UNL     1       3.607   4.190  17.293  0.00  0.00    +0.000 A 
ATOM      6  N   UNL     1       2.425   3.565  17.380  0.00  0.00    +0.000 NA
ATOM      7  C   UNL     1       1.423   4.402  17.606  0.00  0.00    +0.000 A 
ATOM      8  N   UNL     1       1.512   5.725  17.757  0.00  0.00    +0.000 NA
ATOM      9  C   UNL     1       2.725   6.342  17.722  0.00  0.00    +0.000 A 
ATOM     10  N   UNL     1       2.743   7.726  18.006  0.00  0.00    +0.000 N 
ATOM     11  C   UNL     1       3.866   5.545  17.440  0.00  0.00    +0.000 A 
ATOM     12  H   UNL     1       3.674   8.118  18.055  0.00  0.00    +0.000 HD
ENDROOT
BRANCH  10  13
ATOM     13  C   UNL     1       1.916   8.336  18.992  0.00  0.00    +0.000 A 
ATOM     14  C   UNL     1       1.160   9.478  18.635  0.00  0.00    +0.000 A 
ATOM     15  C   UNL     1       0.277  10.087  19.522  0.00  0.00    +0.000 A 
ATOM     16  C   UNL     1       0.114   9.543  20.780  0.00  0.00    +0.000 A 
ATOM     17  F   UNL     1      -0.741  10.116  21.638  0.00  0.00    +0.000 F 
ATOM     18  C   UNL     1       0.813   8.403  21.159  0.00  0.00    +0.000 A 
ATOM     19  C   UNL     1       1.723   7.793  20.279  0.00  0.00    +0.000 A 
BRANCH  19  20
ATOM     20  O   UNL     1       2.282   6.657  20.806  0.00  0.00    +0.000 OA
BRANCH  20  21
ATOM     21  C   UNL     1       1.445   5.512  20.979  0.00  0.00    +0.000 C 
BRANCH  21  22
ATOM     22  C   UNL     1       2.301   4.285  21.321  0.00  0.00    +0.000 C 
ATOM     23  C   UNL     1       1.549   2.964  21.322  0.00  0.00    +0.000 C 
ATOM     24  F   UNL     1       3.317   4.191  20.413  0.00  0.00    +0.000 F 
ENDBRANCH  21  22
ENDBRANCH  20  21
ENDBRANCH  19  20
ENDBRANCH  10  13
BRANCH   3  25
ATOM     25  C   UNL     1       7.451   4.453  16.791  0.00  0.00    +0.000 C 
ATOM     26  O   UNL     1       8.280   4.138  17.628  0.00  0.00    +0.000 OA
BRANCH  25  27
ATOM     27  O   UNL     1       7.819   4.675  15.498  0.00  0.00    +0.000 OA
ATOM     28  H   UNL     1       8.411   3.979  15.155  0.00  0.00    +0.000 HD
ENDBRANCH  25  27
ENDBRANCH   3  25
TORSDOF 6
ENDMDL
MODEL 5
REMARK VINA RESULT:      -7.1      1.652      1.842
REMARK  Name = 
REMARK  8 active torsions:
REMARK  status: ('A' for Active; 'I' for Inactive)
REMARK    1  A    between atoms: C_1  and  C_2
REMARK    2  A    between atoms: C_3  and  C_4
REMARK    3  A    between atoms: C_4  and  O_6
REMARK    4  A    between atoms: N_13  and  C_14
REMARK    5  A    between atoms: C_20  and  O_21
REMARK    6  A    between atoms: O_21  and  C_22
REMARK    7  A    between atoms: C_22  and  C_23
REMARK    8  A    between atoms: C_23  and  C_24
REMARK                            x       y       z     vdW  Elec       q    Type
REMARK                         _______ _______ _______ _____ _____    ______ ____
ROOT
ATOM      1  C   UNL     1       2.147  10.405  17.637  0.00  0.00    +0.000 C 
ATOM      2  C   UNL     1       1.192  10.428  18.794  0.00  0.00    +0.000 A 
ATOM      3  C   UNL     1       0.313  11.479  19.079  0.00  0.00    +0.000 A 
ATOM      4  S   UNL     1      -0.657  11.132  20.445  0.00  0.00    +0.000 S 
ATOM      5  C   UNL     1       0.078   9.629  20.688  0.00  0.00    +0.000 A 
ATOM      6  N   UNL     1      -0.345   8.869  21.708  0.00  0.00    +0.000 NA
ATOM      7  C   UNL     1       0.323   7.728  21.801  0.00  0.00    +0.000 A 
ATOM      8  N   UNL     1       1.303   7.313  20.997  0.00  0.00    +0.000 NA
ATOM      9  C   UNL     1       1.687   8.069  19.931  0.00  0.00    +0.000 A 
ATOM     10  N   UNL     1       2.649   7.504  19.065  0.00  0.00    +0.000 N 
ATOM     11  C   UNL     1       1.066   9.335  19.760  0.00  0.00    +0.000 A 
ATOM     12  H   UNL     1       2.833   8.064  18.243  0.00  0.00    +0.000 HD
ENDROOT
BRANCH  10  13
ATOM     13  C   UNL     1       2.679   6.123  18.716  0.00  0.00    +0.000 A 
ATOM     14  C   UNL     1       1.572   5.571  18.028  0.00  0.00    +0.000 A 
ATOM     15  C   UNL     1       1.556   4.250  17.591  0.00  0.00    +0.000 A 
ATOM     16  C   UNL     1       2.668   3.462  17.813  0.00  0.00    +0.000 A 
ATOM     17  F   UNL     1       2.667   2.191  17.388  0.00  0.00    +0.000 F 
ATOM     18  C   UNL     1       3.788   3.975  18.456  0.00  0.00    +0.000 A 
ATOM     19  C   UNL     1       3.806   5.302  18.920  0.00  0.00    +0.000 A 
BRANCH  19  20
ATOM     20  O   UNL     1       5.008   5.644  19.485  0.00  0.00    +0.000 OA
BRANCH  20  21
ATOM     21  C   UNL     1       6.184   5.539  18.681  0.00  0.00    +0.000 C 
BRANCH  21  22
ATOM     22  C   UNL     1       6.201   6.657  17.630  0.00  0.00    +0.000 C 
ATOM     23  C   UNL     1       7.536   7.368  17.478  0.00  0.00    +0.000 C 
ATOM     24  F   UNL     1       5.865   6.126  16.418  0.00  0.00    +0.000 F 
ENDBRANCH  21  22
ENDBRANCH  20  21
ENDBRANCH  19  20
ENDBRANCH  10  13
BRANCH   3  25
ATOM     25  C   UNL     1       0.137  12.755  18.382  0.00  0.00    +0.000 C 
ATOM     26  O   UNL     1       0.894  13.711  18.431  0.00  0.00    +0.000 OA
BRANCH  25  27
ATOM     27  O   UNL     1      -0.996  12.805  17.627  0.00  0.00    +0.000 OA
ATOM     28  H   UNL     1      -0.805  12.913  16.675  0.00  0.00    +0.000 HD
ENDBRANCH  25  27
ENDBRANCH   3  25
TORSDOF 6
ENDMDL
MODEL 6
REMARK VINA RESULT:      -7.0      4.994      7.098
REMARK  Name = 
REMARK  8 active torsions:
REMARK  status: ('A' for Active; 'I' for Inactive)
REMARK    1  A    between atoms: C_1  and  C_2
REMARK    2  A    between atoms: C_3  and  C_4
REMARK    3  A    between atoms: C_4  and  O_6
REMARK    4  A    between atoms: N_13  and  C_14
REMARK    5  A    between atoms: C_20  and  O_21
REMARK    6  A    between atoms: O_21  and  C_22
REMARK    7  A    between atoms: C_22  and  C_23
REMARK    8  A    between atoms: C_23  and  C_24
REMARK                            x       y       z     vdW  Elec       q    Type
REMARK                         _______ _______ _______ _____ _____    ______ ____
ROOT
ATOM      1  C   UNL     1       3.444   1.995  18.742  0.00  0.00    +0.000 C 
ATOM      2  C   UNL     1       3.110   3.355  19.278  0.00  0.00    +0.000 A 
ATOM      3  C   UNL     1       2.605   3.604  20.559  0.00  0.00    +0.000 A 
ATOM      4  S   UNL     1       2.393   5.280  20.836  0.00  0.00    +0.000 S 
ATOM      5  C   UNL     1       2.930   5.687  19.285  0.00  0.00    +0.000 A 
ATOM      6  N   UNL     1       2.977   6.983  18.946  0.00  0.00    +0.000 NA
ATOM      7  C   UNL     1       3.395   7.166  17.702  0.00  0.00    +0.000 A 
ATOM      8  N   UNL     1       3.758   6.218  16.837  0.00  0.00    +0.000 NA
ATOM      9  C   UNL     1       3.759   4.908  17.211  0.00  0.00    +0.000 A 
ATOM     10  N   UNL     1       4.268   3.980  16.275  0.00  0.00    +0.000 N 
ATOM     11  C   UNL     1       3.286   4.591  18.513  0.00  0.00    +0.000 A 
ATOM     12  H   UNL     1       4.330   3.036  16.634  0.00  0.00    +0.000 HD
ENDROOT
BRANCH  10  13
ATOM     13  C   UNL     1       5.386   4.245  15.435  0.00  0.00    +0.000 A 
ATOM     14  C   UNL     1       5.277   3.972  14.050  0.00  0.00    +0.000 A 
ATOM     15  C   UNL     1       6.299   4.269  13.154  0.00  0.00    +0.000 A 
ATOM     16  C   UNL     1       7.446   4.875  13.628  0.00  0.00    +0.000 A 
ATOM     17  F   UNL     1       8.432   5.175  12.773  0.00  0.00    +0.000 F 
ATOM     18  C   UNL     1       7.579   5.191  14.976  0.00  0.00    +0.000 A 
ATOM     19  C   UNL     1       6.561   4.875  15.892  0.00  0.00    +0.000 A 
BRANCH  19  20
ATOM     20  O   UNL     1       6.849   5.302  17.163  0.00  0.00    +0.000 OA
BRANCH  20  21
ATOM     21  C   UNL     1       7.398   6.611  17.325  0.00  0.00    +0.000 C 
BRANCH  21  22
ATOM     22  C   UNL     1       7.744   6.854  18.801  0.00  0.00    +0.000 C 
ATOM     23  C   UNL     1       8.107   5.604  19.584  0.00  0.00    +0.000 C 
ATOM     24  F   UNL     1       8.801   7.715  18.868  0.00  0.00    +0.000 F 
ENDBRANCH  21  22
ENDBRANCH  20  21
ENDBRANCH  19  20
ENDBRANCH  10  13
BRANCH   3  25
ATOM     25  C   UNL     1       2.267   2.655  21.623  0.00  0.00    +0.000 C 
ATOM     26  O   UNL     1       1.156   2.468  22.091  0.00  0.00    +0.000 OA
BRANCH  25  27
ATOM     27  O   UNL     1       3.341   1.952  22.080  0.00  0.00    +0.000 OA
ATOM     28  H   UNL     1       3.086   1.093  22.466  0.00  0.00    +0.000 HD
ENDBRANCH  25  27
ENDBRANCH   3  25
TORSDOF 6
ENDMDL
MODEL 7
REMARK VINA RESULT:      -7.0      3.912      7.750
REMARK  Name = 
REMARK  8 active torsions:
REMARK  status: ('A' for Active; 'I' for Inactive)
REMARK    1  A    between atoms: C_1  and  C_2
REMARK    2  A    between atoms: C_3  and  C_4
REMARK    3  A    between atoms: C_4  and  O_6
REMARK    4  A    between atoms: N_13  and  C_14
REMARK    5  A    between atoms: C_20  and  O_21
REMARK    6  A    between atoms: O_21  and  C_22
REMARK    7  A    between atoms: C_22  and  C_23
REMARK    8  A    between atoms: C_23  and  C_24
REMARK                            x       y       z     vdW  Elec       q    Type
REMARK                         _______ _______ _______ _____ _____    ______ ____
ROOT
ATOM      1  C   UNL     1       4.617   7.142  17.510  0.00  0.00    +0.000 C 
ATOM      2  C   UNL     1       4.495   5.842  18.249  0.00  0.00    +0.000 A 
ATOM      3  C   UNL     1       5.429   4.802  18.189  0.00  0.00    +0.000 A 
ATOM      4  S   UNL     1       4.981   3.497  19.203  0.00  0.00    +0.000 S 
ATOM      5  C   UNL     1       3.561   4.266  19.703  0.00  0.00    +0.000 A 
ATOM      6  N   UNL     1       2.769   3.636  20.581  0.00  0.00    +0.000 NA
ATOM      7  C   UNL     1       1.682   4.334  20.877  0.00  0.00    +0.000 A 
ATOM      8  N   UNL     1       1.359   5.538  20.403  0.00  0.00    +0.000 NA
ATOM      9  C   UNL     1       2.198   6.193  19.554  0.00  0.00    +0.000 A 
ATOM     10  N   UNL     1       1.836   7.510  19.193  0.00  0.00    +0.000 N 
ATOM     11  C   UNL     1       3.375   5.518  19.135  0.00  0.00    +0.000 A 
ATOM     12  H   UNL     1       2.534   7.984  18.635  0.00  0.00    +0.000 HD
ENDROOT
BRANCH  10  13
ATOM     13  C   UNL     1       1.238   8.437  20.095  0.00  0.00    +0.000 A 
ATOM     14  C   UNL     1       1.557   8.348  21.472  0.00  0.00    +0.000 A 
ATOM     15  C   UNL     1       1.069   9.259  22.404  0.00  0.00    +0.000 A 
ATOM     16  C   UNL     1       0.273  10.299  21.966  0.00  0.00    +0.000 A 
ATOM     17  F   UNL     1      -0.194  11.187  22.853  0.00  0.00    +0.000 F 
ATOM     18  C   UNL     1      -0.037  10.441  20.618  0.00  0.00    +0.000 A 
ATOM     19  C   UNL     1       0.433   9.513  19.672  0.00  0.00    +0.000 A 
BRANCH  19  20
ATOM     20  O   UNL     1       0.067   9.840  18.391  0.00  0.00    +0.000 OA
BRANCH  20  21
ATOM     21  C   UNL     1      -1.036  10.730  18.212  0.00  0.00    +0.000 C 
BRANCH  21  22
ATOM     22  C   UNL     1      -2.243   9.963  17.657  0.00  0.00    +0.000 C 
ATOM     23  C   UNL     1      -3.531  10.767  17.586  0.00  0.00    +0.000 C 
ATOM     24  F   UNL     1      -1.947   9.529  16.397  0.00  0.00    +0.000 F 
ENDBRANCH  21  22
ENDBRANCH  20  21
ENDBRANCH  19  20
ENDBRANCH  10  13
BRANCH   3  25
ATOM     25  C   UNL     1       6.668   4.712  17.412  0.00  0.00    +0.000 C 
ATOM     26  O   UNL     1       7.700   5.321  17.635  0.00  0.00    +0.000 OA
BRANCH  25  27
ATOM     27  O   UNL     1       6.584   3.847  16.362  0.00  0.00    +0.000 OA
ATOM     28  H   UNL     1       6.926   4.233  15.533  0.00  0.00    +0.000 HD
ENDBRANCH  25  27
ENDBRANCH   3  25
TORSDOF 6
ENDMDL
MODEL 8
REMARK VINA RESULT:      -7.0      2.723      4.514
REMARK  Name = 
REMARK  8 active torsions:
REMARK  status: ('A' for Active; 'I' for Inactive)
REMARK    1  A    between atoms: C_1  and  C_2
REMARK    2  A    between atoms: C_3  and  C_4
REMARK    3  A    between atoms: C_4  and  O_6
REMARK    4  A    between atoms: N_13  and  C_14
REMARK    5  A    between atoms: C_20  and  O_21
REMARK    6  A    between atoms: O_21  and  C_22
REMARK    7  A    between atoms: C_22  and  C_23
REMARK    8  A    between atoms: C_23  and  C_24
REMARK                            x       y       z     vdW  Elec       q    Type
REMARK                         _______ _______ _______ _____ _____    ______ ____
ROOT
ATOM      1  C   UNL     1       0.032   7.780  21.424  0.00  0.00    +0.000 C 
ATOM      2  C   UNL     1       0.328   9.190  21.004  0.00  0.00    +0.000 A 
ATOM      3  C   UNL     1       0.012  10.327  21.756  0.00  0.00    +0.000 A 
ATOM      4  S   UNL     1       0.548  11.758  20.984  0.00  0.00    +0.000 S 
ATOM      5  C   UNL     1       1.168  10.909  19.660  0.00  0.00    +0.000 A 
ATOM      6  N   UNL     1       1.759  11.603  18.678  0.00  0.00    +0.000 NA
ATOM      7  C   UNL     1       2.184  10.826  17.692  0.00  0.00    +0.000 A 
ATOM      8  N   UNL     1       2.082   9.497  17.628  0.00  0.00    +0.000 NA
ATOM      9  C   UNL     1       1.529   8.798  18.657  0.00  0.00    +0.000 A 
ATOM     10  N   UNL     1       1.566   7.389  18.560  0.00  0.00    +0.000 N 
ATOM     11  C   UNL     1       0.999   9.535  19.749  0.00  0.00    +0.000 A 
ATOM     12  H   UNL     1       1.226   6.917  19.388  0.00  0.00    +0.000 HD
ENDROOT
BRANCH  10  13
ATOM     13  C   UNL     1       2.668   6.667  18.020  0.00  0.00    +0.000 A 
ATOM     14  C   UNL     1       3.860   7.369  17.717  0.00  0.00    +0.000 A 
ATOM     15  C   UNL     1       5.001   6.723  17.253  0.00  0.00    +0.000 A 
ATOM     16  C   UNL     1       4.979   5.349  17.111  0.00  0.00    +0.000 A 
ATOM     17  F   UNL     1       6.076   4.716  16.675  0.00  0.00    +0.000 F 
ATOM     18  C   UNL     1       3.840   4.619  17.429  0.00  0.00    +0.000 A 
ATOM     19  C   UNL     1       2.675   5.264  17.878  0.00  0.00    +0.000 A 
BRANCH  19  20
ATOM     20  O   UNL     1       1.672   4.381  18.186  0.00  0.00    +0.000 OA
BRANCH  20  21
ATOM     21  C   UNL     1       1.992   3.261  19.014  0.00  0.00    +0.000 C 
BRANCH  21  22
ATOM     22  C   UNL     1       1.189   3.330  20.321  0.00  0.00    +0.000 C 
ATOM     23  C   UNL     1       2.015   3.162  21.585  0.00  0.00    +0.000 C 
ATOM     24  F   UNL     1       0.560   4.540  20.386  0.00  0.00    +0.000 F 
ENDBRANCH  21  22
ENDBRANCH  20  21
ENDBRANCH  19  20
ENDBRANCH  10  13
BRANCH   3  25
ATOM     25  C   UNL     1      -0.674  10.424  23.046  0.00  0.00    +0.000 C 
ATOM     26  O   UNL     1      -1.668  11.091  23.282  0.00  0.00    +0.000 OA
BRANCH  25  27
ATOM     27  O   UNL     1      -0.095   9.671  24.023  0.00  0.00    +0.000 OA
ATOM     28  H   UNL     1      -0.258  10.030  24.916  0.00  0.00    +0.000 HD
ENDBRANCH  25  27
ENDBRANCH   3  25
TORSDOF 6
ENDMDL
MODEL 9
REMARK VINA RESULT:      -6.9      4.025      7.591
REMARK  Name = 
REMARK  8 active torsions:
REMARK  status: ('A' for Active; 'I' for Inactive)
REMARK    1  A    between atoms: C_1  and  C_2
REMARK    2  A    between atoms: C_3  and  C_4
REMARK    3  A    between atoms: C_4  and  O_6
REMARK    4  A    between atoms: N_13  and  C_14
REMARK    5  A    between atoms: C_20  and  O_21
REMARK    6  A    between atoms: O_21  and  C_22
REMARK    7  A    between atoms: C_22  and  C_23
REMARK    8  A    between atoms: C_23  and  C_24
REMARK                            x       y       z     vdW  Elec       q    Type
REMARK                         _______ _______ _______ _____ _____    ______ ____
ROOT
ATOM      1  C   UNL     1       5.648   7.345  17.183  0.00  0.00    +0.000 C 
ATOM      2  C   UNL     1       5.129   5.939  17.110  0.00  0.00    +0.000 A 
ATOM      3  C   UNL     1       5.886   4.830  16.717  0.00  0.00    +0.000 A 
ATOM      4  S   UNL     1       4.974   3.384  16.806  0.00  0.00    +0.000 S 
ATOM      5  C   UNL     1       3.587   4.195  17.330  0.00  0.00    +0.000 A 
ATOM      6  N   UNL     1       2.484   3.476  17.581  0.00  0.00    +0.000 NA
ATOM      7  C   UNL     1       1.463   4.229  17.964  0.00  0.00    +0.000 A 
ATOM      8  N   UNL     1       1.468   5.554  18.119  0.00  0.00    +0.000 NA
ATOM      9  C   UNL     1       2.609   6.268  17.915  0.00  0.00    +0.000 A 
ATOM     10  N   UNL     1       2.558   7.648  18.213  0.00  0.00    +0.000 N 
ATOM     11  C   UNL     1       3.756   5.566  17.458  0.00  0.00    +0.000 A 
ATOM     12  H   UNL     1       3.452   8.114  18.131  0.00  0.00    +0.000 HD
ENDROOT
BRANCH  10  13
ATOM     13  C   UNL     1       1.840   8.187  19.319  0.00  0.00    +0.000 A 
ATOM     14  C   UNL     1       1.776   7.438  20.519  0.00  0.00    +0.000 A 
ATOM     15  C   UNL     1       1.155   7.928  21.664  0.00  0.00    +0.000 A 
ATOM     16  C   UNL     1       0.608   9.196  21.636  0.00  0.00    +0.000 A 
ATOM     17  F   UNL     1       0.017   9.680  22.736  0.00  0.00    +0.000 F 
ATOM     18  C   UNL     1       0.679   9.976  20.488  0.00  0.00    +0.000 A 
ATOM     19  C   UNL     1       1.285   9.483  19.320  0.00  0.00    +0.000 A 
BRANCH  19  20
ATOM     20  O   UNL     1       1.302  10.408  18.307  0.00  0.00    +0.000 OA
BRANCH  20  21
ATOM     21  C   UNL     1       0.851  11.732  18.596  0.00  0.00    +0.000 C 
BRANCH  21  22
ATOM     22  C   UNL     1       1.997  12.732  18.388  0.00  0.00    +0.000 C 
ATOM     23  C   UNL     1       2.489  13.409  19.656  0.00  0.00    +0.000 C 
ATOM     24  F   UNL     1       3.053  12.078  17.822  0.00  0.00    +0.000 F 
ENDBRANCH  21  22
ENDBRANCH  20  21
ENDBRANCH  19  20
ENDBRANCH  10  13
BRANCH   3  25
ATOM     25  C   UNL     1       7.281   4.770  16.273  0.00  0.00    +0.000 C 
ATOM     26  O   UNL     1       7.724   5.230  15.234  0.00  0.00    +0.000 OA
BRANCH  25  27
ATOM     27  O   UNL     1       8.100   4.130  17.154  0.00  0.00    +0.000 OA
ATOM     28  H   UNL     1       9.045   4.270  16.953  0.00  0.00    +0.000 HD
ENDBRANCH  25  27
ENDBRANCH   3  25
TORSDOF 6
ENDMDL
