MODEL 1
REMARK VINA RESULT:      -6.7      0.000      0.000
REMARK  Name = 
REMARK  16 active torsions:
REMARK  status: ('A' for Active; 'I' for Inactive)
REMARK    1  A    between atoms: C_1  and  C_2
REMARK    2  A    between atoms: C_2  and  C_3
REMARK    3  A    between atoms: C_3  and  C_4
REMARK    4  A    between atoms: N_6  and  C_7
REMARK    5  A    between atoms: C_7  and  C_8
REMARK    6  A    between atoms: C_7  and  C_16
REMARK    7  A    between atoms: C_8  and  C_9
REMARK    8  A    between atoms: C_12  and  O_13
REMARK    9  A    between atoms: N_18  and  C_19
REMARK   10  A    between atoms: C_19  and  C_20
REMARK   11  A    between atoms: C_20  and  C_21
REMARK   12  A    between atoms: C_21  and  C_22
REMARK   13  A    between atoms: C_22  and  C_23
REMARK   14  A    between atoms: C_23  and  C_24
REMARK   15  A    between atoms: C_24  and  C_25
REMARK   16  A    between atoms: C_25  and  N_26
REMARK                            x       y       z     vdW  Elec       q    Type
REMARK                         _______ _______ _______ _____ _____    ______ ____
ROOT
ATOM      1  C   UNL     1       4.849   5.732  17.672  0.00  0.00    +0.000 C 
ENDROOT
BRANCH   1   4
ATOM      2  C   UNL     1       6.649   5.511  15.876  0.00  0.00    +0.000 C 
ATOM      3  O   UNL     1       7.383   6.327  16.468  0.00  0.00    +0.000 OA
ATOM      4  N   UNL     1       5.424   5.188  16.392  0.00  0.00    +0.000 N 
ATOM      5  H   UNL     1       4.858   4.467  15.948  0.00  0.00    +0.000 HD
BRANCH   2   6
ATOM      6  C   UNL     1       7.154   4.933  14.570  0.00  0.00    +0.000 C 
BRANCH   6   8
ATOM      7  C   UNL     1       6.319   3.535  12.598  0.00  0.00    +0.000 C 
ATOM      8  C   UNL     1       6.037   4.048  13.993  0.00  0.00    +0.000 C 
ENDBRANCH   6   8
ENDBRANCH   2   6
ENDBRANCH   1   4
BRANCH   1   9
ATOM      9  C   UNL     1       5.170   4.780  18.850  0.00  0.00    +0.000 C 
ATOM     10  O   UNL     1       6.244   4.912  19.476  0.00  0.00    +0.000 OA
ATOM     11  N   UNL     1       4.234   3.836  19.223  0.00  0.00    +0.000 N 
ATOM     12  H   UNL     1       3.350   3.767  18.730  0.00  0.00    +0.000 HD
BRANCH  11  13
ATOM     13  C   UNL     1       4.447   2.954  20.369  0.00  0.00    +0.000 C 
BRANCH  13  14
ATOM     14  C   UNL     1       3.155   2.609  21.122  0.00  0.00    +0.000 C 
BRANCH  14  15
ATOM     15  C   UNL     1       2.346   3.862  21.460  0.00  0.00    +0.000 C 
BRANCH  15  16
ATOM     16  C   UNL     1       1.159   4.052  20.517  0.00  0.00    +0.000 C 
BRANCH  16  17
ATOM     17  C   UNL     1       0.466   2.720  20.222  0.00  0.00    +0.000 C 
BRANCH  17  18
ATOM     18  C   UNL     1       0.594   2.348  18.745  0.00  0.00    +0.000 C 
BRANCH  18  19
ATOM     19  C   UNL     1       1.179   3.505  17.937  0.00  0.00    +0.000 C 
BRANCH  19  20
ATOM     20  N   UNL     1       2.270   3.027  17.099  0.00  0.00    +0.000 NA
ATOM     21  H   UNL     1       2.048   3.193  16.119  0.00  0.00    +0.000 HD
ATOM     22  H   UNL     1       2.361   2.017  17.204  0.00  0.00    +0.000 HD
ENDBRANCH  19  20
ENDBRANCH  18  19
ENDBRANCH  17  18
ENDBRANCH  16  17
ENDBRANCH  15  16
ENDBRANCH  14  15
ENDBRANCH  13  14
ENDBRANCH  11  13
ENDBRANCH   1   9
BRANCH   1  23
ATOM     23  C   UNL     1       3.325   6.038  17.648  0.00  0.00    +0.000 C 
BRANCH  23  24
ATOM     24  C   UNL     1       2.827   7.274  18.391  0.00  0.00    +0.000 A 
ATOM     25  C   UNL     1       2.607   8.487  17.719  0.00  0.00    +0.000 A 
ATOM     26  C   UNL     1       1.773   9.464  18.270  0.00  0.00    +0.000 A 
ATOM     27  C   UNL     1       1.279   9.306  19.556  0.00  0.00    +0.000 A 
ATOM     28  C   UNL     1       1.596   8.174  20.292  0.00  0.00    +0.000 A 
ATOM     29  C   UNL     1       2.329   7.144  19.696  0.00  0.00    +0.000 A 
BRANCH  27  30
ATOM     30  O   UNL     1       0.417  10.218  20.093  0.00  0.00    +0.000 OA
ATOM     31  H   UNL     1       0.889  11.062  20.188  0.00  0.00    +0.000 HD
ENDBRANCH  27  30
ENDBRANCH  23  24
ENDBRANCH   1  23
TORSDOF 15
ENDMDL
MODEL 2
REMARK VINA RESULT:      -6.5      2.786      5.936
REMARK  Name = 
REMARK  16 active torsions:
REMARK  status: ('A' for Active; 'I' for Inactive)
REMARK    1  A    between atoms: C_1  and  C_2
REMARK    2  A    between atoms: C_2  and  C_3
REMARK    3  A    between atoms: C_3  and  C_4
REMARK    4  A    between atoms: N_6  and  C_7
REMARK    5  A    between atoms: C_7  and  C_8
REMARK    6  A    between atoms: C_7  and  C_16
REMARK    7  A    between atoms: C_8  and  C_9
REMARK    8  A    between atoms: C_12  and  O_13
REMARK    9  A    between atoms: N_18  and  C_19
REMARK   10  A    between atoms: C_19  and  C_20
REMARK   11  A    between atoms: C_20  and  C_21
REMARK   12  A    between atoms: C_21  and  C_22
REMARK   13  A    between atoms: C_22  and  C_23
REMARK   14  A    between atoms: C_23  and  C_24
REMARK   15  A    between atoms: C_24  and  C_25
REMARK   16  A    between atoms: C_25  and  N_26
REMARK                            x       y       z     vdW  Elec       q    Type
REMARK                         _______ _______ _______ _____ _____    ______ ____
ROOT
ATOM      1  C   UNL     1       6.260   6.457  16.486  0.00  0.00    +0.000 C 
ENDROOT
BRANCH   1   4
ATOM      2  C   UNL     1       7.894   7.402  18.203  0.00  0.00    +0.000 C 
ATOM      3  O   UNL     1       8.023   6.284  18.741  0.00  0.00    +0.000 OA
ATOM      4  N   UNL     1       7.063   7.556  17.128  0.00  0.00    +0.000 N 
ATOM      5  H   UNL     1       7.015   8.451  16.644  0.00  0.00    +0.000 HD
BRANCH   2   6
ATOM      6  C   UNL     1       8.660   8.562  18.806  0.00  0.00    +0.000 C 
BRANCH   6   8
ATOM      7  C   UNL     1       9.202  11.017  18.334  0.00  0.00    +0.000 C 
ATOM      8  C   UNL     1       8.472   9.773  17.877  0.00  0.00    +0.000 C 
ENDBRANCH   6   8
ENDBRANCH   2   6
ENDBRANCH   1   4
BRANCH   1   9
ATOM      9  C   UNL     1       5.333   5.792  17.533  0.00  0.00    +0.000 C 
ATOM     10  O   UNL     1       4.360   6.430  17.992  0.00  0.00    +0.000 OA
ATOM     11  N   UNL     1       5.566   4.481  17.899  0.00  0.00    +0.000 N 
ATOM     12  H   UNL     1       6.337   3.964  17.490  0.00  0.00    +0.000 HD
BRANCH  11  13
ATOM     13  C   UNL     1       4.688   3.775  18.830  0.00  0.00    +0.000 C 
BRANCH  13  14
ATOM     14  C   UNL     1       3.876   2.653  18.170  0.00  0.00    +0.000 C 
BRANCH  14  15
ATOM     15  C   UNL     1       2.817   3.208  17.216  0.00  0.00    +0.000 C 
BRANCH  15  16
ATOM     16  C   UNL     1       1.682   3.907  17.962  0.00  0.00    +0.000 C 
BRANCH  16  17
ATOM     17  C   UNL     1       1.093   3.004  19.048  0.00  0.00    +0.000 C 
BRANCH  17  18
ATOM     18  C   UNL     1       0.779   3.799  20.315  0.00  0.00    +0.000 C 
BRANCH  18  19
ATOM     19  C   UNL     1       2.042   4.035  21.140  0.00  0.00    +0.000 C 
BRANCH  19  20
ATOM     20  N   UNL     1       2.409   5.445  21.099  0.00  0.00    +0.000 NA
ATOM     21  H   UNL     1       2.811   5.668  20.189  0.00  0.00    +0.000 HD
ATOM     22  H   UNL     1       3.139   5.625  21.786  0.00  0.00    +0.000 HD
ENDBRANCH  19  20
ENDBRANCH  18  19
ENDBRANCH  17  18
ENDBRANCH  16  17
ENDBRANCH  15  16
ENDBRANCH  14  15
ENDBRANCH  13  14
ENDBRANCH  11  13
ENDBRANCH   1   9
BRANCH   1  23
ATOM     23  C   UNL     1       7.082   5.364  15.749  0.00  0.00    +0.000 C 
BRANCH  23  24
ATOM     24  C   UNL     1       6.555   4.841  14.417  0.00  0.00    +0.000 A 
ATOM     25  C   UNL     1       7.397   4.714  13.299  0.00  0.00    +0.000 A 
ATOM     26  C   UNL     1       7.054   3.866  12.244  0.00  0.00    +0.000 A 
ATOM     27  C   UNL     1       5.807   3.260  12.220  0.00  0.00    +0.000 A 
ATOM     28  C   UNL     1       4.904   3.480  13.250  0.00  0.00    +0.000 A 
ATOM     29  C   UNL     1       5.293   4.230  14.363  0.00  0.00    +0.000 A 
BRANCH  27  30
ATOM     30  O   UNL     1       5.472   2.383  11.230  0.00  0.00    +0.000 OA
ATOM     31  H   UNL     1       4.528   2.167  11.322  0.00  0.00    +0.000 HD
ENDBRANCH  27  30
ENDBRANCH  23  24
ENDBRANCH   1  23
TORSDOF 15
ENDMDL
MODEL 3
REMARK VINA RESULT:      -6.5      2.326      5.965
REMARK  Name = 
REMARK  16 active torsions:
REMARK  status: ('A' for Active; 'I' for Inactive)
REMARK    1  A    between atoms: C_1  and  C_2
REMARK    2  A    between atoms: C_2  and  C_3
REMARK    3  A    between atoms: C_3  and  C_4
REMARK    4  A    between atoms: N_6  and  C_7
REMARK    5  A    between atoms: C_7  and  C_8
REMARK    6  A    between atoms: C_7  and  C_16
REMARK    7  A    between atoms: C_8  and  C_9
REMARK    8  A    between atoms: C_12  and  O_13
REMARK    9  A    between atoms: N_18  and  C_19
REMARK   10  A    between atoms: C_19  and  C_20
REMARK   11  A    between atoms: C_20  and  C_21
REMARK   12  A    between atoms: C_21  and  C_22
REMARK   13  A    between atoms: C_22  and  C_23
REMARK   14  A    between atoms: C_23  and  C_24
REMARK   15  A    between atoms: C_24  and  C_25
REMARK   16  A    between atoms: C_25  and  N_26
REMARK                            x       y       z     vdW  Elec       q    Type
REMARK                         _______ _______ _______ _____ _____    ______ ____
ROOT
ATOM      1  C   UNL     1       3.609   5.065  17.392  0.00  0.00    +0.000 C 
ENDROOT
BRANCH   1   4
ATOM      2  C   UNL     1       1.616   3.696  18.206  0.00  0.00    +0.000 C 
ATOM      3  O   UNL     1       0.917   4.088  17.250  0.00  0.00    +0.000 OA
ATOM      4  N   UNL     1       2.906   4.129  18.337  0.00  0.00    +0.000 N 
ATOM      5  H   UNL     1       3.499   3.752  19.075  0.00  0.00    +0.000 HD
BRANCH   2   6
ATOM      6  C   UNL     1       0.970   2.764  19.210  0.00  0.00    +0.000 C 
BRANCH   6   8
ATOM      7  C   UNL     1       1.468   2.582  21.712  0.00  0.00    +0.000 C 
ATOM      8  C   UNL     1       0.997   3.465  20.578  0.00  0.00    +0.000 C 
ENDBRANCH   6   8
ENDBRANCH   2   6
ENDBRANCH   1   4
BRANCH   1   9
ATOM      9  C   UNL     1       4.910   4.413  16.862  0.00  0.00    +0.000 C 
ATOM     10  O   UNL     1       5.007   3.166  16.828  0.00  0.00    +0.000 OA
ATOM     11  N   UNL     1       5.919   5.224  16.382  0.00  0.00    +0.000 N 
ATOM     12  H   UNL     1       5.810   6.232  16.380  0.00  0.00    +0.000 HD
BRANCH  11  13
ATOM     13  C   UNL     1       7.142   4.668  15.805  0.00  0.00    +0.000 C 
BRANCH  13  14
ATOM     14  C   UNL     1       7.229   4.836  14.283  0.00  0.00    +0.000 C 
BRANCH  14  15
ATOM     15  C   UNL     1       5.845   4.818  13.632  0.00  0.00    +0.000 C 
BRANCH  15  16
ATOM     16  C   UNL     1       5.399   3.402  13.270  0.00  0.00    +0.000 C 
BRANCH  16  17
ATOM     17  C   UNL     1       5.516   3.152  11.765  0.00  0.00    +0.000 C 
BRANCH  17  18
ATOM     18  C   UNL     1       4.150   2.845  11.151  0.00  0.00    +0.000 C 
BRANCH  18  19
ATOM     19  C   UNL     1       3.578   4.075  10.448  0.00  0.00    +0.000 C 
BRANCH  19  20
ATOM     20  N   UNL     1       2.813   3.669   9.276  0.00  0.00    +0.000 NA
ATOM     21  H   UNL     1       2.338   2.787   9.465  0.00  0.00    +0.000 HD
ATOM     22  H   UNL     1       3.450   3.489   8.502  0.00  0.00    +0.000 HD
ENDBRANCH  19  20
ENDBRANCH  18  19
ENDBRANCH  17  18
ENDBRANCH  16  17
ENDBRANCH  15  16
ENDBRANCH  14  15
ENDBRANCH  13  14
ENDBRANCH  11  13
ENDBRANCH   1   9
BRANCH   1  23
ATOM     23  C   UNL     1       3.927   6.478  17.956  0.00  0.00    +0.000 C 
BRANCH  23  24
ATOM     24  C   UNL     1       2.763   7.348  18.419  0.00  0.00    +0.000 A 
ATOM     25  C   UNL     1       2.272   7.267  19.733  0.00  0.00    +0.000 A 
ATOM     26  C   UNL     1       1.529   8.317  20.280  0.00  0.00    +0.000 A 
ATOM     27  C   UNL     1       1.139   9.379  19.478  0.00  0.00    +0.000 A 
ATOM     28  C   UNL     1       1.499   9.412  18.139  0.00  0.00    +0.000 A 
ATOM     29  C   UNL     1       2.343   8.424  17.624  0.00  0.00    +0.000 A 
BRANCH  27  30
ATOM     30  O   UNL     1       0.463  10.442  20.003  0.00  0.00    +0.000 OA
ATOM     31  H   UNL     1      -0.117  10.114  20.711  0.00  0.00    +0.000 HD
ENDBRANCH  27  30
ENDBRANCH  23  24
ENDBRANCH   1  23
TORSDOF 15
ENDMDL
MODEL 4
REMARK VINA RESULT:      -6.4      3.414      6.567
REMARK  Name = 
REMARK  16 active torsions:
REMARK  status: ('A' for Active; 'I' for Inactive)
REMARK    1  A    between atoms: C_1  and  C_2
REMARK    2  A    between atoms: C_2  and  C_3
REMARK    3  A    between atoms: C_3  and  C_4
REMARK    4  A    between atoms: N_6  and  C_7
REMARK    5  A    between atoms: C_7  and  C_8
REMARK    6  A    between atoms: C_7  and  C_16
REMARK    7  A    between atoms: C_8  and  C_9
REMARK    8  A    between atoms: C_12  and  O_13
REMARK    9  A    between atoms: N_18  and  C_19
REMARK   10  A    between atoms: C_19  and  C_20
REMARK   11  A    between atoms: C_20  and  C_21
REMARK   12  A    between atoms: C_21  and  C_22
REMARK   13  A    between atoms: C_22  and  C_23
REMARK   14  A    between atoms: C_23  and  C_24
REMARK   15  A    between atoms: C_24  and  C_25
REMARK   16  A    between atoms: C_25  and  N_26
REMARK                            x       y       z     vdW  Elec       q    Type
REMARK                         _______ _______ _______ _____ _____    ______ ____
ROOT
ATOM      1  C   UNL     1       7.002   5.751  18.578  0.00  0.00    +0.000 C 
ENDROOT
BRANCH   1   4
ATOM      2  C   UNL     1       8.109   8.023  18.225  0.00  0.00    +0.000 C 
ATOM      3  O   UNL     1       7.426   8.230  17.201  0.00  0.00    +0.000 OA
ATOM      4  N   UNL     1       7.960   6.859  18.926  0.00  0.00    +0.000 N 
ATOM      5  H   UNL     1       8.462   6.722  19.801  0.00  0.00    +0.000 HD
BRANCH   2   6
ATOM      6  C   UNL     1       9.109   9.087  18.627  0.00  0.00    +0.000 C 
BRANCH   6   8
ATOM      7  C   UNL     1       9.555  11.582  18.283  0.00  0.00    +0.000 C 
ATOM      8  C   UNL     1       8.580  10.437  18.115  0.00  0.00    +0.000 C 
ENDBRANCH   6   8
ENDBRANCH   2   6
ENDBRANCH   1   4
BRANCH   1   9
ATOM      9  C   UNL     1       7.408   5.094  17.236  0.00  0.00    +0.000 C 
ATOM     10  O   UNL     1       8.230   4.151  17.234  0.00  0.00    +0.000 OA
ATOM     11  N   UNL     1       6.809   5.525  16.070  0.00  0.00    +0.000 N 
ATOM     12  H   UNL     1       6.116   6.265  16.092  0.00  0.00    +0.000 HD
BRANCH  11  13
ATOM     13  C   UNL     1       7.098   4.900  14.781  0.00  0.00    +0.000 C 
BRANCH  13  14
ATOM     14  C   UNL     1       6.065   3.843  14.371  0.00  0.00    +0.000 C 
BRANCH  14  15
ATOM     15  C   UNL     1       5.679   3.972  12.896  0.00  0.00    +0.000 C 
BRANCH  15  16
ATOM     16  C   UNL     1       5.768   2.635  12.161  0.00  0.00    +0.000 C 
BRANCH  16  17
ATOM     17  C   UNL     1       4.936   2.652  10.877  0.00  0.00    +0.000 C 
BRANCH  17  18
ATOM     18  C   UNL     1       3.717   3.563  11.023  0.00  0.00    +0.000 C 
BRANCH  18  19
ATOM     19  C   UNL     1       2.717   3.323   9.894  0.00  0.00    +0.000 C 
BRANCH  19  20
ATOM     20  N   UNL     1       2.930   4.290   8.825  0.00  0.00    +0.000 NA
ATOM     21  H   UNL     1       3.648   3.946   8.189  0.00  0.00    +0.000 HD
ATOM     22  H   UNL     1       3.291   5.157   9.220  0.00  0.00    +0.000 HD
ENDBRANCH  19  20
ENDBRANCH  18  19
ENDBRANCH  17  18
ENDBRANCH  16  17
ENDBRANCH  15  16
ENDBRANCH  14  15
ENDBRANCH  13  14
ENDBRANCH  11  13
ENDBRANCH   1   9
BRANCH   1  23
ATOM     23  C   UNL     1       5.500   6.152  18.529  0.00  0.00    +0.000 C 
BRANCH  23  24
ATOM     24  C   UNL     1       4.457   5.040  18.569  0.00  0.00    +0.000 A 
ATOM     25  C   UNL     1       3.395   5.005  17.650  0.00  0.00    +0.000 A 
ATOM     26  C   UNL     1       2.708   3.814  17.402  0.00  0.00    +0.000 A 
ATOM     27  C   UNL     1       2.969   2.691  18.174  0.00  0.00    +0.000 A 
ATOM     28  C   UNL     1       3.922   2.742  19.181  0.00  0.00    +0.000 A 
ATOM     29  C   UNL     1       4.692   3.897  19.347  0.00  0.00    +0.000 A 
BRANCH  27  30
ATOM     30  O   UNL     1       2.353   1.502  17.912  0.00  0.00    +0.000 OA
ATOM     31  H   UNL     1       1.419   1.682  17.710  0.00  0.00    +0.000 HD
ENDBRANCH  27  30
ENDBRANCH  23  24
ENDBRANCH   1  23
TORSDOF 15
ENDMDL
MODEL 5
REMARK VINA RESULT:      -6.4      2.416      6.702
REMARK  Name = 
REMARK  16 active torsions:
REMARK  status: ('A' for Active; 'I' for Inactive)
REMARK    1  A    between atoms: C_1  and  C_2
REMARK    2  A    between atoms: C_2  and  C_3
REMARK    3  A    between atoms: C_3  and  C_4
REMARK    4  A    between atoms: N_6  and  C_7
REMARK    5  A    between atoms: C_7  and  C_8
REMARK    6  A    between atoms: C_7  and  C_16
REMARK    7  A    between atoms: C_8  and  C_9
REMARK    8  A    between atoms: C_12  and  O_13
REMARK    9  A    between atoms: N_18  and  C_19
REMARK   10  A    between atoms: C_19  and  C_20
REMARK   11  A    between atoms: C_20  and  C_21
REMARK   12  A    between atoms: C_21  and  C_22
REMARK   13  A    between atoms: C_22  and  C_23
REMARK   14  A    between atoms: C_23  and  C_24
REMARK   15  A    between atoms: C_24  and  C_25
REMARK   16  A    between atoms: C_25  and  N_26
REMARK                            x       y       z     vdW  Elec       q    Type
REMARK                         _______ _______ _______ _____ _____    ______ ____
ROOT
ATOM      1  C   UNL     1       3.255   6.847  18.101  0.00  0.00    +0.000 C 
ENDROOT
BRANCH   1   4
ATOM      2  C   UNL     1       1.865   8.910  18.669  0.00  0.00    +0.000 C 
ATOM      3  O   UNL     1       1.531   8.420  19.767  0.00  0.00    +0.000 OA
ATOM      4  N   UNL     1       2.680   8.210  17.823  0.00  0.00    +0.000 N 
ATOM      5  H   UNL     1       3.012   8.640  16.962  0.00  0.00    +0.000 HD
BRANCH   2   6
ATOM      6  C   UNL     1       1.310  10.274  18.313  0.00  0.00    +0.000 C 
BRANCH   6   8
ATOM      7  C   UNL     1      -1.176  10.293  18.914  0.00  0.00    +0.000 C 
ATOM      8  C   UNL     1      -0.138  10.075  17.835  0.00  0.00    +0.000 C 
ENDBRANCH   6   8
ENDBRANCH   2   6
ENDBRANCH   1   4
BRANCH   1   9
ATOM      9  C   UNL     1       4.496   6.598  17.207  0.00  0.00    +0.000 C 
ATOM     10  O   UNL     1       4.529   7.074  16.051  0.00  0.00    +0.000 OA
ATOM     11  N   UNL     1       5.567   5.902  17.728  0.00  0.00    +0.000 N 
ATOM     12  H   UNL     1       5.541   5.556  18.681  0.00  0.00    +0.000 HD
BRANCH  11  13
ATOM     13  C   UNL     1       6.794   5.693  16.960  0.00  0.00    +0.000 C 
BRANCH  13  14
ATOM     14  C   UNL     1       6.863   4.318  16.283  0.00  0.00    +0.000 C 
BRANCH  14  15
ATOM     15  C   UNL     1       7.052   4.442  14.771  0.00  0.00    +0.000 C 
BRANCH  15  16
ATOM     16  C   UNL     1       5.861   3.878  13.996  0.00  0.00    +0.000 C 
BRANCH  16  17
ATOM     17  C   UNL     1       6.095   3.958  12.486  0.00  0.00    +0.000 C 
BRANCH  17  18
ATOM     18  C   UNL     1       5.109   3.068  11.729  0.00  0.00    +0.000 C 
BRANCH  18  19
ATOM     19  C   UNL     1       5.732   1.711  11.407  0.00  0.00    +0.000 C 
BRANCH  19  20
ATOM     20  N   UNL     1       7.182   1.835  11.324  0.00  0.00    +0.000 NA
ATOM     21  H   UNL     1       7.437   2.818  11.236  0.00  0.00    +0.000 HD
ATOM     22  H   UNL     1       7.512   1.378  10.475  0.00  0.00    +0.000 HD
ENDBRANCH  19  20
ENDBRANCH  18  19
ENDBRANCH  17  18
ENDBRANCH  16  17
ENDBRANCH  15  16
ENDBRANCH  14  15
ENDBRANCH  13  14
ENDBRANCH  11  13
ENDBRANCH   1   9
BRANCH   1  23
ATOM     23  C   UNL     1       2.264   5.658  17.960  0.00  0.00    +0.000 C 
BRANCH  23  24
ATOM     24  C   UNL     1       2.240   4.606  19.065  0.00  0.00    +0.000 A 
ATOM     25  C   UNL     1       2.740   4.887  20.348  0.00  0.00    +0.000 A 
ATOM     26  C   UNL     1       2.347   4.119  21.447  0.00  0.00    +0.000 A 
ATOM     27  C   UNL     1       1.581   2.979  21.256  0.00  0.00    +0.000 A 
ATOM     28  C   UNL     1       1.189   2.606  19.979  0.00  0.00    +0.000 A 
ATOM     29  C   UNL     1       1.480   3.440  18.895  0.00  0.00    +0.000 A 
BRANCH  27  30
ATOM     30  O   UNL     1       1.138   2.246  22.318  0.00  0.00    +0.000 OA
ATOM     31  H   UNL     1       0.745   2.857  22.965  0.00  0.00    +0.000 HD
ENDBRANCH  27  30
ENDBRANCH  23  24
ENDBRANCH   1  23
TORSDOF 15
ENDMDL
MODEL 6
REMARK VINA RESULT:      -6.4      3.865      7.068
REMARK  Name = 
REMARK  16 active torsions:
REMARK  status: ('A' for Active; 'I' for Inactive)
REMARK    1  A    between atoms: C_1  and  C_2
REMARK    2  A    between atoms: C_2  and  C_3
REMARK    3  A    between atoms: C_3  and  C_4
REMARK    4  A    between atoms: N_6  and  C_7
REMARK    5  A    between atoms: C_7  and  C_8
REMARK    6  A    between atoms: C_7  and  C_16
REMARK    7  A    between atoms: C_8  and  C_9
REMARK    8  A    between atoms: C_12  and  O_13
REMARK    9  A    between atoms: N_18  and  C_19
REMARK   10  A    between atoms: C_19  and  C_20
REMARK   11  A    between atoms: C_20  and  C_21
REMARK   12  A    between atoms: C_21  and  C_22
REMARK   13  A    between atoms: C_22  and  C_23
REMARK   14  A    between atoms: C_23  and  C_24
REMARK   15  A    between atoms: C_24  and  C_25
REMARK   16  A    between atoms: C_25  and  N_26
REMARK                            x       y       z     vdW  Elec       q    Type
REMARK                         _______ _______ _______ _____ _____    ______ ____
ROOT
ATOM      1  C   UNL     1       3.412   6.178  17.707  0.00  0.00    +0.000 C 
ENDROOT
BRANCH   1   4
ATOM      2  C   UNL     1       1.785   4.345  18.416  0.00  0.00    +0.000 C 
ATOM      3  O   UNL     1       1.657   3.960  17.237  0.00  0.00    +0.000 OA
ATOM      4  N   UNL     1       2.602   5.401  18.709  0.00  0.00    +0.000 N 
ATOM      5  H   UNL     1       2.763   5.668  19.679  0.00  0.00    +0.000 HD
BRANCH   2   6
ATOM      6  C   UNL     1       0.986   3.621  19.480  0.00  0.00    +0.000 C 
BRANCH   6   8
ATOM      7  C   UNL     1       2.239   2.900  21.590  0.00  0.00    +0.000 C 
ATOM      8  C   UNL     1       1.559   4.029  20.847  0.00  0.00    +0.000 C 
ENDBRANCH   6   8
ENDBRANCH   2   6
ENDBRANCH   1   4
BRANCH   1   9
ATOM      9  C   UNL     1       4.908   5.793  17.815  0.00  0.00    +0.000 C 
ATOM     10  O   UNL     1       5.224   4.630  18.150  0.00  0.00    +0.000 OA
ATOM     11  N   UNL     1       5.867   6.729  17.483  0.00  0.00    +0.000 N 
ATOM     12  H   UNL     1       5.594   7.657  17.176  0.00  0.00    +0.000 HD
BRANCH  11  13
ATOM     13  C   UNL     1       7.292   6.407  17.498  0.00  0.00    +0.000 C 
BRANCH  13  14
ATOM     14  C   UNL     1       8.137   7.415  18.288  0.00  0.00    +0.000 C 
BRANCH  14  15
ATOM     15  C   UNL     1       7.980   8.835  17.742  0.00  0.00    +0.000 C 
BRANCH  15  16
ATOM     16  C   UNL     1       8.908   9.826  18.443  0.00  0.00    +0.000 C 
BRANCH  16  17
ATOM     17  C   UNL     1       8.662  11.256  17.959  0.00  0.00    +0.000 C 
BRANCH  17  18
ATOM     18  C   UNL     1       9.614  12.239  18.639  0.00  0.00    +0.000 C 
BRANCH  18  19
ATOM     19  C   UNL     1       9.723  13.537  17.841  0.00  0.00    +0.000 C 
BRANCH  19  20
ATOM     20  N   UNL     1      10.689  13.379  16.761  0.00  0.00    +0.000 NA
ATOM     21  H   UNL     1      11.541  12.953  17.123  0.00  0.00    +0.000 HD
ATOM     22  H   UNL     1      10.956  14.297  16.408  0.00  0.00    +0.000 HD
ENDBRANCH  19  20
ENDBRANCH  18  19
ENDBRANCH  17  18
ENDBRANCH  16  17
ENDBRANCH  15  16
ENDBRANCH  14  15
ENDBRANCH  13  14
ENDBRANCH  11  13
ENDBRANCH   1   9
BRANCH   1  23
ATOM     23  C   UNL     1       3.265   7.724  17.775  0.00  0.00    +0.000 C 
BRANCH  23  24
ATOM     24  C   UNL     1       2.042   8.301  18.480  0.00  0.00    +0.000 A 
ATOM     25  C   UNL     1       1.854   8.137  19.863  0.00  0.00    +0.000 A 
ATOM     26  C   UNL     1       1.005   8.991  20.571  0.00  0.00    +0.000 A 
ATOM     27  C   UNL     1       0.223   9.910  19.889  0.00  0.00    +0.000 A 
ATOM     28  C   UNL     1       0.292   9.997  18.506  0.00  0.00    +0.000 A 
ATOM     29  C   UNL     1       1.229   9.228  17.811  0.00  0.00    +0.000 A 
BRANCH  27  30
ATOM     30  O   UNL     1      -0.570  10.793  20.563  0.00  0.00    +0.000 OA
ATOM     31  H   UNL     1      -0.901  10.354  21.364  0.00  0.00    +0.000 HD
ENDBRANCH  27  30
ENDBRANCH  23  24
ENDBRANCH   1  23
TORSDOF 15
ENDMDL
MODEL 7
REMARK VINA RESULT:      -6.4      2.101      5.817
REMARK  Name = 
REMARK  16 active torsions:
REMARK  status: ('A' for Active; 'I' for Inactive)
REMARK    1  A    between atoms: C_1  and  C_2
REMARK    2  A    between atoms: C_2  and  C_3
REMARK    3  A    between atoms: C_3  and  C_4
REMARK    4  A    between atoms: N_6  and  C_7
REMARK    5  A    between atoms: C_7  and  C_8
REMARK    6  A    between atoms: C_7  and  C_16
REMARK    7  A    between atoms: C_8  and  C_9
REMARK    8  A    between atoms: C_12  and  O_13
REMARK    9  A    between atoms: N_18  and  C_19
REMARK   10  A    between atoms: C_19  and  C_20
REMARK   11  A    between atoms: C_20  and  C_21
REMARK   12  A    between atoms: C_21  and  C_22
REMARK   13  A    between atoms: C_22  and  C_23
REMARK   14  A    between atoms: C_23  and  C_24
REMARK   15  A    between atoms: C_24  and  C_25
REMARK   16  A    between atoms: C_25  and  N_26
REMARK                            x       y       z     vdW  Elec       q    Type
REMARK                         _______ _______ _______ _____ _____    ______ ____
ROOT
ATOM      1  C   UNL     1       3.203   5.959  17.975  0.00  0.00    +0.000 C 
ENDROOT
BRANCH   1   4
ATOM      2  C   UNL     1       1.560   4.135  18.673  0.00  0.00    +0.000 C 
ATOM      3  O   UNL     1       1.543   3.666  17.518  0.00  0.00    +0.000 OA
ATOM      4  N   UNL     1       2.325   5.232  18.958  0.00  0.00    +0.000 N 
ATOM      5  H   UNL     1       2.397   5.570  19.916  0.00  0.00    +0.000 HD
BRANCH   2   6
ATOM      6  C   UNL     1       0.687   3.466  19.714  0.00  0.00    +0.000 C 
BRANCH   6   8
ATOM      7  C   UNL     1       2.203   3.034  21.729  0.00  0.00    +0.000 C 
ATOM      8  C   UNL     1       1.566   2.464  20.481  0.00  0.00    +0.000 C 
ENDBRANCH   6   8
ENDBRANCH   2   6
ENDBRANCH   1   4
BRANCH   1   9
ATOM      9  C   UNL     1       4.647   5.402  18.034  0.00  0.00    +0.000 C 
ATOM     10  O   UNL     1       4.896   4.405  18.747  0.00  0.00    +0.000 OA
ATOM     11  N   UNL     1       5.623   5.986  17.252  0.00  0.00    +0.000 N 
ATOM     12  H   UNL     1       5.397   6.771  16.650  0.00  0.00    +0.000 HD
BRANCH  11  13
ATOM     13  C   UNL     1       6.988   5.465  17.211  0.00  0.00    +0.000 C 
BRANCH  13  14
ATOM     14  C   UNL     1       7.199   4.391  16.136  0.00  0.00    +0.000 C 
BRANCH  14  15
ATOM     15  C   UNL     1       6.106   4.439  15.067  0.00  0.00    +0.000 C 
BRANCH  15  16
ATOM     16  C   UNL     1       6.682   4.373  13.654  0.00  0.00    +0.000 C 
BRANCH  16  17
ATOM     17  C   UNL     1       5.765   3.585  12.717  0.00  0.00    +0.000 C 
BRANCH  17  18
ATOM     18  C   UNL     1       6.572   2.668  11.798  0.00  0.00    +0.000 C 
BRANCH  18  19
ATOM     19  C   UNL     1       5.700   1.544  11.242  0.00  0.00    +0.000 C 
BRANCH  19  20
ATOM     20  N   UNL     1       6.389   0.267  11.374  0.00  0.00    +0.000 NA
ATOM     21  H   UNL     1       7.372   0.381  11.132  0.00  0.00    +0.000 HD
ATOM     22  H   UNL     1       6.004  -0.396  10.703  0.00  0.00    +0.000 HD
ENDBRANCH  19  20
ENDBRANCH  18  19
ENDBRANCH  17  18
ENDBRANCH  16  17
ENDBRANCH  15  16
ENDBRANCH  14  15
ENDBRANCH  13  14
ENDBRANCH  11  13
ENDBRANCH   1   9
BRANCH   1  23
ATOM     23  C   UNL     1       3.235   7.506  18.116  0.00  0.00    +0.000 C 
BRANCH  23  24
ATOM     24  C   UNL     1       1.999   8.204  18.677  0.00  0.00    +0.000 A 
ATOM     25  C   UNL     1       1.705   8.171  20.050  0.00  0.00    +0.000 A 
ATOM     26  C   UNL     1       0.858   9.125  20.618  0.00  0.00    +0.000 A 
ATOM     27  C   UNL     1       0.179  10.020  19.805  0.00  0.00    +0.000 A 
ATOM     28  C   UNL     1       0.351   9.982  18.429  0.00  0.00    +0.000 A 
ATOM     29  C   UNL     1       1.290   9.108  17.873  0.00  0.00    +0.000 A 
BRANCH  27  30
ATOM     30  O   UNL     1      -0.608  10.997  20.341  0.00  0.00    +0.000 OA
ATOM     31  H   UNL     1      -0.483  11.808  19.819  0.00  0.00    +0.000 HD
ENDBRANCH  27  30
ENDBRANCH  23  24
ENDBRANCH   1  23
TORSDOF 15
ENDMDL
MODEL 8
REMARK VINA RESULT:      -6.3      2.439      6.066
REMARK  Name = 
REMARK  16 active torsions:
REMARK  status: ('A' for Active; 'I' for Inactive)
REMARK    1  A    between atoms: C_1  and  C_2
REMARK    2  A    between atoms: C_2  and  C_3
REMARK    3  A    between atoms: C_3  and  C_4
REMARK    4  A    between atoms: N_6  and  C_7
REMARK    5  A    between atoms: C_7  and  C_8
REMARK    6  A    between atoms: C_7  and  C_16
REMARK    7  A    between atoms: C_8  and  C_9
REMARK    8  A    between atoms: C_12  and  O_13
REMARK    9  A    between atoms: N_18  and  C_19
REMARK   10  A    between atoms: C_19  and  C_20
REMARK   11  A    between atoms: C_20  and  C_21
REMARK   12  A    between atoms: C_21  and  C_22
REMARK   13  A    between atoms: C_22  and  C_23
REMARK   14  A    between atoms: C_23  and  C_24
REMARK   15  A    between atoms: C_24  and  C_25
REMARK   16  A    between atoms: C_25  and  N_26
REMARK                            x       y       z     vdW  Elec       q    Type
REMARK                         _______ _______ _______ _____ _____    ______ ____
ROOT
ATOM      1  C   UNL     1       3.099   5.889  17.844  0.00  0.00    +0.000 C 
ENDROOT
BRANCH   1   4
ATOM      2  C   UNL     1       1.831   3.727  18.321  0.00  0.00    +0.000 C 
ATOM      3  O   UNL     1       1.232   3.802  17.229  0.00  0.00    +0.000 OA
ATOM      4  N   UNL     1       2.730   4.693  18.679  0.00  0.00    +0.000 N 
ATOM      5  H   UNL     1       3.273   4.593  19.535  0.00  0.00    +0.000 HD
BRANCH   2   6
ATOM      6  C   UNL     1       1.498   2.557  19.223  0.00  0.00    +0.000 C 
BRANCH   6   8
ATOM      7  C   UNL     1       1.635   2.560  21.778  0.00  0.00    +0.000 C 
ATOM      8  C   UNL     1       0.965   3.130  20.547  0.00  0.00    +0.000 C 
ENDBRANCH   6   8
ENDBRANCH   2   6
ENDBRANCH   1   4
BRANCH   1   9
ATOM      9  C   UNL     1       4.358   5.582  16.995  0.00  0.00    +0.000 C 
ATOM     10  O   UNL     1       5.263   6.440  16.899  0.00  0.00    +0.000 OA
ATOM     11  N   UNL     1       4.481   4.340  16.406  0.00  0.00    +0.000 N 
ATOM     12  H   UNL     1       3.756   3.641  16.525  0.00  0.00    +0.000 HD
BRANCH  11  13
ATOM     13  C   UNL     1       5.674   3.964  15.650  0.00  0.00    +0.000 C 
BRANCH  13  14
ATOM     14  C   UNL     1       5.661   4.465  14.200  0.00  0.00    +0.000 C 
BRANCH  14  15
ATOM     15  C   UNL     1       6.295   3.452  13.246  0.00  0.00    +0.000 C 
BRANCH  15  16
ATOM     16  C   UNL     1       5.827   3.650  11.805  0.00  0.00    +0.000 C 
BRANCH  16  17
ATOM     17  C   UNL     1       4.634   2.748  11.480  0.00  0.00    +0.000 C 
BRANCH  17  18
ATOM     18  C   UNL     1       3.428   3.572  11.029  0.00  0.00    +0.000 C 
BRANCH  18  19
ATOM     19  C   UNL     1       3.477   3.837   9.525  0.00  0.00    +0.000 C 
BRANCH  19  20
ATOM     20  N   UNL     1       2.375   4.707   9.136  0.00  0.00    +0.000 NA
ATOM     21  H   UNL     1       2.173   4.582   8.145  0.00  0.00    +0.000 HD
ATOM     22  H   UNL     1       2.655   5.680   9.250  0.00  0.00    +0.000 HD
ENDBRANCH  19  20
ENDBRANCH  18  19
ENDBRANCH  17  18
ENDBRANCH  16  17
ENDBRANCH  15  16
ENDBRANCH  14  15
ENDBRANCH  13  14
ENDBRANCH  11  13
ENDBRANCH   1   9
BRANCH   1  23
ATOM     23  C   UNL     1       3.309   7.217  18.626  0.00  0.00    +0.000 C 
BRANCH  23  24
ATOM     24  C   UNL     1       2.077   8.029  19.010  0.00  0.00    +0.000 A 
ATOM     25  C   UNL     1       1.629   8.087  20.340  0.00  0.00    +0.000 A 
ATOM     26  C   UNL     1       0.800   9.128  20.766  0.00  0.00    +0.000 A 
ATOM     27  C   UNL     1       0.289  10.027  19.843  0.00  0.00    +0.000 A 
ATOM     28  C   UNL     1       0.611   9.908  18.499  0.00  0.00    +0.000 A 
ATOM     29  C   UNL     1       1.535   8.941  18.092  0.00  0.00    +0.000 A 
BRANCH  27  30
ATOM     30  O   UNL     1      -0.475  11.085  20.243  0.00  0.00    +0.000 OA
ATOM     31  H   UNL     1      -0.298  11.249  21.185  0.00  0.00    +0.000 HD
ENDBRANCH  27  30
ENDBRANCH  23  24
ENDBRANCH   1  23
TORSDOF 15
ENDMDL
MODEL 9
REMARK VINA RESULT:      -6.3      3.408      6.572
REMARK  Name = 
REMARK  16 active torsions:
REMARK  status: ('A' for Active; 'I' for Inactive)
REMARK    1  A    between atoms: C_1  and  C_2
REMARK    2  A    between atoms: C_2  and  C_3
REMARK    3  A    between atoms: C_3  and  C_4
REMARK    4  A    between atoms: N_6  and  C_7
REMARK    5  A    between atoms: C_7  and  C_8
REMARK    6  A    between atoms: C_7  and  C_16
REMARK    7  A    between atoms: C_8  and  C_9
REMARK    8  A    between atoms: C_12  and  O_13
REMARK    9  A    between atoms: N_18  and  C_19
REMARK   10  A    between atoms: C_19  and  C_20
REMARK   11  A    between atoms: C_20  and  C_21
REMARK   12  A    between atoms: C_21  and  C_22
REMARK   13  A    between atoms: C_22  and  C_23
REMARK   14  A    between atoms: C_23  and  C_24
REMARK   15  A    between atoms: C_24  and  C_25
REMARK   16  A    between atoms: C_25  and  N_26
REMARK                            x       y       z     vdW  Elec       q    Type
REMARK                         _______ _______ _______ _____ _____    ______ ____
ROOT
ATOM      1  C   UNL     1       2.995   6.289  17.752  0.00  0.00    +0.000 C 
ENDROOT
BRANCH   1   4
ATOM      2  C   UNL     1       1.613   4.225  18.335  0.00  0.00    +0.000 C 
ATOM      3  O   UNL     1       1.342   4.029  17.133  0.00  0.00    +0.000 OA
ATOM      4  N   UNL     1       2.391   5.288  18.700  0.00  0.00    +0.000 N 
ATOM      5  H   UNL     1       2.672   5.405  19.671  0.00  0.00    +0.000 HD
BRANCH   2   6
ATOM      6  C   UNL     1       1.025   3.267  19.350  0.00  0.00    +0.000 C 
BRANCH   6   8
ATOM      7  C   UNL     1       2.139   2.923  21.626  0.00  0.00    +0.000 C 
ATOM      8  C   UNL     1       1.315   3.838  20.748  0.00  0.00    +0.000 C 
ENDBRANCH   6   8
ENDBRANCH   2   6
ENDBRANCH   1   4
BRANCH   1   9
ATOM      9  C   UNL     1       4.409   5.830  17.319  0.00  0.00    +0.000 C 
ATOM     10  O   UNL     1       4.785   6.017  16.141  0.00  0.00    +0.000 OA
ATOM     11  N   UNL     1       5.250   5.272  18.260  0.00  0.00    +0.000 N 
ATOM     12  H   UNL     1       4.944   5.162  19.221  0.00  0.00    +0.000 HD
BRANCH  11  13
ATOM     13  C   UNL     1       6.620   4.881  17.931  0.00  0.00    +0.000 C 
BRANCH  13  14
ATOM     14  C   UNL     1       7.679   5.834  18.501  0.00  0.00    +0.000 C 
BRANCH  14  15
ATOM     15  C   UNL     1       7.634   7.202  17.819  0.00  0.00    +0.000 C 
BRANCH  15  16
ATOM     16  C   UNL     1       8.485   8.237  18.553  0.00  0.00    +0.000 C 
BRANCH  16  17
ATOM     17  C   UNL     1       8.359   9.618  17.907  0.00  0.00    +0.000 C 
BRANCH  17  18
ATOM     18  C   UNL     1       9.138  10.669  18.698  0.00  0.00    +0.000 C 
BRANCH  18  19
ATOM     19  C   UNL     1       9.335  11.940  17.874  0.00  0.00    +0.000 C 
BRANCH  19  20
ATOM     20  N   UNL     1       9.602  13.069  18.755  0.00  0.00    +0.000 NA
ATOM     21  H   UNL     1      10.339  13.649  18.356  0.00  0.00    +0.000 HD
ATOM     22  H   UNL     1       9.960  12.726  19.645  0.00  0.00    +0.000 HD
ENDBRANCH  19  20
ENDBRANCH  18  19
ENDBRANCH  17  18
ENDBRANCH  16  17
ENDBRANCH  15  16
ENDBRANCH  14  15
ENDBRANCH  13  14
ENDBRANCH  11  13
ENDBRANCH   1   9
BRANCH   1  23
ATOM     23  C   UNL     1       3.058   7.754  18.269  0.00  0.00    +0.000 C 
BRANCH  23  24
ATOM     24  C   UNL     1       1.781   8.378  18.821  0.00  0.00    +0.000 A 
ATOM     25  C   UNL     1       1.480   8.328  20.193  0.00  0.00    +0.000 A 
ATOM     26  C   UNL     1       0.575   9.232  20.755  0.00  0.00    +0.000 A 
ATOM     27  C   UNL     1      -0.149  10.086  19.937  0.00  0.00    +0.000 A 
ATOM     28  C   UNL     1       0.034  10.058  18.562  0.00  0.00    +0.000 A 
ATOM     29  C   UNL     1       1.025   9.240  18.012  0.00  0.00    +0.000 A 
BRANCH  27  30
ATOM     30  O   UNL     1      -0.995  11.016  20.467  0.00  0.00    +0.000 OA
ATOM     31  H   UNL     1      -0.854  11.041  21.429  0.00  0.00    +0.000 HD
ENDBRANCH  27  30
ENDBRANCH  23  24
ENDBRANCH   1  23
TORSDOF 15
ENDMDL
