MODEL 1
REMARK VINA RESULT:      -8.7      0.000      0.000
REMARK  Name = 
REMARK  7 active torsions:
REMARK  status: ('A' for Active; 'I' for Inactive)
REMARK    1  A    between atoms: C_1  and  O_2
REMARK    2  A    between atoms: O_2  and  C_3
REMARK    3  A    between atoms: C_3  and  C_5
REMARK    4  A    between atoms: C_15  and  C_16
REMARK    5  A    between atoms: C_19  and  C_20
REMARK    6  A    between atoms: C_23  and  S_24
REMARK    7  A    between atoms: S_24  and  C_25
REMARK                            x       y       z     vdW  Elec       q    Type
REMARK                         _______ _______ _______ _____ _____    ______ ____
ROOT
ATOM      1  C   UNL     1       5.186   5.086  18.563  0.00  0.00    +0.000 C 
ATOM      2  C   UNL     1       4.149   5.562  17.408  0.00  0.00    +0.000 C 
ATOM      3  C   UNL     1       3.250   4.418  16.831  0.00  0.00    +0.000 C 
ATOM      4  C   UNL     1       3.108   3.464  18.008  0.00  0.00    +0.000 C 
ATOM      5  C   UNL     1       3.471   2.111  18.574  0.00  0.00    +0.000 C 
ATOM      6  C   UNL     1       4.556   2.564  19.618  0.00  0.00    +0.000 C 
ATOM      7  C   UNL     1       4.504   4.137  19.650  0.00  0.00    +0.000 C 
ATOM      8  N   UNL     1       3.078   4.213  19.320  0.00  0.00    +0.000 NA
ATOM      9  C   UNL     1       2.599   5.602  19.333  0.00  0.00    +0.000 C 
ATOM     10  C   UNL     1       3.115   6.384  18.157  0.00  0.00    +0.000 C 
ATOM     11  C   UNL     1       2.679   7.595  17.781  0.00  0.00    +0.000 C 
ENDROOT
BRANCH  11  12
ATOM     12  C   UNL     1       1.797   8.396  18.639  0.00  0.00    +0.000 A 
ATOM     13  C   UNL     1       1.030   9.394  18.033  0.00  0.00    +0.000 A 
ATOM     14  C   UNL     1       0.240  10.239  18.805  0.00  0.00    +0.000 A 
ATOM     15  C   UNL     1       0.156  10.119  20.200  0.00  0.00    +0.000 A 
ATOM     16  C   UNL     1       0.932   9.104  20.794  0.00  0.00    +0.000 A 
ATOM     17  C   UNL     1       1.746   8.254  20.027  0.00  0.00    +0.000 A 
BRANCH  15  18
ATOM     18  C   UNL     1      -0.700  11.032  20.998  0.00  0.00    +0.000 A 
ATOM     19  C   UNL     1      -0.712  10.981  22.405  0.00  0.00    +0.000 A 
ATOM     20  C   UNL     1      -1.542  11.815  23.165  0.00  0.00    +0.000 A 
ATOM     21  C   UNL     1      -2.382  12.744  22.546  0.00  0.00    +0.000 A 
ATOM     22  C   UNL     1      -2.382  12.810  21.153  0.00  0.00    +0.000 A 
ATOM     23  C   UNL     1      -1.558  11.966  20.392  0.00  0.00    +0.000 A 
BRANCH  21  24
ATOM     24  S   UNL     1      -3.445  13.727  23.592  0.00  0.00    +0.000 S 
ATOM     25  C   UNL     1      -4.302  12.462  24.566  0.00  0.00    +0.000 C 
ENDBRANCH  21  24
ENDBRANCH  15  18
ENDBRANCH  11  12
BRANCH   1  26
ATOM     26  C   UNL     1       6.520   4.578  18.073  0.00  0.00    +0.000 C 
ATOM     27  O   UNL     1       6.747   4.142  16.954  0.00  0.00    +0.000 OA
BRANCH  26  29
ATOM     28  C   UNL     1       7.966   6.135  19.106  0.00  0.00    +0.000 C 
ATOM     29  O   UNL     1       7.461   4.803  19.038  0.00  0.00    +0.000 OA
ENDBRANCH  26  29
ENDBRANCH   1  26
TORSDOF 5
ENDMDL
MODEL 2
REMARK VINA RESULT:      -8.2      0.467      1.339
REMARK  Name = 
REMARK  7 active torsions:
REMARK  status: ('A' for Active; 'I' for Inactive)
REMARK    1  A    between atoms: C_1  and  O_2
REMARK    2  A    between atoms: O_2  and  C_3
REMARK    3  A    between atoms: C_3  and  C_5
REMARK    4  A    between atoms: C_15  and  C_16
REMARK    5  A    between atoms: C_19  and  C_20
REMARK    6  A    between atoms: C_23  and  S_24
REMARK    7  A    between atoms: S_24  and  C_25
REMARK                            x       y       z     vdW  Elec       q    Type
REMARK                         _______ _______ _______ _____ _____    ______ ____
ROOT
ATOM      1  C   UNL     1       5.083   5.166  18.542  0.00  0.00    +0.000 C 
ATOM      2  C   UNL     1       4.035   5.594  17.378  0.00  0.00    +0.000 C 
ATOM      3  C   UNL     1       3.091   4.442  16.898  0.00  0.00    +0.000 C 
ATOM      4  C   UNL     1       2.948   3.573  18.138  0.00  0.00    +0.000 C 
ATOM      5  C   UNL     1       3.286   2.250  18.787  0.00  0.00    +0.000 C 
ATOM      6  C   UNL     1       4.406   2.739  19.775  0.00  0.00    +0.000 C 
ATOM      7  C   UNL     1       4.398   4.312  19.703  0.00  0.00    +0.000 C 
ATOM      8  N   UNL     1       2.969   4.408  19.398  0.00  0.00    +0.000 NA
ATOM      9  C   UNL     1       2.529   5.808  19.328  0.00  0.00    +0.000 C 
ATOM     10  C   UNL     1       3.041   6.494  18.091  0.00  0.00    +0.000 C 
ATOM     11  C   UNL     1       2.631   7.691  17.644  0.00  0.00    +0.000 C 
ENDROOT
BRANCH  11  12
ATOM     12  C   UNL     1       1.791   8.572  18.464  0.00  0.00    +0.000 A 
ATOM     13  C   UNL     1       1.818   8.395  19.849  0.00  0.00    +0.000 A 
ATOM     14  C   UNL     1       0.982   9.143  20.670  0.00  0.00    +0.000 A 
ATOM     15  C   UNL     1       0.102  10.111  20.161  0.00  0.00    +0.000 A 
ATOM     16  C   UNL     1       0.092  10.280  18.763  0.00  0.00    +0.000 A 
ATOM     17  C   UNL     1       0.922   9.521  17.921  0.00  0.00    +0.000 A 
BRANCH  15  18
ATOM     18  C   UNL     1      -0.776  10.899  21.062  0.00  0.00    +0.000 A 
ATOM     19  C   UNL     1      -1.588  11.938  20.567  0.00  0.00    +0.000 A 
ATOM     20  C   UNL     1      -2.393  12.709  21.415  0.00  0.00    +0.000 A 
ATOM     21  C   UNL     1      -2.430  12.460  22.789  0.00  0.00    +0.000 A 
ATOM     22  C   UNL     1      -1.634  11.434  23.296  0.00  0.00    +0.000 A 
ATOM     23  C   UNL     1      -0.818  10.669  22.448  0.00  0.00    +0.000 A 
BRANCH  21  24
ATOM     24  S   UNL     1      -3.443  13.529  23.799  0.00  0.00    +0.000 S 
ATOM     25  C   UNL     1      -4.962  13.657  22.820  0.00  0.00    +0.000 C 
ENDBRANCH  21  24
ENDBRANCH  15  18
ENDBRANCH  11  12
BRANCH   1  26
ATOM     26  C   UNL     1       6.391   4.588  18.060  0.00  0.00    +0.000 C 
ATOM     27  O   UNL     1       6.585   4.087  16.963  0.00  0.00    +0.000 OA
BRANCH  26  29
ATOM     28  C   UNL     1       7.880   6.155  19.013  0.00  0.00    +0.000 C 
ATOM     29  O   UNL     1       7.354   4.829  18.999  0.00  0.00    +0.000 OA
ENDBRANCH  26  29
ENDBRANCH   1  26
TORSDOF 5
ENDMDL
MODEL 3
REMARK VINA RESULT:      -8.2      0.711      1.449
REMARK  Name = 
REMARK  7 active torsions:
REMARK  status: ('A' for Active; 'I' for Inactive)
REMARK    1  A    between atoms: C_1  and  O_2
REMARK    2  A    between atoms: O_2  and  C_3
REMARK    3  A    between atoms: C_3  and  C_5
REMARK    4  A    between atoms: C_15  and  C_16
REMARK    5  A    between atoms: C_19  and  C_20
REMARK    6  A    between atoms: C_23  and  S_24
REMARK    7  A    between atoms: S_24  and  C_25
REMARK                            x       y       z     vdW  Elec       q    Type
REMARK                         _______ _______ _______ _____ _____    ______ ____
ROOT
ATOM      1  C   UNL     1       5.132   5.164  18.645  0.00  0.00    +0.000 C 
ATOM      2  C   UNL     1       4.093   5.626  17.486  0.00  0.00    +0.000 C 
ATOM      3  C   UNL     1       3.199   4.475  16.918  0.00  0.00    +0.000 C 
ATOM      4  C   UNL     1       3.062   3.529  18.102  0.00  0.00    +0.000 C 
ATOM      5  C   UNL     1       3.431   2.181  18.678  0.00  0.00    +0.000 C 
ATOM      6  C   UNL     1       4.515   2.647  19.717  0.00  0.00    +0.000 C 
ATOM      7  C   UNL     1       4.455   4.219  19.738  0.00  0.00    +0.000 C 
ATOM      8  N   UNL     1       3.029   4.287  19.409  0.00  0.00    +0.000 NA
ATOM      9  C   UNL     1       2.544   5.674  19.413  0.00  0.00    +0.000 C 
ATOM     10  C   UNL     1       3.056   6.449  18.230  0.00  0.00    +0.000 C 
ATOM     11  C   UNL     1       2.614   7.656  17.846  0.00  0.00    +0.000 C 
ENDROOT
BRANCH  11  12
ATOM     12  C   UNL     1       1.729   8.459  18.698  0.00  0.00    +0.000 A 
ATOM     13  C   UNL     1       0.945   9.438  18.084  0.00  0.00    +0.000 A 
ATOM     14  C   UNL     1       0.150  10.285  18.849  0.00  0.00    +0.000 A 
ATOM     15  C   UNL     1       0.079  10.186  20.247  0.00  0.00    +0.000 A 
ATOM     16  C   UNL     1       0.872   9.190  20.849  0.00  0.00    +0.000 A 
ATOM     17  C   UNL     1       1.690   8.337  20.089  0.00  0.00    +0.000 A 
BRANCH  15  18
ATOM     18  C   UNL     1      -0.782  11.100  21.038  0.00  0.00    +0.000 A 
ATOM     19  C   UNL     1      -1.557  12.097  20.414  0.00  0.00    +0.000 A 
ATOM     20  C   UNL     1      -2.346  12.985  21.155  0.00  0.00    +0.000 A 
ATOM     21  C   UNL     1      -2.403  12.901  22.548  0.00  0.00    +0.000 A 
ATOM     22  C   UNL     1      -1.645  11.918  23.183  0.00  0.00    +0.000 A 
ATOM     23  C   UNL     1      -0.845  11.035  22.441  0.00  0.00    +0.000 A 
BRANCH  21  24
ATOM     24  S   UNL     1      -3.393  14.110  23.413  0.00  0.00    +0.000 S 
ATOM     25  C   UNL     1      -3.948  15.188  22.067  0.00  0.00    +0.000 C 
ENDBRANCH  21  24
ENDBRANCH  15  18
ENDBRANCH  11  12
BRANCH   1  26
ATOM     26  C   UNL     1       6.469   4.659  18.157  0.00  0.00    +0.000 C 
ATOM     27  O   UNL     1       7.496   4.615  18.817  0.00  0.00    +0.000 OA
BRANCH  26  29
ATOM     28  C   UNL     1       7.162   4.698  15.898  0.00  0.00    +0.000 C 
ATOM     29  O   UNL     1       6.314   4.141  16.902  0.00  0.00    +0.000 OA
ENDBRANCH  26  29
ENDBRANCH   1  26
TORSDOF 5
ENDMDL
MODEL 4
REMARK VINA RESULT:      -8.2      5.977      8.025
REMARK  Name = 
REMARK  7 active torsions:
REMARK  status: ('A' for Active; 'I' for Inactive)
REMARK    1  A    between atoms: C_1  and  O_2
REMARK    2  A    between atoms: O_2  and  C_3
REMARK    3  A    between atoms: C_3  and  C_5
REMARK    4  A    between atoms: C_15  and  C_16
REMARK    5  A    between atoms: C_19  and  C_20
REMARK    6  A    between atoms: C_23  and  S_24
REMARK    7  A    between atoms: S_24  and  C_25
REMARK                            x       y       z     vdW  Elec       q    Type
REMARK                         _______ _______ _______ _____ _____    ______ ____
ROOT
ATOM      1  C   UNL     1       4.503   3.481  19.453  0.00  0.00    +0.000 C 
ATOM      2  C   UNL     1       5.106   3.707  17.963  0.00  0.00    +0.000 C 
ATOM      3  C   UNL     1       4.025   3.898  16.847  0.00  0.00    +0.000 C 
ATOM      4  C   UNL     1       2.868   4.543  17.595  0.00  0.00    +0.000 C 
ATOM      5  C   UNL     1       1.463   4.365  18.123  0.00  0.00    +0.000 C 
ATOM      6  C   UNL     1       1.796   4.186  19.650  0.00  0.00    +0.000 C 
ATOM      7  C   UNL     1       3.329   4.504  19.804  0.00  0.00    +0.000 C 
ATOM      8  N   UNL     1       3.364   5.456  18.692  0.00  0.00    +0.000 NA
ATOM      9  C   UNL     1       4.692   6.071  18.556  0.00  0.00    +0.000 C 
ATOM     10  C   UNL     1       5.706   5.101  18.016  0.00  0.00    +0.000 C 
ATOM     11  C   UNL     1       6.932   5.425  17.580  0.00  0.00    +0.000 C 
ENDROOT
BRANCH  11  12
ATOM     12  C   UNL     1       7.503   6.758  17.808  0.00  0.00    +0.000 A 
ATOM     13  C   UNL     1       8.347   6.926  18.909  0.00  0.00    +0.000 A 
ATOM     14  C   UNL     1       8.850   8.184  19.223  0.00  0.00    +0.000 A 
ATOM     15  C   UNL     1       8.560   9.321  18.454  0.00  0.00    +0.000 A 
ATOM     16  C   UNL     1       7.711   9.132  17.345  0.00  0.00    +0.000 A 
ATOM     17  C   UNL     1       7.185   7.870  17.025  0.00  0.00    +0.000 A 
BRANCH  15  18
ATOM     18  C   UNL     1       9.115  10.650  18.811  0.00  0.00    +0.000 A 
ATOM     19  C   UNL     1       8.956  11.762  17.961  0.00  0.00    +0.000 A 
ATOM     20  C   UNL     1       9.507  13.011  18.274  0.00  0.00    +0.000 A 
ATOM     21  C   UNL     1      10.224  13.201  19.457  0.00  0.00    +0.000 A 
ATOM     22  C   UNL     1      10.389  12.112  20.312  0.00  0.00    +0.000 A 
ATOM     23  C   UNL     1       9.847  10.858  19.993  0.00  0.00    +0.000 A 
BRANCH  21  24
ATOM     24  S   UNL     1      10.935  14.814  19.746  0.00  0.00    +0.000 S 
ATOM     25  C   UNL     1      11.666  15.206  18.136  0.00  0.00    +0.000 C 
ENDBRANCH  21  24
ENDBRANCH  15  18
ENDBRANCH  11  12
BRANCH   1  26
ATOM     26  C   UNL     1       4.186   2.051  19.818  0.00  0.00    +0.000 C 
ATOM     27  O   UNL     1       3.729   1.209  19.060  0.00  0.00    +0.000 OA
BRANCH  26  29
ATOM     28  C   UNL     1       5.518   0.728  21.252  0.00  0.00    +0.000 C 
ATOM     29  O   UNL     1       4.609   1.816  21.096  0.00  0.00    +0.000 OA
ENDBRANCH  26  29
ENDBRANCH   1  26
TORSDOF 5
ENDMDL
MODEL 5
REMARK VINA RESULT:      -8.2      1.719      2.033
REMARK  Name = 
REMARK  7 active torsions:
REMARK  status: ('A' for Active; 'I' for Inactive)
REMARK    1  A    between atoms: C_1  and  O_2
REMARK    2  A    between atoms: O_2  and  C_3
REMARK    3  A    between atoms: C_3  and  C_5
REMARK    4  A    between atoms: C_15  and  C_16
REMARK    5  A    between atoms: C_19  and  C_20
REMARK    6  A    between atoms: C_23  and  S_24
REMARK    7  A    between atoms: S_24  and  C_25
REMARK                            x       y       z     vdW  Elec       q    Type
REMARK                         _______ _______ _______ _____ _____    ______ ____
ROOT
ATOM      1  C   UNL     1       3.632   4.535  19.815  0.00  0.00    +0.000 C 
ATOM      2  C   UNL     1       3.003   5.418  18.607  0.00  0.00    +0.000 C 
ATOM      3  C   UNL     1       1.920   4.676  17.755  0.00  0.00    +0.000 C 
ATOM      4  C   UNL     1       1.298   3.711  18.752  0.00  0.00    +0.000 C 
ATOM      5  C   UNL     1       1.138   2.265  19.165  0.00  0.00    +0.000 C 
ATOM      6  C   UNL     1       2.108   2.254  20.402  0.00  0.00    +0.000 C 
ATOM      7  C   UNL     1       2.520   3.753  20.650  0.00  0.00    +0.000 C 
ATOM      8  N   UNL     1       1.262   4.305  20.142  0.00  0.00    +0.000 NA
ATOM      9  C   UNL     1       1.222   5.767  20.286  0.00  0.00    +0.000 C 
ATOM     10  C   UNL     1       2.144   6.452  19.316  0.00  0.00    +0.000 C 
ATOM     11  C   UNL     1       2.160   7.768  19.060  0.00  0.00    +0.000 C 
ENDROOT
BRANCH  11  12
ATOM     12  C   UNL     1       1.419   8.723  19.893  0.00  0.00    +0.000 A 
ATOM     13  C   UNL     1       0.744   9.762  19.248  0.00  0.00    +0.000 A 
ATOM     14  C   UNL     1       0.095  10.744  19.989  0.00  0.00    +0.000 A 
ATOM     15  C   UNL     1       0.066  10.729  21.392  0.00  0.00    +0.000 A 
ATOM     16  C   UNL     1       0.748   9.671  22.025  0.00  0.00    +0.000 A 
ATOM     17  C   UNL     1       1.420   8.681  21.289  0.00  0.00    +0.000 A 
BRANCH  15  18
ATOM     18  C   UNL     1      -0.640  11.788  22.156  0.00  0.00    +0.000 A 
ATOM     19  C   UNL     1      -1.759  11.490  22.956  0.00  0.00    +0.000 A 
ATOM     20  C   UNL     1      -2.451  12.488  23.653  0.00  0.00    +0.000 A 
ATOM     21  C   UNL     1      -2.041  13.821  23.590  0.00  0.00    +0.000 A 
ATOM     22  C   UNL     1      -0.932  14.135  22.804  0.00  0.00    +0.000 A 
ATOM     23  C   UNL     1      -0.246  13.136  22.097  0.00  0.00    +0.000 A 
BRANCH  21  24
ATOM     24  S   UNL     1      -3.016  15.033  24.467  0.00  0.00    +0.000 S 
ATOM     25  C   UNL     1      -1.931  15.474  25.849  0.00  0.00    +0.000 C 
ENDBRANCH  21  24
ENDBRANCH  15  18
ENDBRANCH  11  12
BRANCH   1  26
ATOM     26  C   UNL     1       4.820   3.680  19.446  0.00  0.00    +0.000 C 
ATOM     27  O   UNL     1       5.110   2.608  19.955  0.00  0.00    +0.000 OA
BRANCH  26  29
ATOM     28  C   UNL     1       6.560   5.076  18.666  0.00  0.00    +0.000 C 
ATOM     29  O   UNL     1       5.446   4.236  18.366  0.00  0.00    +0.000 OA
ENDBRANCH  26  29
ENDBRANCH   1  26
TORSDOF 5
ENDMDL
MODEL 6
REMARK VINA RESULT:      -8.1      1.059      1.391
REMARK  Name = 
REMARK  7 active torsions:
REMARK  status: ('A' for Active; 'I' for Inactive)
REMARK    1  A    between atoms: C_1  and  O_2
REMARK    2  A    between atoms: O_2  and  C_3
REMARK    3  A    between atoms: C_3  and  C_5
REMARK    4  A    between atoms: C_15  and  C_16
REMARK    5  A    between atoms: C_19  and  C_20
REMARK    6  A    between atoms: C_23  and  S_24
REMARK    7  A    between atoms: S_24  and  C_25
REMARK                            x       y       z     vdW  Elec       q    Type
REMARK                         _______ _______ _______ _____ _____    ______ ____
ROOT
ATOM      1  C   UNL     1       4.431   5.328  19.347  0.00  0.00    +0.000 C 
ATOM      2  C   UNL     1       3.638   5.843  18.027  0.00  0.00    +0.000 C 
ATOM      3  C   UNL     1       2.715   4.768  17.363  0.00  0.00    +0.000 C 
ATOM      4  C   UNL     1       2.294   3.901  18.540  0.00  0.00    +0.000 C 
ATOM      5  C   UNL     1       2.416   2.551  19.209  0.00  0.00    +0.000 C 
ATOM      6  C   UNL     1       3.376   2.948  20.389  0.00  0.00    +0.000 C 
ATOM      7  C   UNL     1       3.493   4.517  20.351  0.00  0.00    +0.000 C 
ATOM      8  N   UNL     1       2.151   4.721  19.802  0.00  0.00    +0.000 NA
ATOM      9  C   UNL     1       1.831   6.151  19.686  0.00  0.00    +0.000 C 
ATOM     10  C   UNL     1       2.601   6.808  18.574  0.00  0.00    +0.000 C 
ATOM     11  C   UNL     1       2.363   8.035  18.088  0.00  0.00    +0.000 C 
ENDROOT
BRANCH  11  12
ATOM     12  C   UNL     1       1.456   8.969  18.767  0.00  0.00    +0.000 A 
ATOM     13  C   UNL     1       1.480   9.001  20.163  0.00  0.00    +0.000 A 
ATOM     14  C   UNL     1       0.585   9.805  20.863  0.00  0.00    +0.000 A 
ATOM     15  C   UNL     1      -0.352  10.624  20.215  0.00  0.00    +0.000 A 
ATOM     16  C   UNL     1      -0.358  10.582  18.807  0.00  0.00    +0.000 A 
ATOM     17  C   UNL     1       0.530   9.765  18.088  0.00  0.00    +0.000 A 
BRANCH  15  18
ATOM     18  C   UNL     1      -1.290  11.475  20.987  0.00  0.00    +0.000 A 
ATOM     19  C   UNL     1      -1.290  11.473  22.395  0.00  0.00    +0.000 A 
ATOM     20  C   UNL     1      -2.195  12.247  23.132  0.00  0.00    +0.000 A 
ATOM     21  C   UNL     1      -3.126  13.066  22.489  0.00  0.00    +0.000 A 
ATOM     22  C   UNL     1      -3.139  13.083  21.095  0.00  0.00    +0.000 A 
ATOM     23  C   UNL     1      -2.239  12.299  20.357  0.00  0.00    +0.000 A 
BRANCH  21  24
ATOM     24  S   UNL     1      -4.276  13.976  23.508  0.00  0.00    +0.000 S 
ATOM     25  C   UNL     1      -5.842  13.736  22.629  0.00  0.00    +0.000 C 
ENDBRANCH  21  24
ENDBRANCH  15  18
ENDBRANCH  11  12
BRANCH   1  26
ATOM     26  C   UNL     1       5.759   4.659  19.089  0.00  0.00    +0.000 C 
ATOM     27  O   UNL     1       5.970   3.796  18.250  0.00  0.00    +0.000 OA
BRANCH  26  29
ATOM     28  C   UNL     1       7.793   5.861  19.139  0.00  0.00    +0.000 C 
ATOM     29  O   UNL     1       6.715   5.263  19.857  0.00  0.00    +0.000 OA
ENDBRANCH  26  29
ENDBRANCH   1  26
TORSDOF 5
ENDMDL
MODEL 7
REMARK VINA RESULT:      -8.0      1.047      1.495
REMARK  Name = 
REMARK  7 active torsions:
REMARK  status: ('A' for Active; 'I' for Inactive)
REMARK    1  A    between atoms: C_1  and  O_2
REMARK    2  A    between atoms: O_2  and  C_3
REMARK    3  A    between atoms: C_3  and  C_5
REMARK    4  A    between atoms: C_15  and  C_16
REMARK    5  A    between atoms: C_19  and  C_20
REMARK    6  A    between atoms: C_23  and  S_24
REMARK    7  A    between atoms: S_24  and  C_25
REMARK                            x       y       z     vdW  Elec       q    Type
REMARK                         _______ _______ _______ _____ _____    ______ ____
ROOT
ATOM      1  C   UNL     1       4.860   5.092  18.385  0.00  0.00    +0.000 C 
ATOM      2  C   UNL     1       3.573   5.468  17.469  0.00  0.00    +0.000 C 
ATOM      3  C   UNL     1       2.476   4.354  17.401  0.00  0.00    +0.000 C 
ATOM      4  C   UNL     1       2.609   3.657  18.746  0.00  0.00    +0.000 C 
ATOM      5  C   UNL     1       3.029   2.396  19.468  0.00  0.00    +0.000 C 
ATOM      6  C   UNL     1       4.390   2.900  20.071  0.00  0.00    +0.000 C 
ATOM      7  C   UNL     1       4.451   4.447  19.786  0.00  0.00    +0.000 C 
ATOM      8  N   UNL     1       2.998   4.631  19.834  0.00  0.00    +0.000 NA
ATOM      9  C   UNL     1       2.633   6.047  19.681  0.00  0.00    +0.000 C 
ATOM     10  C   UNL     1       2.847   6.532  18.273  0.00  0.00    +0.000 C 
ATOM     11  C   UNL     1       2.403   7.697  17.781  0.00  0.00    +0.000 C 
ENDROOT
BRANCH  11  12
ATOM     12  C   UNL     1       1.851   8.741  18.652  0.00  0.00    +0.000 A 
ATOM     13  C   UNL     1       1.516   8.387  19.961  0.00  0.00    +0.000 A 
ATOM     14  C   UNL     1       0.912   9.312  20.807  0.00  0.00    +0.000 A 
ATOM     15  C   UNL     1       0.636  10.627  20.404  0.00  0.00    +0.000 A 
ATOM     16  C   UNL     1       0.985  10.968  19.083  0.00  0.00    +0.000 A 
ATOM     17  C   UNL     1       1.582  10.040  18.214  0.00  0.00    +0.000 A 
BRANCH  15  18
ATOM     18  C   UNL     1      -0.005  11.594  21.330  0.00  0.00    +0.000 A 
ATOM     19  C   UNL     1       0.331  12.961  21.307  0.00  0.00    +0.000 A 
ATOM     20  C   UNL     1      -0.243  13.875  22.200  0.00  0.00    +0.000 A 
ATOM     21  C   UNL     1      -1.188  13.459  23.140  0.00  0.00    +0.000 A 
ATOM     22  C   UNL     1      -1.535  12.109  23.176  0.00  0.00    +0.000 A 
ATOM     23  C   UNL     1      -0.951  11.192  22.288  0.00  0.00    +0.000 A 
BRANCH  21  24
ATOM     24  S   UNL     1      -1.826  14.683  24.274  0.00  0.00    +0.000 S 
ATOM     25  C   UNL     1      -3.544  14.150  24.490  0.00  0.00    +0.000 C 
ENDBRANCH  21  24
ENDBRANCH  15  18
ENDBRANCH  11  12
BRANCH   1  26
ATOM     26  C   UNL     1       5.967   4.347  17.679  0.00  0.00    +0.000 C 
ATOM     27  O   UNL     1       5.888   3.841  16.569  0.00  0.00    +0.000 OA
BRANCH  26  29
ATOM     28  C   UNL     1       7.631   5.756  18.589  0.00  0.00    +0.000 C 
ATOM     29  O   UNL     1       7.108   4.439  18.425  0.00  0.00    +0.000 OA
ENDBRANCH  26  29
ENDBRANCH   1  26
TORSDOF 5
ENDMDL
MODEL 8
REMARK VINA RESULT:      -8.0      1.383      1.584
REMARK  Name = 
REMARK  7 active torsions:
REMARK  status: ('A' for Active; 'I' for Inactive)
REMARK    1  A    between atoms: C_1  and  O_2
REMARK    2  A    between atoms: O_2  and  C_3
REMARK    3  A    between atoms: C_3  and  C_5
REMARK    4  A    between atoms: C_15  and  C_16
REMARK    5  A    between atoms: C_19  and  C_20
REMARK    6  A    between atoms: C_23  and  S_24
REMARK    7  A    between atoms: S_24  and  C_25
REMARK                            x       y       z     vdW  Elec       q    Type
REMARK                         _______ _______ _______ _____ _____    ______ ____
ROOT
ATOM      1  C   UNL     1       4.268   5.211  19.256  0.00  0.00    +0.000 C 
ATOM      2  C   UNL     1       3.229   5.823  18.169  0.00  0.00    +0.000 C 
ATOM      3  C   UNL     1       2.157   4.807  17.651  0.00  0.00    +0.000 C 
ATOM      4  C   UNL     1       1.971   3.869  18.834  0.00  0.00    +0.000 C 
ATOM      5  C   UNL     1       2.195   2.476  19.376  0.00  0.00    +0.000 C 
ATOM      6  C   UNL     1       3.393   2.780  20.348  0.00  0.00    +0.000 C 
ATOM      7  C   UNL     1       3.542   4.347  20.384  0.00  0.00    +0.000 C 
ATOM      8  N   UNL     1       2.120   4.605  20.146  0.00  0.00    +0.000 NA
ATOM      9  C   UNL     1       1.822   6.043  20.191  0.00  0.00    +0.000 C 
ATOM     10  C   UNL     1       2.357   6.763  18.983  0.00  0.00    +0.000 C 
ATOM     11  C   UNL     1       2.055   8.023  18.637  0.00  0.00    +0.000 C 
ENDROOT
BRANCH  11  12
ATOM     12  C   UNL     1       1.337   8.921  19.549  0.00  0.00    +0.000 A 
ATOM     13  C   UNL     1       0.589   9.959  18.988  0.00  0.00    +0.000 A 
ATOM     14  C   UNL     1      -0.043  10.891  19.803  0.00  0.00    +0.000 A 
ATOM     15  C   UNL     1       0.017  10.825  21.204  0.00  0.00    +0.000 A 
ATOM     16  C   UNL     1       0.772   9.769  21.753  0.00  0.00    +0.000 A 
ATOM     17  C   UNL     1       1.427   8.830  20.940  0.00  0.00    +0.000 A 
BRANCH  15  18
ATOM     18  C   UNL     1      -0.672  11.831  22.050  0.00  0.00    +0.000 A 
ATOM     19  C   UNL     1      -1.780  11.481  22.846  0.00  0.00    +0.000 A 
ATOM     20  C   UNL     1      -2.457  12.431  23.621  0.00  0.00    +0.000 A 
ATOM     21  C   UNL     1      -2.043  13.765  23.642  0.00  0.00    +0.000 A 
ATOM     22  C   UNL     1      -0.947  14.129  22.861  0.00  0.00    +0.000 A 
ATOM     23  C   UNL     1      -0.275  13.179  22.076  0.00  0.00    +0.000 A 
BRANCH  21  24
ATOM     24  S   UNL     1      -3.001  14.916  24.615  0.00  0.00    +0.000 S 
ATOM     25  C   UNL     1      -2.967  16.409  23.589  0.00  0.00    +0.000 C 
ENDBRANCH  21  24
ENDBRANCH  15  18
ENDBRANCH  11  12
BRANCH   1  26
ATOM     26  C   UNL     1       5.493   4.543  18.681  0.00  0.00    +0.000 C 
ATOM     27  O   UNL     1       5.546   3.954  17.612  0.00  0.00    +0.000 OA
BRANCH  26  29
ATOM     28  C   UNL     1       7.534   5.706  18.943  0.00  0.00    +0.000 C 
ATOM     29  O   UNL     1       6.563   4.812  19.487  0.00  0.00    +0.000 OA
ENDBRANCH  26  29
ENDBRANCH   1  26
TORSDOF 5
ENDMDL
MODEL 9
REMARK VINA RESULT:      -8.0      1.590      2.051
REMARK  Name = 
REMARK  7 active torsions:
REMARK  status: ('A' for Active; 'I' for Inactive)
REMARK    1  A    between atoms: C_1  and  O_2
REMARK    2  A    between atoms: O_2  and  C_3
REMARK    3  A    between atoms: C_3  and  C_5
REMARK    4  A    between atoms: C_15  and  C_16
REMARK    5  A    between atoms: C_19  and  C_20
REMARK    6  A    between atoms: C_23  and  S_24
REMARK    7  A    between atoms: S_24  and  C_25
REMARK                            x       y       z     vdW  Elec       q    Type
REMARK                         _______ _______ _______ _____ _____    ______ ____
ROOT
ATOM      1  C   UNL     1       4.051   5.296  19.356  0.00  0.00    +0.000 C 
ATOM      2  C   UNL     1       3.032   5.934  18.264  0.00  0.00    +0.000 C 
ATOM      3  C   UNL     1       1.954   4.938  17.722  0.00  0.00    +0.000 C 
ATOM      4  C   UNL     1       1.741   3.990  18.892  0.00  0.00    +0.000 C 
ATOM      5  C   UNL     1       1.941   2.588  19.421  0.00  0.00    +0.000 C 
ATOM      6  C   UNL     1       3.131   2.866  20.410  0.00  0.00    +0.000 C 
ATOM      7  C   UNL     1       3.300   4.429  20.465  0.00  0.00    +0.000 C 
ATOM      8  N   UNL     1       1.884   4.709  20.214  0.00  0.00    +0.000 NA
ATOM      9  C   UNL     1       1.605   6.151  20.271  0.00  0.00    +0.000 C 
ATOM     10  C   UNL     1       2.163   6.877  19.078  0.00  0.00    +0.000 C 
ATOM     11  C   UNL     1       1.882   8.144  18.743  0.00  0.00    +0.000 C 
ENDROOT
BRANCH  11  12
ATOM     12  C   UNL     1       1.165   9.042  19.656  0.00  0.00    +0.000 A 
ATOM     13  C   UNL     1       0.361  10.036  19.096  0.00  0.00    +0.000 A 
ATOM     14  C   UNL     1      -0.275  10.968  19.909  0.00  0.00    +0.000 A 
ATOM     15  C   UNL     1      -0.162  10.943  21.308  0.00  0.00    +0.000 A 
ATOM     16  C   UNL     1       0.648   9.930  21.856  0.00  0.00    +0.000 A 
ATOM     17  C   UNL     1       1.308   8.992  21.045  0.00  0.00    +0.000 A 
BRANCH  15  18
ATOM     18  C   UNL     1      -0.857  11.947  22.152  0.00  0.00    +0.000 A 
ATOM     19  C   UNL     1      -0.361  13.257  22.288  0.00  0.00    +0.000 A 
ATOM     20  C   UNL     1      -0.991  14.201  23.108  0.00  0.00    +0.000 A 
ATOM     21  C   UNL     1      -2.152  13.875  23.813  0.00  0.00    +0.000 A 
ATOM     22  C   UNL     1      -2.660  12.582  23.688  0.00  0.00    +0.000 A 
ATOM     23  C   UNL     1      -2.022  11.633  22.874  0.00  0.00    +0.000 A 
BRANCH  21  24
ATOM     24  S   UNL     1      -2.856  15.124  24.878  0.00  0.00    +0.000 S 
ATOM     25  C   UNL     1      -1.425  15.645  25.858  0.00  0.00    +0.000 C 
ENDBRANCH  21  24
ENDBRANCH  15  18
ENDBRANCH  11  12
BRANCH   1  26
ATOM     26  C   UNL     1       5.274   4.619  18.787  0.00  0.00    +0.000 C 
ATOM     27  O   UNL     1       6.312   4.401  19.393  0.00  0.00    +0.000 OA
BRANCH  26  29
ATOM     28  C   UNL     1       6.046   4.301  16.576  0.00  0.00    +0.000 C 
ATOM     29  O   UNL     1       4.988   4.177  17.526  0.00  0.00    +0.000 OA
ENDBRANCH  26  29
ENDBRANCH   1  26
TORSDOF 5
ENDMDL
