MODEL 1
REMARK VINA RESULT:      -8.2      0.000      0.000
REMARK  Name = 
REMARK  10 active torsions:
REMARK  status: ('A' for Active; 'I' for Inactive)
REMARK    1  A    between atoms: C_1  and  O_2
REMARK    2  A    between atoms: O_2  and  C_3
REMARK    3  A    between atoms: C_3  and  C_4
REMARK    4  A    between atoms: C_4  and  N_5
REMARK    5  A    between atoms: C_4  and  C_23
REMARK    6  A    between atoms: C_14  and  O_15
REMARK    7  A    between atoms: O_15  and  C_16
REMARK    8  A    between atoms: C_18  and  C_19
REMARK    9  A    between atoms: C_19  and  C_20
REMARK   10  A    between atoms: C_19  and  C_21
REMARK                            x       y       z     vdW  Elec       q    Type
REMARK                         _______ _______ _______ _____ _____    ______ ____
ROOT
ATOM      1  N   UNL     1       0.613  10.325  19.557  0.00  0.00    +0.000 N 
ATOM      2  C   UNL     1       1.345   9.261  19.095  0.00  0.00    +0.000 C 
ATOM      3  O   UNL     1       1.712   9.160  17.928  0.00  0.00    +0.000 OA
ATOM      4  N   UNL     1       1.533   8.310  20.066  0.00  0.00    +0.000 N 
ATOM      5  C   UNL     1       2.171   7.092  19.808  0.00  0.00    +0.000 A 
ATOM      6  C   UNL     1       3.297   7.021  19.001  0.00  0.00    +0.000 A 
ATOM      7  C   UNL     1       3.830   5.748  18.846  0.00  0.00    +0.000 A 
ATOM      8  N   UNL     1       4.934   5.312  18.166  0.00  0.00    +0.000 N 
ATOM      9  N   UNL     1       5.157   3.994  18.272  0.00  0.00    +0.000 NA
ATOM     10  C   UNL     1       4.153   3.580  19.048  0.00  0.00    +0.000 A 
ATOM     11  C   UNL     1       3.261   4.615  19.420  0.00  0.00    +0.000 A 
ATOM     12  C   UNL     1       2.082   4.756  20.183  0.00  0.00    +0.000 A 
ATOM     13  N   UNL     1       1.609   6.026  20.413  0.00  0.00    +0.000 NA
ATOM     14  H   UNL     1       0.566  10.474  20.553  0.00  0.00    +0.000 HD
ATOM     15  H   UNL     1       0.790   8.214  20.741  0.00  0.00    +0.000 HD
ATOM     16  H   UNL     1       5.589   5.871  17.629  0.00  0.00    +0.000 HD
ENDROOT
BRANCH  12  17
ATOM     17  C   UNL     1       1.319   3.613  20.819  0.00  0.00    +0.000 C 
ATOM     18  C   UNL     1       0.737   2.715  19.730  0.00  0.00    +0.000 C 
ATOM     19  C   UNL     1       2.197   2.789  21.772  0.00  0.00    +0.000 C 
ENDBRANCH  12  17
BRANCH  10  20
ATOM     20  O   UNL     1       4.086   2.282  19.425  0.00  0.00    +0.000 OA
ATOM     21  C   UNL     1       3.697   1.407  18.367  0.00  0.00    +0.000 C 
ENDBRANCH  10  20
BRANCH   1  22
ATOM     22  C   UNL     1       0.146  11.378  18.661  0.00  0.00    +0.000 C 
BRANCH  22  23
ATOM     23  C   UNL     1      -1.314  11.115  18.321  0.00  0.00    +0.000 A 
ATOM     24  C   UNL     1      -2.319  11.903  18.900  0.00  0.00    +0.000 A 
ATOM     25  C   UNL     1      -3.661  11.661  18.611  0.00  0.00    +0.000 A 
ATOM     26  C   UNL     1      -4.019  10.632  17.742  0.00  0.00    +0.000 A 
ATOM     27  C   UNL     1      -3.031   9.846  17.153  0.00  0.00    +0.000 A 
ATOM     28  C   UNL     1      -1.686  10.086  17.436  0.00  0.00    +0.000 A 
ENDBRANCH  22  23
BRANCH  22  29
ATOM     29  C   UNL     1       0.340  12.803  19.228  0.00  0.00    +0.000 C 
BRANCH  29  31
ATOM     30  C   UNL     1       2.450  13.009  18.199  0.00  0.00    +0.000 C 
ATOM     31  O   UNL     1       1.724  13.112  19.418  0.00  0.00    +0.000 OA
ENDBRANCH  29  31
ENDBRANCH  22  29
ENDBRANCH   1  22
TORSDOF 6
ENDMDL
MODEL 2
REMARK VINA RESULT:      -8.0      2.121      8.323
REMARK  Name = 
REMARK  10 active torsions:
REMARK  status: ('A' for Active; 'I' for Inactive)
REMARK    1  A    between atoms: C_1  and  O_2
REMARK    2  A    between atoms: O_2  and  C_3
REMARK    3  A    between atoms: C_3  and  C_4
REMARK    4  A    between atoms: C_4  and  N_5
REMARK    5  A    between atoms: C_4  and  C_23
REMARK    6  A    between atoms: C_14  and  O_15
REMARK    7  A    between atoms: O_15  and  C_16
REMARK    8  A    between atoms: C_18  and  C_19
REMARK    9  A    between atoms: C_19  and  C_20
REMARK   10  A    between atoms: C_19  and  C_21
REMARK                            x       y       z     vdW  Elec       q    Type
REMARK                         _______ _______ _______ _____ _____    ______ ____
ROOT
ATOM      1  N   UNL     1       2.970   7.132  18.041  0.00  0.00    +0.000 N 
ATOM      2  C   UNL     1       2.211   7.995  18.790  0.00  0.00    +0.000 C 
ATOM      3  O   UNL     1       2.134   7.928  20.013  0.00  0.00    +0.000 OA
ATOM      4  N   UNL     1       1.502   8.867  18.002  0.00  0.00    +0.000 N 
ATOM      5  C   UNL     1       0.586   9.782  18.532  0.00  0.00    +0.000 A 
ATOM      6  C   UNL     1       0.855  10.479  19.701  0.00  0.00    +0.000 A 
ATOM      7  C   UNL     1      -0.140  11.363  20.100  0.00  0.00    +0.000 A 
ATOM      8  N   UNL     1      -0.204  12.226  21.159  0.00  0.00    +0.000 N 
ATOM      9  N   UNL     1      -1.327  12.956  21.202  0.00  0.00    +0.000 NA
ATOM     10  C   UNL     1      -2.002  12.536  20.130  0.00  0.00    +0.000 A 
ATOM     11  C   UNL     1      -1.338  11.515  19.407  0.00  0.00    +0.000 A 
ATOM     12  C   UNL     1      -1.565  10.730  18.256  0.00  0.00    +0.000 A 
ATOM     13  N   UNL     1      -0.543   9.926  17.811  0.00  0.00    +0.000 NA
ATOM     14  H   UNL     1       3.193   7.393  17.094  0.00  0.00    +0.000 HD
ATOM     15  H   UNL     1       1.208   8.513  17.104  0.00  0.00    +0.000 HD
ATOM     16  H   UNL     1       0.499  12.378  21.874  0.00  0.00    +0.000 HD
ENDROOT
BRANCH  12  17
ATOM     17  C   UNL     1      -2.838  10.744  17.436  0.00  0.00    +0.000 C 
ATOM     18  C   UNL     1      -2.496  10.600  15.955  0.00  0.00    +0.000 C 
ATOM     19  C   UNL     1      -3.816   9.641  17.863  0.00  0.00    +0.000 C 
ENDBRANCH  12  17
BRANCH  10  20
ATOM     20  O   UNL     1      -3.187  13.109  19.814  0.00  0.00    +0.000 OA
ATOM     21  C   UNL     1      -4.261  12.681  20.650  0.00  0.00    +0.000 C 
ENDBRANCH  10  20
BRANCH   1  22
ATOM     22  C   UNL     1       3.679   6.012  18.653  0.00  0.00    +0.000 C 
BRANCH  22  23
ATOM     23  C   UNL     1       2.667   4.926  18.993  0.00  0.00    +0.000 A 
ATOM     24  C   UNL     1       2.374   4.641  20.334  0.00  0.00    +0.000 A 
ATOM     25  C   UNL     1       1.462   3.637  20.660  0.00  0.00    +0.000 A 
ATOM     26  C   UNL     1       0.833   2.906  19.655  0.00  0.00    +0.000 A 
ATOM     27  C   UNL     1       1.108   3.183  18.319  0.00  0.00    +0.000 A 
ATOM     28  C   UNL     1       2.017   4.189  17.986  0.00  0.00    +0.000 A 
ENDBRANCH  22  23
BRANCH  22  29
ATOM     29  C   UNL     1       4.825   5.454  17.779  0.00  0.00    +0.000 C 
BRANCH  29  31
ATOM     30  C   UNL     1       7.080   4.776  17.872  0.00  0.00    +0.000 C 
ATOM     31  O   UNL     1       5.843   4.838  18.573  0.00  0.00    +0.000 OA
ENDBRANCH  29  31
ENDBRANCH  22  29
ENDBRANCH   1  22
TORSDOF 6
ENDMDL
MODEL 3
REMARK VINA RESULT:      -8.0      0.741      1.027
REMARK  Name = 
REMARK  10 active torsions:
REMARK  status: ('A' for Active; 'I' for Inactive)
REMARK    1  A    between atoms: C_1  and  O_2
REMARK    2  A    between atoms: O_2  and  C_3
REMARK    3  A    between atoms: C_3  and  C_4
REMARK    4  A    between atoms: C_4  and  N_5
REMARK    5  A    between atoms: C_4  and  C_23
REMARK    6  A    between atoms: C_14  and  O_15
REMARK    7  A    between atoms: O_15  and  C_16
REMARK    8  A    between atoms: C_18  and  C_19
REMARK    9  A    between atoms: C_19  and  C_20
REMARK   10  A    between atoms: C_19  and  C_21
REMARK                            x       y       z     vdW  Elec       q    Type
REMARK                         _______ _______ _______ _____ _____    ______ ____
ROOT
ATOM      1  N   UNL     1       0.574  10.229  19.942  0.00  0.00    +0.000 N 
ATOM      2  C   UNL     1       1.337   9.195  19.461  0.00  0.00    +0.000 C 
ATOM      3  O   UNL     1       1.807   9.183  18.326  0.00  0.00    +0.000 OA
ATOM      4  N   UNL     1       1.431   8.166  20.364  0.00  0.00    +0.000 N 
ATOM      5  C   UNL     1       2.081   6.963  20.064  0.00  0.00    +0.000 A 
ATOM      6  C   UNL     1       3.274   6.941  19.357  0.00  0.00    +0.000 A 
ATOM      7  C   UNL     1       3.809   5.677  19.146  0.00  0.00    +0.000 A 
ATOM      8  N   UNL     1       4.966   5.282  18.533  0.00  0.00    +0.000 N 
ATOM      9  N   UNL     1       5.169   3.957  18.551  0.00  0.00    +0.000 NA
ATOM     10  C   UNL     1       4.096   3.495  19.198  0.00  0.00    +0.000 A 
ATOM     11  C   UNL     1       3.182   4.511  19.573  0.00  0.00    +0.000 A 
ATOM     12  C   UNL     1       1.941   4.607  20.239  0.00  0.00    +0.000 A 
ATOM     13  N   UNL     1       1.459   5.860  20.528  0.00  0.00    +0.000 NA
ATOM     14  H   UNL     1       0.440  10.297  20.939  0.00  0.00    +0.000 HD
ATOM     15  H   UNL     1       0.630   8.026  20.961  0.00  0.00    +0.000 HD
ATOM     16  H   UNL     1       5.670   5.873  18.104  0.00  0.00    +0.000 HD
ENDROOT
BRANCH  12  17
ATOM     17  C   UNL     1       1.116   3.427  20.709  0.00  0.00    +0.000 C 
ATOM     18  C   UNL     1       0.679   2.594  19.506  0.00  0.00    +0.000 C 
ATOM     19  C   UNL     1       1.878   2.549  21.712  0.00  0.00    +0.000 C 
ENDBRANCH  12  17
BRANCH  10  20
ATOM     20  O   UNL     1       3.987   2.172  19.460  0.00  0.00    +0.000 OA
ATOM     21  C   UNL     1       3.710   1.389  18.300  0.00  0.00    +0.000 C 
ENDBRANCH  10  20
BRANCH   1  22
ATOM     22  C   UNL     1       0.198  11.357  19.097  0.00  0.00    +0.000 C 
BRANCH  22  23
ATOM     23  C   UNL     1      -1.216  11.127  18.581  0.00  0.00    +0.000 A 
ATOM     24  C   UNL     1      -2.270  11.923  19.053  0.00  0.00    +0.000 A 
ATOM     25  C   UNL     1      -3.572  11.711  18.601  0.00  0.00    +0.000 A 
ATOM     26  C   UNL     1      -3.840  10.704  17.676  0.00  0.00    +0.000 A 
ATOM     27  C   UNL     1      -2.803   9.911  17.193  0.00  0.00    +0.000 A 
ATOM     28  C   UNL     1      -1.496  10.121  17.638  0.00  0.00    +0.000 A 
ENDBRANCH  22  23
BRANCH  22  29
ATOM     29  C   UNL     1       0.319  12.726  19.804  0.00  0.00    +0.000 C 
BRANCH  29  31
ATOM     30  C   UNL     1      -0.341  13.038  22.045  0.00  0.00    +0.000 C 
ATOM     31  O   UNL     1       0.691  12.580  21.178  0.00  0.00    +0.000 OA
ENDBRANCH  29  31
ENDBRANCH  22  29
ENDBRANCH   1  22
TORSDOF 6
ENDMDL
MODEL 4
REMARK VINA RESULT:      -8.0      2.302      8.278
REMARK  Name = 
REMARK  10 active torsions:
REMARK  status: ('A' for Active; 'I' for Inactive)
REMARK    1  A    between atoms: C_1  and  O_2
REMARK    2  A    between atoms: O_2  and  C_3
REMARK    3  A    between atoms: C_3  and  C_4
REMARK    4  A    between atoms: C_4  and  N_5
REMARK    5  A    between atoms: C_4  and  C_23
REMARK    6  A    between atoms: C_14  and  O_15
REMARK    7  A    between atoms: O_15  and  C_16
REMARK    8  A    between atoms: C_18  and  C_19
REMARK    9  A    between atoms: C_19  and  C_20
REMARK   10  A    between atoms: C_19  and  C_21
REMARK                            x       y       z     vdW  Elec       q    Type
REMARK                         _______ _______ _______ _____ _____    ______ ____
ROOT
ATOM      1  N   UNL     1       3.044   7.199  17.890  0.00  0.00    +0.000 N 
ATOM      2  C   UNL     1       2.231   7.989  18.662  0.00  0.00    +0.000 C 
ATOM      3  O   UNL     1       2.113   7.844  19.875  0.00  0.00    +0.000 OA
ATOM      4  N   UNL     1       1.522   8.887  17.903  0.00  0.00    +0.000 N 
ATOM      5  C   UNL     1       0.558   9.738  18.454  0.00  0.00    +0.000 A 
ATOM      6  C   UNL     1       0.762  10.368  19.673  0.00  0.00    +0.000 A 
ATOM      7  C   UNL     1      -0.275  11.194  20.088  0.00  0.00    +0.000 A 
ATOM      8  N   UNL     1      -0.404  11.986  21.196  0.00  0.00    +0.000 N 
ATOM      9  N   UNL     1      -1.552  12.678  21.242  0.00  0.00    +0.000 NA
ATOM     10  C   UNL     1      -2.174  12.306  20.121  0.00  0.00    +0.000 A 
ATOM     11  C   UNL     1      -1.451  11.353  19.362  0.00  0.00    +0.000 A 
ATOM     12  C   UNL     1      -1.612  10.636  18.157  0.00  0.00    +0.000 A 
ATOM     13  N   UNL     1      -0.549   9.893  17.701  0.00  0.00    +0.000 NA
ATOM     14  H   UNL     1       3.291   7.525  16.969  0.00  0.00    +0.000 HD
ATOM     15  H   UNL     1       1.271   8.581  16.975  0.00  0.00    +0.000 HD
ATOM     16  H   UNL     1       0.268  12.115  21.944  0.00  0.00    +0.000 HD
ENDROOT
BRANCH  12  17
ATOM     17  C   UNL     1      -2.855  10.662  17.292  0.00  0.00    +0.000 C 
ATOM     18  C   UNL     1      -2.538  10.075  15.919  0.00  0.00    +0.000 C 
ATOM     19  C   UNL     1      -4.025   9.904  17.935  0.00  0.00    +0.000 C 
ENDBRANCH  12  17
BRANCH  10  20
ATOM     20  O   UNL     1      -3.365  12.861  19.797  0.00  0.00    +0.000 OA
ATOM     21  C   UNL     1      -4.122  13.275  20.934  0.00  0.00    +0.000 C 
ENDBRANCH  10  20
BRANCH   1  22
ATOM     22  C   UNL     1       3.767   6.064  18.457  0.00  0.00    +0.000 C 
BRANCH  22  23
ATOM     23  C   UNL     1       2.757   4.999  18.862  0.00  0.00    +0.000 A 
ATOM     24  C   UNL     1       2.027   4.319  17.877  0.00  0.00    +0.000 A 
ATOM     25  C   UNL     1       1.087   3.354  18.234  0.00  0.00    +0.000 A 
ATOM     26  C   UNL     1       0.863   3.054  19.577  0.00  0.00    +0.000 A 
ATOM     27  C   UNL     1       1.586   3.716  20.566  0.00  0.00    +0.000 A 
ATOM     28  C   UNL     1       2.531   4.681  20.213  0.00  0.00    +0.000 A 
ENDBRANCH  22  23
BRANCH  22  29
ATOM     29  C   UNL     1       4.845   5.484  17.514  0.00  0.00    +0.000 C 
BRANCH  29  31
ATOM     30  C   UNL     1       5.608   5.471  15.284  0.00  0.00    +0.000 C 
ATOM     31  O   UNL     1       4.918   6.212  16.284  0.00  0.00    +0.000 OA
ENDBRANCH  29  31
ENDBRANCH  22  29
ENDBRANCH   1  22
TORSDOF 6
ENDMDL
MODEL 5
REMARK VINA RESULT:      -8.0      1.943      2.348
REMARK  Name = 
REMARK  10 active torsions:
REMARK  status: ('A' for Active; 'I' for Inactive)
REMARK    1  A    between atoms: C_1  and  O_2
REMARK    2  A    between atoms: O_2  and  C_3
REMARK    3  A    between atoms: C_3  and  C_4
REMARK    4  A    between atoms: C_4  and  N_5
REMARK    5  A    between atoms: C_4  and  C_23
REMARK    6  A    between atoms: C_14  and  O_15
REMARK    7  A    between atoms: O_15  and  C_16
REMARK    8  A    between atoms: C_18  and  C_19
REMARK    9  A    between atoms: C_19  and  C_20
REMARK   10  A    between atoms: C_19  and  C_21
REMARK                            x       y       z     vdW  Elec       q    Type
REMARK                         _______ _______ _______ _____ _____    ______ ____
ROOT
ATOM      1  N   UNL     1       0.682   9.990  19.286  0.00  0.00    +0.000 N 
ATOM      2  C   UNL     1       1.655   9.418  18.507  0.00  0.00    +0.000 C 
ATOM      3  O   UNL     1       2.110   9.958  17.502  0.00  0.00    +0.000 OA
ATOM      4  N   UNL     1       1.982   8.157  18.941  0.00  0.00    +0.000 N 
ATOM      5  C   UNL     1       2.884   7.338  18.253  0.00  0.00    +0.000 A 
ATOM      6  C   UNL     1       4.048   7.849  17.698  0.00  0.00    +0.000 A 
ATOM      7  C   UNL     1       4.852   6.916  17.057  0.00  0.00    +0.000 A 
ATOM      8  N   UNL     1       6.066   7.048  16.439  0.00  0.00    +0.000 N 
ATOM      9  N   UNL     1       6.561   5.899  15.956  0.00  0.00    +0.000 NA
ATOM     10  C   UNL     1       5.622   5.006  16.277  0.00  0.00    +0.000 A 
ATOM     11  C   UNL     1       4.506   5.573  16.939  0.00  0.00    +0.000 A 
ATOM     12  C   UNL     1       3.278   5.135  17.481  0.00  0.00    +0.000 A 
ATOM     13  N   UNL     1       2.528   6.039  18.195  0.00  0.00    +0.000 NA
ATOM     14  H   UNL     1       0.541   9.625  20.215  0.00  0.00    +0.000 HD
ATOM     15  H   UNL     1       1.236   7.628  19.366  0.00  0.00    +0.000 HD
ATOM     16  H   UNL     1       6.617   7.893  16.336  0.00  0.00    +0.000 HD
ENDROOT
BRANCH  12  17
ATOM     17  C   UNL     1       2.741   3.723  17.381  0.00  0.00    +0.000 C 
ATOM     18  C   UNL     1       3.570   2.794  18.266  0.00  0.00    +0.000 C 
ATOM     19  C   UNL     1       1.258   3.637  17.766  0.00  0.00    +0.000 C 
ENDBRANCH  12  17
BRANCH  10  20
ATOM     20  O   UNL     1       5.814   3.697  15.992  0.00  0.00    +0.000 OA
ATOM     21  C   UNL     1       6.164   3.463  14.629  0.00  0.00    +0.000 C 
ENDBRANCH  10  20
BRANCH   1  22
ATOM     22  C   UNL     1       0.058  11.257  18.920  0.00  0.00    +0.000 C 
BRANCH  22  23
ATOM     23  C   UNL     1      -1.351  10.976  18.416  0.00  0.00    +0.000 A 
ATOM     24  C   UNL     1      -2.428  11.736  18.895  0.00  0.00    +0.000 A 
ATOM     25  C   UNL     1      -3.726  11.477  18.455  0.00  0.00    +0.000 A 
ATOM     26  C   UNL     1      -3.966  10.459  17.535  0.00  0.00    +0.000 A 
ATOM     27  C   UNL     1      -2.906   9.702  17.045  0.00  0.00    +0.000 A 
ATOM     28  C   UNL     1      -1.604   9.959  17.478  0.00  0.00    +0.000 A 
ENDBRANCH  22  23
BRANCH  22  29
ATOM     29  C   UNL     1       0.046  12.294  20.066  0.00  0.00    +0.000 C 
BRANCH  29  31
ATOM     30  C   UNL     1       1.378  13.427  18.486  0.00  0.00    +0.000 C 
ATOM     31  O   UNL     1       1.020  13.321  19.859  0.00  0.00    +0.000 OA
ENDBRANCH  29  31
ENDBRANCH  22  29
ENDBRANCH   1  22
TORSDOF 6
ENDMDL
MODEL 6
REMARK VINA RESULT:      -7.9      2.775      8.758
REMARK  Name = 
REMARK  10 active torsions:
REMARK  status: ('A' for Active; 'I' for Inactive)
REMARK    1  A    between atoms: C_1  and  O_2
REMARK    2  A    between atoms: O_2  and  C_3
REMARK    3  A    between atoms: C_3  and  C_4
REMARK    4  A    between atoms: C_4  and  N_5
REMARK    5  A    between atoms: C_4  and  C_23
REMARK    6  A    between atoms: C_14  and  O_15
REMARK    7  A    between atoms: O_15  and  C_16
REMARK    8  A    between atoms: C_18  and  C_19
REMARK    9  A    between atoms: C_19  and  C_20
REMARK   10  A    between atoms: C_19  and  C_21
REMARK                            x       y       z     vdW  Elec       q    Type
REMARK                         _______ _______ _______ _____ _____    ______ ____
ROOT
ATOM      1  N   UNL     1       3.362   6.244  18.219  0.00  0.00    +0.000 N 
ATOM      2  C   UNL     1       2.545   6.764  19.191  0.00  0.00    +0.000 C 
ATOM      3  O   UNL     1       2.074   6.087  20.100  0.00  0.00    +0.000 OA
ATOM      4  N   UNL     1       2.263   8.088  18.967  0.00  0.00    +0.000 N 
ATOM      5  C   UNL     1       1.377   8.812  19.772  0.00  0.00    +0.000 A 
ATOM      6  C   UNL     1       1.363   8.662  21.150  0.00  0.00    +0.000 A 
ATOM      7  C   UNL     1       0.439   9.455  21.819  0.00  0.00    +0.000 A 
ATOM      8  N   UNL     1       0.174   9.595  23.154  0.00  0.00    +0.000 N 
ATOM      9  N   UNL     1      -0.781  10.496  23.429  0.00  0.00    +0.000 NA
ATOM     10  C   UNL     1      -1.135  10.940  22.221  0.00  0.00    +0.000 A 
ATOM     11  C   UNL     1      -0.439  10.311  21.160  0.00  0.00    +0.000 A 
ATOM     12  C   UNL     1      -0.405  10.371  19.751  0.00  0.00    +0.000 A 
ATOM     13  N   UNL     1       0.571   9.657  19.097  0.00  0.00    +0.000 NA
ATOM     14  H   UNL     1       3.911   6.884  17.667  0.00  0.00    +0.000 HD
ATOM     15  H   UNL     1       2.220   8.375  18.001  0.00  0.00    +0.000 HD
ATOM     16  H   UNL     1       0.628   9.120  23.926  0.00  0.00    +0.000 HD
ENDROOT
BRANCH  12  17
ATOM     17  C   UNL     1      -1.333  11.208  18.896  0.00  0.00    +0.000 C 
ATOM     18  C   UNL     1      -0.645  12.518  18.521  0.00  0.00    +0.000 C 
ATOM     19  C   UNL     1      -1.785  10.466  17.631  0.00  0.00    +0.000 C 
ENDBRANCH  12  17
BRANCH  10  20
ATOM     20  O   UNL     1      -2.057  11.925  22.111  0.00  0.00    +0.000 OA
ATOM     21  C   UNL     1      -2.793  12.145  23.313  0.00  0.00    +0.000 C 
ENDBRANCH  10  20
BRANCH   1  22
ATOM     22  C   UNL     1       3.661   4.817  18.156  0.00  0.00    +0.000 C 
BRANCH  22  23
ATOM     23  C   UNL     1       4.861   4.612  17.242  0.00  0.00    +0.000 A 
ATOM     24  C   UNL     1       6.159   4.708  17.763  0.00  0.00    +0.000 A 
ATOM     25  C   UNL     1       7.268   4.540  16.934  0.00  0.00    +0.000 A 
ATOM     26  C   UNL     1       7.096   4.276  15.577  0.00  0.00    +0.000 A 
ATOM     27  C   UNL     1       5.813   4.170  15.047  0.00  0.00    +0.000 A 
ATOM     28  C   UNL     1       4.700   4.334  15.873  0.00  0.00    +0.000 A 
ENDBRANCH  22  23
BRANCH  22  29
ATOM     29  C   UNL     1       3.896   4.173  19.541  0.00  0.00    +0.000 C 
BRANCH  29  31
ATOM     30  C   UNL     1       2.214   2.528  19.412  0.00  0.00    +0.000 C 
ATOM     31  O   UNL     1       3.611   2.771  19.527  0.00  0.00    +0.000 OA
ENDBRANCH  29  31
ENDBRANCH  22  29
ENDBRANCH   1  22
TORSDOF 6
ENDMDL
MODEL 7
REMARK VINA RESULT:      -7.8      1.997      2.592
REMARK  Name = 
REMARK  10 active torsions:
REMARK  status: ('A' for Active; 'I' for Inactive)
REMARK    1  A    between atoms: C_1  and  O_2
REMARK    2  A    between atoms: O_2  and  C_3
REMARK    3  A    between atoms: C_3  and  C_4
REMARK    4  A    between atoms: C_4  and  N_5
REMARK    5  A    between atoms: C_4  and  C_23
REMARK    6  A    between atoms: C_14  and  O_15
REMARK    7  A    between atoms: O_15  and  C_16
REMARK    8  A    between atoms: C_18  and  C_19
REMARK    9  A    between atoms: C_19  and  C_20
REMARK   10  A    between atoms: C_19  and  C_21
REMARK                            x       y       z     vdW  Elec       q    Type
REMARK                         _______ _______ _______ _____ _____    ______ ____
ROOT
ATOM      1  N   UNL     1       0.706   9.956  19.345  0.00  0.00    +0.000 N 
ATOM      2  C   UNL     1       1.686   9.397  18.565  0.00  0.00    +0.000 C 
ATOM      3  O   UNL     1       2.152   9.955  17.576  0.00  0.00    +0.000 OA
ATOM      4  N   UNL     1       2.007   8.129  18.979  0.00  0.00    +0.000 N 
ATOM      5  C   UNL     1       2.915   7.321  18.285  0.00  0.00    +0.000 A 
ATOM      6  C   UNL     1       4.085   7.840  17.753  0.00  0.00    +0.000 A 
ATOM      7  C   UNL     1       4.895   6.918  17.103  0.00  0.00    +0.000 A 
ATOM      8  N   UNL     1       6.115   7.059  16.500  0.00  0.00    +0.000 N 
ATOM      9  N   UNL     1       6.614   5.920  16.001  0.00  0.00    +0.000 NA
ATOM     10  C   UNL     1       5.671   5.022  16.296  0.00  0.00    +0.000 A 
ATOM     11  C   UNL     1       4.548   5.578  16.957  0.00  0.00    +0.000 A 
ATOM     12  C   UNL     1       3.314   5.132  17.477  0.00  0.00    +0.000 A 
ATOM     13  N   UNL     1       2.558   6.024  18.200  0.00  0.00    +0.000 NA
ATOM     14  H   UNL     1       0.554   9.575  20.266  0.00  0.00    +0.000 HD
ATOM     15  H   UNL     1       1.256   7.592  19.386  0.00  0.00    +0.000 HD
ATOM     16  H   UNL     1       6.668   7.906  16.420  0.00  0.00    +0.000 HD
ENDROOT
BRANCH  12  17
ATOM     17  C   UNL     1       2.776   3.723  17.345  0.00  0.00    +0.000 C 
ATOM     18  C   UNL     1       3.629   2.768  18.177  0.00  0.00    +0.000 C 
ATOM     19  C   UNL     1       1.303   3.621  17.765  0.00  0.00    +0.000 C 
ENDBRANCH  12  17
BRANCH  10  20
ATOM     20  O   UNL     1       5.863   3.718  15.988  0.00  0.00    +0.000 OA
ATOM     21  C   UNL     1       6.085   3.494  14.597  0.00  0.00    +0.000 C 
ENDBRANCH  10  20
BRANCH   1  22
ATOM     22  C   UNL     1       0.087  11.231  18.996  0.00  0.00    +0.000 C 
BRANCH  22  23
ATOM     23  C   UNL     1      -1.312  10.961  18.460  0.00  0.00    +0.000 A 
ATOM     24  C   UNL     1      -1.508   9.968  17.490  0.00  0.00    +0.000 A 
ATOM     25  C   UNL     1      -2.782   9.722  16.978  0.00  0.00    +0.000 A 
ATOM     26  C   UNL     1      -3.874  10.461  17.427  0.00  0.00    +0.000 A 
ATOM     27  C   UNL     1      -3.696  11.444  18.396  0.00  0.00    +0.000 A 
ATOM     28  C   UNL     1      -2.424  11.693  18.914  0.00  0.00    +0.000 A 
ENDBRANCH  22  23
BRANCH  22  29
ATOM     29  C   UNL     1       0.053  12.242  20.164  0.00  0.00    +0.000 C 
BRANCH  29  31
ATOM     30  C   UNL     1       1.519  13.906  20.963  0.00  0.00    +0.000 C 
ATOM     31  O   UNL     1       1.366  12.524  20.657  0.00  0.00    +0.000 OA
ENDBRANCH  29  31
ENDBRANCH  22  29
ENDBRANCH   1  22
TORSDOF 6
ENDMDL
MODEL 8
REMARK VINA RESULT:      -7.8      0.964      1.201
REMARK  Name = 
REMARK  10 active torsions:
REMARK  status: ('A' for Active; 'I' for Inactive)
REMARK    1  A    between atoms: C_1  and  O_2
REMARK    2  A    between atoms: O_2  and  C_3
REMARK    3  A    between atoms: C_3  and  C_4
REMARK    4  A    between atoms: C_4  and  N_5
REMARK    5  A    between atoms: C_4  and  C_23
REMARK    6  A    between atoms: C_14  and  O_15
REMARK    7  A    between atoms: O_15  and  C_16
REMARK    8  A    between atoms: C_18  and  C_19
REMARK    9  A    between atoms: C_19  and  C_20
REMARK   10  A    between atoms: C_19  and  C_21
REMARK                            x       y       z     vdW  Elec       q    Type
REMARK                         _______ _______ _______ _____ _____    ______ ____
ROOT
ATOM      1  N   UNL     1       1.082  10.122  19.324  0.00  0.00    +0.000 N 
ATOM      2  C   UNL     1       1.674   9.102  18.623  0.00  0.00    +0.000 C 
ATOM      3  O   UNL     1       1.845   9.137  17.408  0.00  0.00    +0.000 OA
ATOM      4  N   UNL     1       1.964   8.030  19.430  0.00  0.00    +0.000 N 
ATOM      5  C   UNL     1       2.487   6.833  18.927  0.00  0.00    +0.000 A 
ATOM      6  C   UNL     1       3.465   6.828  17.943  0.00  0.00    +0.000 A 
ATOM      7  C   UNL     1       3.898   5.568  17.552  0.00  0.00    +0.000 A 
ATOM      8  N   UNL     1       4.854   5.185  16.652  0.00  0.00    +0.000 N 
ATOM      9  N   UNL     1       5.022   3.858  16.563  0.00  0.00    +0.000 NA
ATOM     10  C   UNL     1       4.133   3.382  17.438  0.00  0.00    +0.000 A 
ATOM     11  C   UNL     1       3.368   4.391  18.073  0.00  0.00    +0.000 A 
ATOM     12  C   UNL     1       2.335   4.473  19.031  0.00  0.00    +0.000 A 
ATOM     13  N   UNL     1       1.973   5.719  19.485  0.00  0.00    +0.000 NA
ATOM     14  H   UNL     1       1.203  10.146  20.324  0.00  0.00    +0.000 HD
ATOM     15  H   UNL     1       1.334   7.874  20.202  0.00  0.00    +0.000 HD
ATOM     16  H   UNL     1       5.444   5.786  16.086  0.00  0.00    +0.000 HD
ENDROOT
BRANCH  12  17
ATOM     17  C   UNL     1       1.623   3.285  19.643  0.00  0.00    +0.000 C 
ATOM     18  C   UNL     1       1.084   3.661  21.020  0.00  0.00    +0.000 C 
ATOM     19  C   UNL     1       0.485   2.768  18.752  0.00  0.00    +0.000 C 
ENDBRANCH  12  17
BRANCH  10  20
ATOM     20  O   UNL     1       4.058   2.049  17.664  0.00  0.00    +0.000 OA
ATOM     21  C   UNL     1       4.426   1.681  18.992  0.00  0.00    +0.000 C 
ENDBRANCH  10  20
BRANCH   1  22
ATOM     22  C   UNL     1       0.536  11.295  18.648  0.00  0.00    +0.000 C 
BRANCH  22  23
ATOM     23  C   UNL     1      -0.944  11.056  18.383  0.00  0.00    +0.000 A 
ATOM     24  C   UNL     1      -1.904  11.887  18.979  0.00  0.00    +0.000 A 
ATOM     25  C   UNL     1      -3.263  11.668  18.758  0.00  0.00    +0.000 A 
ATOM     26  C   UNL     1      -3.683  10.621  17.941  0.00  0.00    +0.000 A 
ATOM     27  C   UNL     1      -2.741   9.793  17.336  0.00  0.00    +0.000 A 
ATOM     28  C   UNL     1      -1.379  10.009  17.550  0.00  0.00    +0.000 A 
ENDBRANCH  22  23
BRANCH  22  29
ATOM     29  C   UNL     1       0.759  12.614  19.422  0.00  0.00    +0.000 C 
BRANCH  29  31
ATOM     30  C   UNL     1       2.654  12.855  18.042  0.00  0.00    +0.000 C 
ATOM     31  O   UNL     1       1.577  13.527  18.685  0.00  0.00    +0.000 OA
ENDBRANCH  29  31
ENDBRANCH  22  29
ENDBRANCH   1  22
TORSDOF 6
ENDMDL
MODEL 9
REMARK VINA RESULT:      -7.7      0.938      1.304
REMARK  Name = 
REMARK  10 active torsions:
REMARK  status: ('A' for Active; 'I' for Inactive)
REMARK    1  A    between atoms: C_1  and  O_2
REMARK    2  A    between atoms: O_2  and  C_3
REMARK    3  A    between atoms: C_3  and  C_4
REMARK    4  A    between atoms: C_4  and  N_5
REMARK    5  A    between atoms: C_4  and  C_23
REMARK    6  A    between atoms: C_14  and  O_15
REMARK    7  A    between atoms: O_15  and  C_16
REMARK    8  A    between atoms: C_18  and  C_19
REMARK    9  A    between atoms: C_19  and  C_20
REMARK   10  A    between atoms: C_19  and  C_21
REMARK                            x       y       z     vdW  Elec       q    Type
REMARK                         _______ _______ _______ _____ _____    ______ ____
ROOT
ATOM      1  N   UNL     1       0.584   9.750  19.482  0.00  0.00    +0.000 N 
ATOM      2  C   UNL     1       1.526   8.820  19.122  0.00  0.00    +0.000 C 
ATOM      3  O   UNL     1       2.202   8.913  18.102  0.00  0.00    +0.000 OA
ATOM      4  N   UNL     1       1.552   7.757  19.990  0.00  0.00    +0.000 N 
ATOM      5  C   UNL     1       2.366   6.638  19.781  0.00  0.00    +0.000 A 
ATOM      6  C   UNL     1       3.667   6.766  19.320  0.00  0.00    +0.000 A 
ATOM      7  C   UNL     1       4.360   5.571  19.173  0.00  0.00    +0.000 A 
ATOM      8  N   UNL     1       5.647   5.320  18.784  0.00  0.00    +0.000 N 
ATOM      9  N   UNL     1       5.977   4.020  18.795  0.00  0.00    +0.000 NA
ATOM     10  C   UNL     1       4.853   3.426  19.204  0.00  0.00    +0.000 A 
ATOM     11  C   UNL     1       3.786   4.330  19.429  0.00  0.00    +0.000 A 
ATOM     12  C   UNL     1       2.437   4.273  19.843  0.00  0.00    +0.000 A 
ATOM     13  N   UNL     1       1.783   5.459  20.077  0.00  0.00    +0.000 NA
ATOM     14  H   UNL     1       0.257   9.752  20.435  0.00  0.00    +0.000 HD
ATOM     15  H   UNL     1       0.670   7.511  20.415  0.00  0.00    +0.000 HD
ATOM     16  H   UNL     1       6.355   5.996  18.521  0.00  0.00    +0.000 HD
ENDROOT
BRANCH  12  17
ATOM     17  C   UNL     1       1.663   2.997  20.102  0.00  0.00    +0.000 C 
ATOM     18  C   UNL     1       1.365   2.872  21.594  0.00  0.00    +0.000 C 
ATOM     19  C   UNL     1       0.360   2.935  19.294  0.00  0.00    +0.000 C 
ENDBRANCH  12  17
BRANCH  10  20
ATOM     20  O   UNL     1       4.832   2.086  19.394  0.00  0.00    +0.000 OA
ATOM     21  C   UNL     1       4.906   1.710  20.768  0.00  0.00    +0.000 C 
ENDBRANCH  10  20
BRANCH   1  22
ATOM     22  C   UNL     1       0.262  10.883  18.619  0.00  0.00    +0.000 C 
BRANCH  22  23
ATOM     23  C   UNL     1      -1.208  10.794  18.231  0.00  0.00    +0.000 A 
ATOM     24  C   UNL     1      -2.146  11.631  18.852  0.00  0.00    +0.000 A 
ATOM     25  C   UNL     1      -3.497  11.548  18.518  0.00  0.00    +0.000 A 
ATOM     26  C   UNL     1      -3.930  10.630  17.563  0.00  0.00    +0.000 A 
ATOM     27  C   UNL     1      -3.009   9.799  16.932  0.00  0.00    +0.000 A 
ATOM     28  C   UNL     1      -1.654   9.880  17.259  0.00  0.00    +0.000 A 
ENDBRANCH  22  23
BRANCH  22  29
ATOM     29  C   UNL     1       0.592  12.254  19.251  0.00  0.00    +0.000 C 
BRANCH  29  31
ATOM     30  C   UNL     1       0.254  13.067  21.437  0.00  0.00    +0.000 C 
ATOM     31  O   UNL     1       0.954  12.128  20.630  0.00  0.00    +0.000 OA
ENDBRANCH  29  31
ENDBRANCH  22  29
ENDBRANCH   1  22
TORSDOF 6
ENDMDL
