MODEL 1
REMARK VINA RESULT:      -6.8      0.000      0.000
REMARK  Name = 
REMARK  12 active torsions:
REMARK  status: ('A' for Active; 'I' for Inactive)
REMARK    1  A    between atoms: C_1  and  C_2
REMARK    2  A    between atoms: C_2  and  C_3
REMARK    3  A    between atoms: C_3  and  C_4
REMARK    4  A    between atoms: C_3  and  N_21
REMARK    5  A    between atoms: N_13  and  C_14
REMARK    6  A    between atoms: C_14  and  C_15
REMARK    7  A    between atoms: N_21  and  C_22
REMARK    8  A    between atoms: C_22  and  C_23
REMARK    9  A    between atoms: C_23  and  C_24
REMARK   10  A    between atoms: C_23  and  C_25
REMARK   11  A    between atoms: C_23  and  N_26
REMARK   12  A    between atoms: C_27  and  C_29
REMARK                            x       y       z     vdW  Elec       q    Type
REMARK                         _______ _______ _______ _____ _____    ______ ____
ROOT
ATOM      1  C   UNL     1      -0.819  12.630  20.971  0.00  0.00    +0.000 C 
ENDROOT
BRANCH   1   2
ATOM      2  C   UNL     1      -1.752  12.165  19.849  0.00  0.00    +0.000 A 
ATOM      3  N   UNL     1      -2.983  12.566  19.959  0.00  0.00    +0.000 NA
ATOM      4  N   UNL     1      -3.841  12.052  19.073  0.00  0.00    +0.000 N 
ATOM      5  C   UNL     1      -5.188  12.302  19.058  0.00  0.00    +0.000 A 
ATOM      6  C   UNL     1      -5.712  11.675  17.942  0.00  0.00    +0.000 A 
ATOM      7  C   UNL     1      -4.636  11.007  17.290  0.00  0.00    +0.000 A 
ATOM      8  C   UNL     1      -3.507  11.232  18.048  0.00  0.00    +0.000 A 
ATOM      9  C   UNL     1      -2.146  10.820  17.887  0.00  0.00    +0.000 A 
ATOM     10  O   UNL     1      -1.774  10.172  16.916  0.00  0.00    +0.000 OA
ATOM     11  N   UNL     1      -1.276  11.284  18.881  0.00  0.00    +0.000 N 
BRANCH  11  12
ATOM     12  C   UNL     1       0.155  11.090  18.597  0.00  0.00    +0.000 C 
BRANCH  12  13
ATOM     13  C   UNL     1       0.849   9.772  18.880  0.00  0.00    +0.000 A 
ATOM     14  C   UNL     1       1.585   9.010  17.969  0.00  0.00    +0.000 A 
ATOM     15  C   UNL     1       2.270   7.860  18.403  0.00  0.00    +0.000 A 
ATOM     16  C   UNL     1       2.207   7.451  19.732  0.00  0.00    +0.000 A 
ATOM     17  C   UNL     1       1.426   8.157  20.638  0.00  0.00    +0.000 A 
ATOM     18  C   UNL     1       0.744   9.296  20.207  0.00  0.00    +0.000 A 
ENDBRANCH  12  13
ENDBRANCH  11  12
ENDBRANCH   1   2
BRANCH   1  19
ATOM     19  N   UNL     1       0.093  13.756  20.560  0.00  0.00    +0.000 N 
ATOM     20  C   UNL     1       1.494  13.495  20.726  0.00  0.00    +0.000 C 
ATOM     21  O   UNL     1       1.934  12.481  21.264  0.00  0.00    +0.000 OA
BRANCH  20  22
ATOM     22  C   UNL     1       2.570  14.375  20.160  0.00  0.00    +0.000 A 
ATOM     23  C   UNL     1       3.095  14.266  18.868  0.00  0.00    +0.000 A 
ATOM     24  C   UNL     1       4.152  15.089  18.462  0.00  0.00    +0.000 A 
ATOM     25  C   UNL     1       4.626  16.086  19.312  0.00  0.00    +0.000 A 
ATOM     26 CL   UNL     1       5.898  17.118  18.792  0.00  0.00    +0.000 Cl
ATOM     27  C   UNL     1       4.065  16.258  20.570  0.00  0.00    +0.000 A 
ATOM     28  C   UNL     1       3.049  15.400  20.997  0.00  0.00    +0.000 A 
ENDBRANCH  20  22
BRANCH  19  29
ATOM     29  C   UNL     1      -0.260  14.877  19.607  0.00  0.00    +0.000 C 
BRANCH  29  30
ATOM     30  C   UNL     1      -0.257  16.471  19.497  0.00  0.00    +0.000 C 
ATOM     31  C   UNL     1      -0.110  17.255  20.805  0.00  0.00    +0.000 C 
ATOM     32  C   UNL     1       0.640  17.084  18.404  0.00  0.00    +0.000 C 
BRANCH  30  33
ATOM     33  N   UNL     1      -1.654  16.754  18.984  0.00  0.00    +0.000 NA
ATOM     34  H   UNL     1      -2.104  15.931  18.590  0.00  0.00    +0.000 HD
ATOM     35  H   UNL     1      -2.274  17.083  19.724  0.00  0.00    +0.000 HD
ENDBRANCH  30  33
ENDBRANCH  29  30
ENDBRANCH  19  29
ENDBRANCH   1  19
BRANCH   1  37
ATOM     36  C   UNL     1      -1.477  13.614  23.475  0.00  0.00    +0.000 C 
ATOM     37  C   UNL     1      -1.742  12.680  22.284  0.00  0.00    +0.000 C 
ENDBRANCH   1  37
TORSDOF 9
ENDMDL
MODEL 2
REMARK VINA RESULT:      -6.7      2.336      3.876
REMARK  Name = 
REMARK  12 active torsions:
REMARK  status: ('A' for Active; 'I' for Inactive)
REMARK    1  A    between atoms: C_1  and  C_2
REMARK    2  A    between atoms: C_2  and  C_3
REMARK    3  A    between atoms: C_3  and  C_4
REMARK    4  A    between atoms: C_3  and  N_21
REMARK    5  A    between atoms: N_13  and  C_14
REMARK    6  A    between atoms: C_14  and  C_15
REMARK    7  A    between atoms: N_21  and  C_22
REMARK    8  A    between atoms: C_22  and  C_23
REMARK    9  A    between atoms: C_23  and  C_24
REMARK   10  A    between atoms: C_23  and  C_25
REMARK   11  A    between atoms: C_23  and  N_26
REMARK   12  A    between atoms: C_27  and  C_29
REMARK                            x       y       z     vdW  Elec       q    Type
REMARK                         _______ _______ _______ _____ _____    ______ ____
ROOT
ATOM      1  C   UNL     1      -0.990  11.634  21.907  0.00  0.00    +0.000 C 
ENDROOT
BRANCH   1   2
ATOM      2  C   UNL     1      -2.417  12.179  22.016  0.00  0.00    +0.000 A 
ATOM      3  N   UNL     1      -2.886  12.248  23.225  0.00  0.00    +0.000 NA
ATOM      4  N   UNL     1      -4.177  12.581  23.329  0.00  0.00    +0.000 N 
ATOM      5  C   UNL     1      -4.872  12.650  24.507  0.00  0.00    +0.000 A 
ATOM      6  C   UNL     1      -6.138  13.120  24.213  0.00  0.00    +0.000 A 
ATOM      7  C   UNL     1      -6.201  13.308  22.802  0.00  0.00    +0.000 A 
ATOM      8  C   UNL     1      -4.979  12.922  22.292  0.00  0.00    +0.000 A 
ATOM      9  C   UNL     1      -4.462  12.896  20.958  0.00  0.00    +0.000 A 
ATOM     10  O   UNL     1      -5.112  13.301  20.002  0.00  0.00    +0.000 OA
ATOM     11  N   UNL     1      -3.140  12.448  20.856  0.00  0.00    +0.000 N 
BRANCH  11  12
ATOM     12  C   UNL     1      -2.512  12.657  19.541  0.00  0.00    +0.000 C 
BRANCH  12  13
ATOM     13  C   UNL     1      -2.656  11.643  18.423  0.00  0.00    +0.000 A 
ATOM     14  C   UNL     1      -3.714  11.556  17.514  0.00  0.00    +0.000 A 
ATOM     15  C   UNL     1      -3.659  10.631  16.455  0.00  0.00    +0.000 A 
ATOM     16  C   UNL     1      -2.569   9.778  16.308  0.00  0.00    +0.000 A 
ATOM     17  C   UNL     1      -1.539   9.804  17.240  0.00  0.00    +0.000 A 
ATOM     18  C   UNL     1      -1.595  10.718  18.292  0.00  0.00    +0.000 A 
ENDBRANCH  12  13
ENDBRANCH  11  12
ENDBRANCH   1   2
BRANCH   1  19
ATOM     19  N   UNL     1       0.047  12.712  21.730  0.00  0.00    +0.000 N 
ATOM     20  C   UNL     1       1.062  12.426  20.757  0.00  0.00    +0.000 C 
ATOM     21  O   UNL     1       1.159  11.345  20.180  0.00  0.00    +0.000 OA
BRANCH  20  22
ATOM     22  C   UNL     1       2.037  13.450  20.257  0.00  0.00    +0.000 A 
ATOM     23  C   UNL     1       3.084  13.993  21.009  0.00  0.00    +0.000 A 
ATOM     24  C   UNL     1       3.894  15.001  20.472  0.00  0.00    +0.000 A 
ATOM     25  C   UNL     1       3.720  15.405  19.150  0.00  0.00    +0.000 A 
ATOM     26 CL   UNL     1       4.743  16.615  18.485  0.00  0.00    +0.000 Cl
ATOM     27  C   UNL     1       2.735  14.821  18.364  0.00  0.00    +0.000 A 
ATOM     28  C   UNL     1       1.890  13.857  18.917  0.00  0.00    +0.000 A 
ENDBRANCH  20  22
BRANCH  19  29
ATOM     29  C   UNL     1      -0.120  14.170  22.098  0.00  0.00    +0.000 C 
BRANCH  29  30
ATOM     30  C   UNL     1      -0.841  15.509  21.606  0.00  0.00    +0.000 C 
ATOM     31  C   UNL     1      -0.868  15.764  20.095  0.00  0.00    +0.000 C 
ATOM     32  C   UNL     1      -2.220  15.815  22.223  0.00  0.00    +0.000 C 
BRANCH  30  33
ATOM     33  N   UNL     1       0.043  16.582  22.205  0.00  0.00    +0.000 NA
ATOM     34  H   UNL     1      -0.374  17.510  22.155  0.00  0.00    +0.000 HD
ATOM     35  H   UNL     1       0.231  16.415  23.194  0.00  0.00    +0.000 HD
ENDBRANCH  30  33
ENDBRANCH  29  30
ENDBRANCH  19  29
ENDBRANCH   1  19
BRANCH   1  37
ATOM     36  C   UNL     1       0.202   9.418  23.066  0.00  0.00    +0.000 C 
ATOM     37  C   UNL     1      -0.893  10.497  23.036  0.00  0.00    +0.000 C 
ENDBRANCH   1  37
TORSDOF 9
ENDMDL
MODEL 3
REMARK VINA RESULT:      -6.5      3.040      6.474
REMARK  Name = 
REMARK  12 active torsions:
REMARK  status: ('A' for Active; 'I' for Inactive)
REMARK    1  A    between atoms: C_1  and  C_2
REMARK    2  A    between atoms: C_2  and  C_3
REMARK    3  A    between atoms: C_3  and  C_4
REMARK    4  A    between atoms: C_3  and  N_21
REMARK    5  A    between atoms: N_13  and  C_14
REMARK    6  A    between atoms: C_14  and  C_15
REMARK    7  A    between atoms: N_21  and  C_22
REMARK    8  A    between atoms: C_22  and  C_23
REMARK    9  A    between atoms: C_23  and  C_24
REMARK   10  A    between atoms: C_23  and  C_25
REMARK   11  A    between atoms: C_23  and  N_26
REMARK   12  A    between atoms: C_27  and  C_29
REMARK                            x       y       z     vdW  Elec       q    Type
REMARK                         _______ _______ _______ _____ _____    ______ ____
ROOT
ATOM      1  C   UNL     1      -1.384  13.367  20.716  0.00  0.00    +0.000 C 
ENDROOT
BRANCH   1   2
ATOM      2  C   UNL     1      -2.757  13.127  21.351  0.00  0.00    +0.000 A 
ATOM      3  N   UNL     1      -3.694  12.788  20.519  0.00  0.00    +0.000 NA
ATOM      4  N   UNL     1      -4.927  12.718  21.030  0.00  0.00    +0.000 N 
ATOM      5  C   UNL     1      -6.056  12.437  20.307  0.00  0.00    +0.000 A 
ATOM      6  C   UNL     1      -7.109  12.357  21.200  0.00  0.00    +0.000 A 
ATOM      7  C   UNL     1      -6.585  12.629  22.496  0.00  0.00    +0.000 A 
ATOM      8  C   UNL     1      -5.240  12.889  22.337  0.00  0.00    +0.000 A 
ATOM      9  C   UNL     1      -4.209  13.216  23.275  0.00  0.00    +0.000 A 
ATOM     10  O   UNL     1      -4.421  13.270  24.480  0.00  0.00    +0.000 OA
ATOM     11  N   UNL     1      -2.940  13.385  22.708  0.00  0.00    +0.000 N 
BRANCH  11  12
ATOM     12  C   UNL     1      -1.833  13.466  23.674  0.00  0.00    +0.000 C 
BRANCH  12  13
ATOM     13  C   UNL     1      -1.317  14.797  24.182  0.00  0.00    +0.000 A 
ATOM     14  C   UNL     1      -0.461  15.668  23.503  0.00  0.00    +0.000 A 
ATOM     15  C   UNL     1      -0.154  16.927  24.054  0.00  0.00    +0.000 A 
ATOM     16  C   UNL     1      -0.675  17.313  25.286  0.00  0.00    +0.000 A 
ATOM     17  C   UNL     1      -1.474  16.434  26.006  0.00  0.00    +0.000 A 
ATOM     18  C   UNL     1      -1.776  15.185  25.462  0.00  0.00    +0.000 A 
ENDBRANCH  12  13
ENDBRANCH  11  12
ENDBRANCH   1   2
BRANCH   1  19
ATOM     19  N   UNL     1      -0.881  12.191  19.921  0.00  0.00    +0.000 N 
ATOM     20  C   UNL     1       0.386  11.667  20.345  0.00  0.00    +0.000 C 
ATOM     21  O   UNL     1       1.076  12.191  21.216  0.00  0.00    +0.000 OA
BRANCH  20  22
ATOM     22  C   UNL     1       0.946  10.365  19.854  0.00  0.00    +0.000 A 
ATOM     23  C   UNL     1       1.003   9.185  20.602  0.00  0.00    +0.000 A 
ATOM     24  C   UNL     1       1.616   8.042  20.077  0.00  0.00    +0.000 A 
ATOM     25  C   UNL     1       2.091   8.045  18.767  0.00  0.00    +0.000 A 
ATOM     26 CL   UNL     1       2.807   6.625  18.115  0.00  0.00    +0.000 Cl
ATOM     27  C   UNL     1       1.973   9.185  17.983  0.00  0.00    +0.000 A 
ATOM     28  C   UNL     1       1.414  10.343  18.526  0.00  0.00    +0.000 A 
ENDBRANCH  20  22
BRANCH  19  29
ATOM     29  C   UNL     1      -1.731  11.261  19.084  0.00  0.00    +0.000 C 
BRANCH  29  30
ATOM     30  C   UNL     1      -2.285  11.072  17.596  0.00  0.00    +0.000 C 
ATOM     31  C   UNL     1      -1.874   9.790  16.864  0.00  0.00    +0.000 C 
ATOM     32  C   UNL     1      -3.784  11.353  17.379  0.00  0.00    +0.000 C 
BRANCH  30  33
ATOM     33  N   UNL     1      -1.618  12.217  16.863  0.00  0.00    +0.000 NA
ATOM     34  H   UNL     1      -0.669  12.394  17.188  0.00  0.00    +0.000 HD
ATOM     35  H   UNL     1      -1.540  12.035  15.862  0.00  0.00    +0.000 HD
ENDBRANCH  30  33
ENDBRANCH  29  30
ENDBRANCH  19  29
ENDBRANCH   1  19
BRANCH   1  37
ATOM     36  C   UNL     1      -0.352  15.485  19.259  0.00  0.00    +0.000 C 
ATOM     37  C   UNL     1      -1.454  14.860  20.129  0.00  0.00    +0.000 C 
ENDBRANCH   1  37
TORSDOF 9
ENDMDL
MODEL 4
REMARK VINA RESULT:      -6.4      3.087      6.409
REMARK  Name = 
REMARK  12 active torsions:
REMARK  status: ('A' for Active; 'I' for Inactive)
REMARK    1  A    between atoms: C_1  and  C_2
REMARK    2  A    between atoms: C_2  and  C_3
REMARK    3  A    between atoms: C_3  and  C_4
REMARK    4  A    between atoms: C_3  and  N_21
REMARK    5  A    between atoms: N_13  and  C_14
REMARK    6  A    between atoms: C_14  and  C_15
REMARK    7  A    between atoms: N_21  and  C_22
REMARK    8  A    between atoms: C_22  and  C_23
REMARK    9  A    between atoms: C_23  and  C_24
REMARK   10  A    between atoms: C_23  and  C_25
REMARK   11  A    between atoms: C_23  and  N_26
REMARK   12  A    between atoms: C_27  and  C_29
REMARK                            x       y       z     vdW  Elec       q    Type
REMARK                         _______ _______ _______ _____ _____    ______ ____
ROOT
ATOM      1  C   UNL     1      -1.656  12.869  20.569  0.00  0.00    +0.000 C 
ENDROOT
BRANCH   1   2
ATOM      2  C   UNL     1      -3.158  12.713  20.822  0.00  0.00    +0.000 A 
ATOM      3  N   UNL     1      -3.880  12.557  19.754  0.00  0.00    +0.000 NA
ATOM      4  N   UNL     1      -5.204  12.567  19.941  0.00  0.00    +0.000 N 
ATOM      5  C   UNL     1      -6.133  12.477  18.940  0.00  0.00    +0.000 A 
ATOM      6  C   UNL     1      -7.379  12.420  19.537  0.00  0.00    +0.000 A 
ATOM      7  C   UNL     1      -7.177  12.508  20.944  0.00  0.00    +0.000 A 
ATOM      8  C   UNL     1      -5.819  12.640  21.146  0.00  0.00    +0.000 A 
ATOM      9  C   UNL     1      -5.034  12.764  22.336  0.00  0.00    +0.000 A 
ATOM     10  O   UNL     1      -5.537  12.722  23.452  0.00  0.00    +0.000 OA
ATOM     11  N   UNL     1      -3.655  12.855  22.116  0.00  0.00    +0.000 N 
BRANCH  11  12
ATOM     12  C   UNL     1      -2.822  12.724  23.322  0.00  0.00    +0.000 C 
BRANCH  12  13
ATOM     13  C   UNL     1      -2.375  13.937  24.113  0.00  0.00    +0.000 A 
ATOM     14  C   UNL     1      -3.039  14.507  25.202  0.00  0.00    +0.000 A 
ATOM     15  C   UNL     1      -2.446  15.568  25.913  0.00  0.00    +0.000 A 
ATOM     16  C   UNL     1      -1.208  16.078  25.532  0.00  0.00    +0.000 A 
ATOM     17  C   UNL     1      -0.564  15.569  24.413  0.00  0.00    +0.000 A 
ATOM     18  C   UNL     1      -1.152  14.520  23.705  0.00  0.00    +0.000 A 
ENDBRANCH  12  13
ENDBRANCH  11  12
ENDBRANCH   1   2
BRANCH   1  19
ATOM     19  N   UNL     1      -1.056  11.715  19.810  0.00  0.00    +0.000 N 
ATOM     20  C   UNL     1       0.268  11.341  20.218  0.00  0.00    +0.000 C 
ATOM     21  O   UNL     1       0.923  11.971  21.045  0.00  0.00    +0.000 OA
BRANCH  20  22
ATOM     22  C   UNL     1       0.946  10.081  19.766  0.00  0.00    +0.000 A 
ATOM     23  C   UNL     1       1.076   8.922  20.536  0.00  0.00    +0.000 A 
ATOM     24  C   UNL     1       1.794   7.823  20.049  0.00  0.00    +0.000 A 
ATOM     25  C   UNL     1       2.305   7.844  18.753  0.00  0.00    +0.000 A 
ATOM     26 CL   UNL     1       3.152   6.477  18.146  0.00  0.00    +0.000 Cl
ATOM     27  C   UNL     1       2.119   8.959  17.945  0.00  0.00    +0.000 A 
ATOM     28  C   UNL     1       1.452  10.077  18.452  0.00  0.00    +0.000 A 
ENDBRANCH  20  22
BRANCH  19  29
ATOM     29  C   UNL     1      -1.827  10.667  19.038  0.00  0.00    +0.000 C 
BRANCH  29  30
ATOM     30  C   UNL     1      -2.503  10.409  17.612  0.00  0.00    +0.000 C 
ATOM     31  C   UNL     1      -1.657   9.670  16.570  0.00  0.00    +0.000 C 
ATOM     32  C   UNL     1      -3.941   9.855  17.622  0.00  0.00    +0.000 C 
BRANCH  30  33
ATOM     33  N   UNL     1      -2.688  11.819  17.090  0.00  0.00    +0.000 NA
ATOM     34  H   UNL     1      -3.527  12.267  17.455  0.00  0.00    +0.000 HD
ATOM     35  H   UNL     1      -1.912  12.428  17.349  0.00  0.00    +0.000 HD
ENDBRANCH  30  33
ENDBRANCH  29  30
ENDBRANCH  19  29
ENDBRANCH   1  19
BRANCH   1  37
ATOM     36  C   UNL     1      -0.396  14.878  19.137  0.00  0.00    +0.000 C 
ATOM     37  C   UNL     1      -1.466  14.403  20.132  0.00  0.00    +0.000 C 
ENDBRANCH   1  37
TORSDOF 9
ENDMDL
MODEL 5
REMARK VINA RESULT:      -6.4      0.662      1.417
REMARK  Name = 
REMARK  12 active torsions:
REMARK  status: ('A' for Active; 'I' for Inactive)
REMARK    1  A    between atoms: C_1  and  C_2
REMARK    2  A    between atoms: C_2  and  C_3
REMARK    3  A    between atoms: C_3  and  C_4
REMARK    4  A    between atoms: C_3  and  N_21
REMARK    5  A    between atoms: N_13  and  C_14
REMARK    6  A    between atoms: C_14  and  C_15
REMARK    7  A    between atoms: N_21  and  C_22
REMARK    8  A    between atoms: C_22  and  C_23
REMARK    9  A    between atoms: C_23  and  C_24
REMARK   10  A    between atoms: C_23  and  C_25
REMARK   11  A    between atoms: C_23  and  N_26
REMARK   12  A    between atoms: C_27  and  C_29
REMARK                            x       y       z     vdW  Elec       q    Type
REMARK                         _______ _______ _______ _____ _____    ______ ____
ROOT
ATOM      1  C   UNL     1      -0.672  12.297  21.011  0.00  0.00    +0.000 C 
ENDROOT
BRANCH   1   2
ATOM      2  C   UNL     1      -1.635  11.962  19.868  0.00  0.00    +0.000 A 
ATOM      3  N   UNL     1      -2.850  12.391  20.031  0.00  0.00    +0.000 NA
ATOM      4  N   UNL     1      -3.736  11.984  19.118  0.00  0.00    +0.000 N 
ATOM      5  C   UNL     1      -5.074  12.276  19.146  0.00  0.00    +0.000 A 
ATOM      6  C   UNL     1      -5.633  11.766  17.988  0.00  0.00    +0.000 A 
ATOM      7  C   UNL     1      -4.589  11.123  17.264  0.00  0.00    +0.000 A 
ATOM      8  C   UNL     1      -3.442  11.246  18.020  0.00  0.00    +0.000 A 
ATOM      9  C   UNL     1      -2.098  10.806  17.802  0.00  0.00    +0.000 A 
ATOM     10  O   UNL     1      -1.761  10.234  16.773  0.00  0.00    +0.000 OA
ATOM     11  N   UNL     1      -1.200  11.154  18.819  0.00  0.00    +0.000 N 
BRANCH  11  12
ATOM     12  C   UNL     1       0.219  10.940  18.496  0.00  0.00    +0.000 C 
BRANCH  12  13
ATOM     13  C   UNL     1       0.958   9.697  18.950  0.00  0.00    +0.000 A 
ATOM     14  C   UNL     1       0.945   9.147  20.235  0.00  0.00    +0.000 A 
ATOM     15  C   UNL     1       1.591   7.922  20.484  0.00  0.00    +0.000 A 
ATOM     16  C   UNL     1       2.270   7.253  19.469  0.00  0.00    +0.000 A 
ATOM     17  C   UNL     1       2.350   7.817  18.202  0.00  0.00    +0.000 A 
ATOM     18  C   UNL     1       1.713   9.034  17.955  0.00  0.00    +0.000 A 
ENDBRANCH  12  13
ENDBRANCH  11  12
ENDBRANCH   1   2
BRANCH   1  19
ATOM     19  N   UNL     1       0.197  13.495  20.726  0.00  0.00    +0.000 N 
ATOM     20  C   UNL     1       1.607  13.268  20.858  0.00  0.00    +0.000 C 
ATOM     21  O   UNL     1       2.086  12.215  21.276  0.00  0.00    +0.000 OA
BRANCH  20  22
ATOM     22  C   UNL     1       2.647  14.243  20.392  0.00  0.00    +0.000 A 
ATOM     23  C   UNL     1       3.160  15.293  21.159  0.00  0.00    +0.000 A 
ATOM     24  C   UNL     1       4.075  16.196  20.604  0.00  0.00    +0.000 A 
ATOM     25  C   UNL     1       4.550  15.999  19.309  0.00  0.00    +0.000 A 
ATOM     26 CL   UNL     1       5.703  17.089  18.647  0.00  0.00    +0.000 Cl
ATOM     27  C   UNL     1       4.109  14.916  18.559  0.00  0.00    +0.000 A 
ATOM     28  C   UNL     1       3.153  14.049  19.093  0.00  0.00    +0.000 A 
ENDBRANCH  20  22
BRANCH  19  29
ATOM     29  C   UNL     1      -0.202  14.703  19.908  0.00  0.00    +0.000 C 
BRANCH  29  30
ATOM     30  C   UNL     1      -0.517  16.263  20.053  0.00  0.00    +0.000 C 
ATOM     31  C   UNL     1       0.309  17.218  19.185  0.00  0.00    +0.000 C 
ATOM     32  C   UNL     1      -2.003  16.670  20.029  0.00  0.00    +0.000 C 
BRANCH  30  33
ATOM     33  N   UNL     1      -0.117  16.534  21.488  0.00  0.00    +0.000 NA
ATOM     34  H   UNL     1       0.849  16.845  21.576  0.00  0.00    +0.000 HD
ATOM     35  H   UNL     1      -0.685  17.269  21.911  0.00  0.00    +0.000 HD
ENDBRANCH  30  33
ENDBRANCH  29  30
ENDBRANCH  19  29
ENDBRANCH   1  19
BRANCH   1  37
ATOM     36  C   UNL     1      -1.908  13.318  23.270  0.00  0.00    +0.000 C 
ATOM     37  C   UNL     1      -1.546  12.142  22.348  0.00  0.00    +0.000 C 
ENDBRANCH   1  37
TORSDOF 9
ENDMDL
MODEL 6
REMARK VINA RESULT:      -6.4      1.232      1.638
REMARK  Name = 
REMARK  12 active torsions:
REMARK  status: ('A' for Active; 'I' for Inactive)
REMARK    1  A    between atoms: C_1  and  C_2
REMARK    2  A    between atoms: C_2  and  C_3
REMARK    3  A    between atoms: C_3  and  C_4
REMARK    4  A    between atoms: C_3  and  N_21
REMARK    5  A    between atoms: N_13  and  C_14
REMARK    6  A    between atoms: C_14  and  C_15
REMARK    7  A    between atoms: N_21  and  C_22
REMARK    8  A    between atoms: C_22  and  C_23
REMARK    9  A    between atoms: C_23  and  C_24
REMARK   10  A    between atoms: C_23  and  C_25
REMARK   11  A    between atoms: C_23  and  N_26
REMARK   12  A    between atoms: C_27  and  C_29
REMARK                            x       y       z     vdW  Elec       q    Type
REMARK                         _______ _______ _______ _____ _____    ______ ____
ROOT
ATOM      1  C   UNL     1      -0.298  12.165  21.512  0.00  0.00    +0.000 C 
ENDROOT
BRANCH   1   2
ATOM      2  C   UNL     1      -1.348  12.056  20.403  0.00  0.00    +0.000 A 
ATOM      3  N   UNL     1      -2.527  12.499  20.719  0.00  0.00    +0.000 NA
ATOM      4  N   UNL     1      -3.491  12.278  19.819  0.00  0.00    +0.000 N 
ATOM      5  C   UNL     1      -4.807  12.614  19.989  0.00  0.00    +0.000 A 
ATOM      6  C   UNL     1      -5.465  12.319  18.809  0.00  0.00    +0.000 A 
ATOM      7  C   UNL     1      -4.503  11.761  17.919  0.00  0.00    +0.000 A 
ATOM      8  C   UNL     1      -3.305  11.716  18.601  0.00  0.00    +0.000 A 
ATOM      9  C   UNL     1      -2.002  11.265  18.220  0.00  0.00    +0.000 A 
ATOM     10  O   UNL     1      -1.761  10.854  17.092  0.00  0.00    +0.000 OA
ATOM     11  N   UNL     1      -1.024  11.411  19.211  0.00  0.00    +0.000 N 
BRANCH  11  12
ATOM     12  C   UNL     1       0.360  11.197  18.757  0.00  0.00    +0.000 C 
BRANCH  12  13
ATOM     13  C   UNL     1       1.078   9.883  18.991  0.00  0.00    +0.000 A 
ATOM     14  C   UNL     1       1.071   9.132  20.170  0.00  0.00    +0.000 A 
ATOM     15  C   UNL     1       1.694   7.871  20.207  0.00  0.00    +0.000 A 
ATOM     16  C   UNL     1       2.345   7.364  19.085  0.00  0.00    +0.000 A 
ATOM     17  C   UNL     1       2.420   8.124  17.925  0.00  0.00    +0.000 A 
ATOM     18  C   UNL     1       1.805   9.376  17.889  0.00  0.00    +0.000 A 
ENDBRANCH  12  13
ENDBRANCH  11  12
ENDBRANCH   1   2
BRANCH   1  19
ATOM     19  N   UNL     1       0.341  13.527  21.595  0.00  0.00    +0.000 N 
ATOM     20  C   UNL     1       1.743  13.561  21.290  0.00  0.00    +0.000 C 
ATOM     21  O   UNL     1       2.413  12.552  21.081  0.00  0.00    +0.000 OA
BRANCH  20  22
ATOM     22  C   UNL     1       2.510  14.833  21.079  0.00  0.00    +0.000 A 
ATOM     23  C   UNL     1       2.795  15.398  19.832  0.00  0.00    +0.000 A 
ATOM     24  C   UNL     1       3.585  16.549  19.740  0.00  0.00    +0.000 A 
ATOM     25  C   UNL     1       4.016  17.194  20.898  0.00  0.00    +0.000 A 
ATOM     26 CL   UNL     1       4.953  18.630  20.778  0.00  0.00    +0.000 Cl
ATOM     27  C   UNL     1       3.677  16.689  22.147  0.00  0.00    +0.000 A 
ATOM     28  C   UNL     1       2.937  15.508  22.238  0.00  0.00    +0.000 A 
ENDBRANCH  20  22
BRANCH  19  29
ATOM     29  C   UNL     1      -0.385  14.851  21.507  0.00  0.00    +0.000 C 
BRANCH  29  30
ATOM     30  C   UNL     1      -1.076  15.830  20.450  0.00  0.00    +0.000 C 
ATOM     31  C   UNL     1      -2.576  16.091  20.627  0.00  0.00    +0.000 C 
ATOM     32  C   UNL     1      -0.338  17.149  20.148  0.00  0.00    +0.000 C 
BRANCH  30  33
ATOM     33  N   UNL     1      -0.926  15.057  19.157  0.00  0.00    +0.000 NA
ATOM     34  H   UNL     1      -1.815  14.904  18.683  0.00  0.00    +0.000 HD
ATOM     35  H   UNL     1      -0.333  15.545  18.486  0.00  0.00    +0.000 HD
ENDBRANCH  30  33
ENDBRANCH  29  30
ENDBRANCH  19  29
ENDBRANCH   1  19
BRANCH   1  37
ATOM     36  C   UNL     1      -0.656   9.958  23.148  0.00  0.00    +0.000 C 
ATOM     37  C   UNL     1      -0.950  11.420  22.776  0.00  0.00    +0.000 C 
ENDBRANCH   1  37
TORSDOF 9
ENDMDL
MODEL 7
REMARK VINA RESULT:      -6.4      0.531      1.048
REMARK  Name = 
REMARK  12 active torsions:
REMARK  status: ('A' for Active; 'I' for Inactive)
REMARK    1  A    between atoms: C_1  and  C_2
REMARK    2  A    between atoms: C_2  and  C_3
REMARK    3  A    between atoms: C_3  and  C_4
REMARK    4  A    between atoms: C_3  and  N_21
REMARK    5  A    between atoms: N_13  and  C_14
REMARK    6  A    between atoms: C_14  and  C_15
REMARK    7  A    between atoms: N_21  and  C_22
REMARK    8  A    between atoms: C_22  and  C_23
REMARK    9  A    between atoms: C_23  and  C_24
REMARK   10  A    between atoms: C_23  and  C_25
REMARK   11  A    between atoms: C_23  and  N_26
REMARK   12  A    between atoms: C_27  and  C_29
REMARK                            x       y       z     vdW  Elec       q    Type
REMARK                         _______ _______ _______ _____ _____    ______ ____
ROOT
ATOM      1  C   UNL     1      -1.026  12.542  21.092  0.00  0.00    +0.000 C 
ENDROOT
BRANCH   1   2
ATOM      2  C   UNL     1      -1.935  12.166  19.919  0.00  0.00    +0.000 A 
ATOM      3  N   UNL     1      -3.175  12.530  20.047  0.00  0.00    +0.000 NA
ATOM      4  N   UNL     1      -4.012  12.084  19.105  0.00  0.00    +0.000 N 
ATOM      5  C   UNL     1      -5.363  12.307  19.094  0.00  0.00    +0.000 A 
ATOM      6  C   UNL     1      -5.860  11.777  17.917  0.00  0.00    +0.000 A 
ATOM      7  C   UNL     1      -4.762  11.194  17.222  0.00  0.00    +0.000 A 
ATOM      8  C   UNL     1      -3.647  11.370  18.013  0.00  0.00    +0.000 A 
ATOM      9  C   UNL     1      -2.276  11.002  17.834  0.00  0.00    +0.000 A 
ATOM     10  O   UNL     1      -1.879  10.455  16.812  0.00  0.00    +0.000 OA
ATOM     11  N   UNL     1      -1.428  11.389  18.879  0.00  0.00    +0.000 N 
BRANCH  11  12
ATOM     12  C   UNL     1       0.009  11.250  18.598  0.00  0.00    +0.000 C 
BRANCH  12  13
ATOM     13  C   UNL     1       0.747   9.952  18.856  0.00  0.00    +0.000 A 
ATOM     14  C   UNL     1       1.480   9.215  17.922  0.00  0.00    +0.000 A 
ATOM     15  C   UNL     1       2.209   8.082  18.332  0.00  0.00    +0.000 A 
ATOM     16  C   UNL     1       2.193   7.666  19.660  0.00  0.00    +0.000 A 
ATOM     17  C   UNL     1       1.417   8.347  20.590  0.00  0.00    +0.000 A 
ATOM     18  C   UNL     1       0.692   9.467  20.184  0.00  0.00    +0.000 A 
ENDBRANCH  12  13
ENDBRANCH  11  12
ENDBRANCH   1   2
BRANCH   1  19
ATOM     19  N   UNL     1      -0.120  13.708  20.793  0.00  0.00    +0.000 N 
ATOM     20  C   UNL     1       1.283  13.440  20.935  0.00  0.00    +0.000 C 
ATOM     21  O   UNL     1       1.727  12.380  21.371  0.00  0.00    +0.000 OA
BRANCH  20  22
ATOM     22  C   UNL     1       2.354  14.376  20.459  0.00  0.00    +0.000 A 
ATOM     23  C   UNL     1       2.816  15.490  21.167  0.00  0.00    +0.000 A 
ATOM     24  C   UNL     1       3.768  16.345  20.600  0.00  0.00    +0.000 A 
ATOM     25  C   UNL     1       4.330  16.040  19.362  0.00  0.00    +0.000 A 
ATOM     26 CL   UNL     1       5.527  17.074  18.689  0.00  0.00    +0.000 Cl
ATOM     27  C   UNL     1       3.938  14.896  18.679  0.00  0.00    +0.000 A 
ATOM     28  C   UNL     1       2.947  14.074  19.218  0.00  0.00    +0.000 A 
ENDBRANCH  20  22
BRANCH  19  29
ATOM     29  C   UNL     1      -0.478  14.915  19.955  0.00  0.00    +0.000 C 
BRANCH  29  30
ATOM     30  C   UNL     1      -1.052  16.401  20.083  0.00  0.00    +0.000 C 
ATOM     31  C   UNL     1      -2.432  16.556  20.731  0.00  0.00    +0.000 C 
ATOM     32  C   UNL     1      -0.083  17.468  20.631  0.00  0.00    +0.000 C 
BRANCH  30  33
ATOM     33  N   UNL     1      -1.212  16.805  18.632  0.00  0.00    +0.000 NA
ATOM     34  H   UNL     1      -2.187  16.844  18.339  0.00  0.00    +0.000 HD
ATOM     35  H   UNL     1      -0.829  17.732  18.449  0.00  0.00    +0.000 HD
ENDBRANCH  30  33
ENDBRANCH  29  30
ENDBRANCH  19  29
ENDBRANCH   1  19
BRANCH   1  37
ATOM     36  C   UNL     1      -2.064  13.593  23.436  0.00  0.00    +0.000 C 
ATOM     37  C   UNL     1      -1.971  12.472  22.388  0.00  0.00    +0.000 C 
ENDBRANCH   1  37
TORSDOF 9
ENDMDL
MODEL 8
REMARK VINA RESULT:      -6.3      2.891      6.703
REMARK  Name = 
REMARK  12 active torsions:
REMARK  status: ('A' for Active; 'I' for Inactive)
REMARK    1  A    between atoms: C_1  and  C_2
REMARK    2  A    between atoms: C_2  and  C_3
REMARK    3  A    between atoms: C_3  and  C_4
REMARK    4  A    between atoms: C_3  and  N_21
REMARK    5  A    between atoms: N_13  and  C_14
REMARK    6  A    between atoms: C_14  and  C_15
REMARK    7  A    between atoms: N_21  and  C_22
REMARK    8  A    between atoms: C_22  and  C_23
REMARK    9  A    between atoms: C_23  and  C_24
REMARK   10  A    between atoms: C_23  and  C_25
REMARK   11  A    between atoms: C_23  and  N_26
REMARK   12  A    between atoms: C_27  and  C_29
REMARK                            x       y       z     vdW  Elec       q    Type
REMARK                         _______ _______ _______ _____ _____    ______ ____
ROOT
ATOM      1  C   UNL     1      -1.657  12.430  20.827  0.00  0.00    +0.000 C 
ENDROOT
BRANCH   1   2
ATOM      2  C   UNL     1      -1.619  13.895  20.385  0.00  0.00    +0.000 A 
ATOM      3  N   UNL     1      -0.655  14.197  19.569  0.00  0.00    +0.000 NA
ATOM      4  N   UNL     1      -0.516  15.496  19.288  0.00  0.00    +0.000 N 
ATOM      5  C   UNL     1       0.472  16.022  18.499  0.00  0.00    +0.000 A 
ATOM      6  C   UNL     1       0.220  17.375  18.369  0.00  0.00    +0.000 A 
ATOM      7  C   UNL     1      -0.945  17.663  19.135  0.00  0.00    +0.000 A 
ATOM      8  C   UNL     1      -1.342  16.479  19.720  0.00  0.00    +0.000 A 
ATOM      9  C   UNL     1      -2.437  16.155  20.583  0.00  0.00    +0.000 A 
ATOM     10  O   UNL     1      -3.274  16.988  20.909  0.00  0.00    +0.000 OA
ATOM     11  N   UNL     1      -2.510  14.806  20.949  0.00  0.00    +0.000 N 
BRANCH  11  12
ATOM     12  C   UNL     1      -3.760  14.409  21.616  0.00  0.00    +0.000 C 
BRANCH  12  13
ATOM     13  C   UNL     1      -4.904  13.779  20.848  0.00  0.00    +0.000 A 
ATOM     14  C   UNL     1      -5.353  12.460  20.961  0.00  0.00    +0.000 A 
ATOM     15  C   UNL     1      -6.503  12.044  20.264  0.00  0.00    +0.000 A 
ATOM     16  C   UNL     1      -7.194  12.926  19.437  0.00  0.00    +0.000 A 
ATOM     17  C   UNL     1      -6.726  14.222  19.261  0.00  0.00    +0.000 A 
ATOM     18  C   UNL     1      -5.584  14.633  19.948  0.00  0.00    +0.000 A 
ENDBRANCH  12  13
ENDBRANCH  11  12
ENDBRANCH   1   2
BRANCH   1  19
ATOM     19  N   UNL     1      -0.955  11.501  19.872  0.00  0.00    +0.000 N 
ATOM     20  C   UNL     1       0.312  11.004  20.326  0.00  0.00    +0.000 C 
ATOM     21  O   UNL     1       0.853  11.382  21.364  0.00  0.00    +0.000 OA
BRANCH  20  22
ATOM     22  C   UNL     1       1.054   9.892  19.647  0.00  0.00    +0.000 A 
ATOM     23  C   UNL     1       1.563   9.947  18.345  0.00  0.00    +0.000 A 
ATOM     24  C   UNL     1       2.175   8.825  17.776  0.00  0.00    +0.000 A 
ATOM     25  C   UNL     1       2.365   7.673  18.536  0.00  0.00    +0.000 A 
ATOM     26 CL   UNL     1       3.153   6.312  17.843  0.00  0.00    +0.000 Cl
ATOM     27  C   UNL     1       1.935   7.627  19.856  0.00  0.00    +0.000 A 
ATOM     28  C   UNL     1       1.273   8.727  20.406  0.00  0.00    +0.000 A 
ENDBRANCH  20  22
BRANCH  19  29
ATOM     29  C   UNL     1      -1.614  10.708  18.764  0.00  0.00    +0.000 C 
BRANCH  29  30
ATOM     30  C   UNL     1      -2.486  10.898  17.438  0.00  0.00    +0.000 C 
ATOM     31  C   UNL     1      -2.448   9.757  16.417  0.00  0.00    +0.000 C 
ATOM     32  C   UNL     1      -3.932  11.394  17.631  0.00  0.00    +0.000 C 
BRANCH  30  33
ATOM     33  N   UNL     1      -1.808  12.083  16.781  0.00  0.00    +0.000 NA
ATOM     34  H   UNL     1      -1.420  11.858  15.867  0.00  0.00    +0.000 HD
ATOM     35  H   UNL     1      -2.455  12.856  16.627  0.00  0.00    +0.000 HD
ENDBRANCH  30  33
ENDBRANCH  29  30
ENDBRANCH  19  29
ENDBRANCH   1  19
BRANCH   1  37
ATOM     36  C   UNL     1      -1.921  11.441  23.401  0.00  0.00    +0.000 C 
ATOM     37  C   UNL     1      -1.355  12.463  22.403  0.00  0.00    +0.000 C 
ENDBRANCH   1  37
TORSDOF 9
ENDMDL
MODEL 9
REMARK VINA RESULT:      -6.3      0.899      1.324
REMARK  Name = 
REMARK  12 active torsions:
REMARK  status: ('A' for Active; 'I' for Inactive)
REMARK    1  A    between atoms: C_1  and  C_2
REMARK    2  A    between atoms: C_2  and  C_3
REMARK    3  A    between atoms: C_3  and  C_4
REMARK    4  A    between atoms: C_3  and  N_21
REMARK    5  A    between atoms: N_13  and  C_14
REMARK    6  A    between atoms: C_14  and  C_15
REMARK    7  A    between atoms: N_21  and  C_22
REMARK    8  A    between atoms: C_22  and  C_23
REMARK    9  A    between atoms: C_23  and  C_24
REMARK   10  A    between atoms: C_23  and  C_25
REMARK   11  A    between atoms: C_23  and  N_26
REMARK   12  A    between atoms: C_27  and  C_29
REMARK                            x       y       z     vdW  Elec       q    Type
REMARK                         _______ _______ _______ _____ _____    ______ ____
ROOT
ATOM      1  C   UNL     1      -0.207  12.147  21.423  0.00  0.00    +0.000 C 
ENDROOT
BRANCH   1   2
ATOM      2  C   UNL     1      -1.275  12.025  20.333  0.00  0.00    +0.000 A 
ATOM      3  N   UNL     1      -2.438  12.512  20.648  0.00  0.00    +0.000 NA
ATOM      4  N   UNL     1      -3.419  12.284  19.770  0.00  0.00    +0.000 N 
ATOM      5  C   UNL     1      -4.724  12.661  19.945  0.00  0.00    +0.000 A 
ATOM      6  C   UNL     1      -5.406  12.341  18.786  0.00  0.00    +0.000 A 
ATOM      7  C   UNL     1      -4.472  11.725  17.904  0.00  0.00    +0.000 A 
ATOM      8  C   UNL     1      -3.266  11.673  18.571  0.00  0.00    +0.000 A 
ATOM      9  C   UNL     1      -1.980  11.174  18.189  0.00  0.00    +0.000 A 
ATOM     10  O   UNL     1      -1.767  10.716  17.074  0.00  0.00    +0.000 OA
ATOM     11  N   UNL     1      -0.985  11.329  19.161  0.00  0.00    +0.000 N 
BRANCH  11  12
ATOM     12  C   UNL     1       0.386  11.062  18.697  0.00  0.00    +0.000 C 
BRANCH  12  13
ATOM     13  C   UNL     1       1.026   9.697  18.856  0.00  0.00    +0.000 A 
ATOM     14  C   UNL     1       1.685   8.970  17.862  0.00  0.00    +0.000 A 
ATOM     15  C   UNL     1       2.331   7.761  18.184  0.00  0.00    +0.000 A 
ATOM     16  C   UNL     1       2.304   7.261  19.483  0.00  0.00    +0.000 A 
ATOM     17  C   UNL     1       1.598   7.937  20.470  0.00  0.00    +0.000 A 
ATOM     18  C   UNL     1       0.955   9.133  20.151  0.00  0.00    +0.000 A 
ENDBRANCH  12  13
ENDBRANCH  11  12
ENDBRANCH   1   2
BRANCH   1  19
ATOM     19  N   UNL     1       0.603  13.414  21.326  0.00  0.00    +0.000 N 
ATOM     20  C   UNL     1       2.017  13.222  21.181  0.00  0.00    +0.000 C 
ATOM     21  O   UNL     1       2.559  12.120  21.240  0.00  0.00    +0.000 OA
BRANCH  20  22
ATOM     22  C   UNL     1       2.968  14.328  20.827  0.00  0.00    +0.000 A 
ATOM     23  C   UNL     1       3.429  15.302  21.718  0.00  0.00    +0.000 A 
ATOM     24  C   UNL     1       4.257  16.337  21.269  0.00  0.00    +0.000 A 
ATOM     25  C   UNL     1       4.702  16.352  19.949  0.00  0.00    +0.000 A 
ATOM     26 CL   UNL     1       5.750  17.605  19.414  0.00  0.00    +0.000 Cl
ATOM     27  C   UNL     1       4.315  15.349  19.069  0.00  0.00    +0.000 A 
ATOM     28  C   UNL     1       3.443  14.348  19.502  0.00  0.00    +0.000 A 
ENDBRANCH  20  22
BRANCH  19  29
ATOM     29  C   UNL     1       0.076  14.770  20.912  0.00  0.00    +0.000 C 
BRANCH  29  30
ATOM     30  C   UNL     1      -0.151  15.683  19.620  0.00  0.00    +0.000 C 
ATOM     31  C   UNL     1       0.598  17.019  19.577  0.00  0.00    +0.000 C 
ATOM     32  C   UNL     1      -0.061  14.977  18.254  0.00  0.00    +0.000 C 
BRANCH  30  33
ATOM     33  N   UNL     1      -1.623  16.022  19.727  0.00  0.00    +0.000 NA
ATOM     34  H   UNL     1      -1.791  16.903  20.209  0.00  0.00    +0.000 HD
ATOM     35  H   UNL     1      -2.061  16.117  18.811  0.00  0.00    +0.000 HD
ENDBRANCH  30  33
ENDBRANCH  29  30
ENDBRANCH  19  29
ENDBRANCH   1  19
BRANCH   1  37
ATOM     36  C   UNL     1      -0.981  10.208  23.243  0.00  0.00    +0.000 C 
ATOM     37  C   UNL     1      -0.934  11.670  22.772  0.00  0.00    +0.000 C 
ENDBRANCH   1  37
TORSDOF 9
ENDMDL
