MODEL 1
REMARK VINA RESULT:     -10.1      0.000      0.000
REMARK  Name = 
REMARK  5 active torsions:
REMARK  status: ('A' for Active; 'I' for Inactive)
REMARK    1  A    between atoms: C_1  and  C_2
REMARK    2  A    between atoms: C_5  and  N_6
REMARK    3  A    between atoms: C_7  and  C_9
REMARK    4  A    between atoms: C_9  and  N_10
REMARK    5  A    between atoms: C_22  and  C_23
REMARK                            x       y       z     vdW  Elec       q    Type
REMARK                         _______ _______ _______ _____ _____    ______ ____
ROOT
ATOM      1  N   UNL     1       6.056   6.013  16.818  0.00  0.00    +0.000 NA
ATOM      2  C   UNL     1       5.438   6.162  18.142  0.00  0.00    +0.000 C 
ATOM      3  C   UNL     1       3.860   6.182  18.060  0.00  0.00    +0.000 C 
ATOM      4  C   UNL     1       3.407   4.883  17.422  0.00  0.00    +0.000 A 
ATOM      5  C   UNL     1       4.385   4.192  16.698  0.00  0.00    +0.000 A 
ATOM      6  N   UNL     1       4.510   3.054  17.505  0.00  0.00    +0.000 N 
ATOM      7  C   UNL     1       3.383   2.939  18.348  0.00  0.00    +0.000 A 
ATOM      8  C   UNL     1       3.073   2.136  19.465  0.00  0.00    +0.000 A 
ATOM      9  C   UNL     1       1.781   2.249  20.026  0.00  0.00    +0.000 A 
ATOM     10  C   UNL     1       0.828   3.114  19.489  0.00  0.00    +0.000 A 
ATOM     11  C   UNL     1       1.200   4.008  18.486  0.00  0.00    +0.000 A 
ATOM     12  C   UNL     1       2.506   3.948  17.960  0.00  0.00    +0.000 A 
ATOM     13  C   UNL     1       5.397   5.049  15.920  0.00  0.00    +0.000 C 
ATOM     14  H   UNL     1       5.355   2.516  17.630  0.00  0.00    +0.000 HD
ENDROOT
BRANCH  13  15
ATOM     15  C   UNL     1       6.161   4.688  14.646  0.00  0.00    +0.000 A 
ATOM     16  C   UNL     1       5.542   3.718  13.798  0.00  0.00    +0.000 A 
ATOM     17  C   UNL     1       5.958   3.487  12.488  0.00  0.00    +0.000 A 
ATOM     18  C   UNL     1       7.057   4.173  12.001  0.00  0.00    +0.000 A 
ATOM     19  C   UNL     1       7.743   5.057  12.845  0.00  0.00    +0.000 A 
ATOM     20  C   UNL     1       7.299   5.321  14.157  0.00  0.00    +0.000 A 
ENDBRANCH  13  15
BRANCH   1  21
ATOM     21  C   UNL     1       7.447   6.418  16.661  0.00  0.00    +0.000 C 
BRANCH  21  23
ATOM     22  N   UNL     1       8.112   8.694  17.311  0.00  0.00    +0.000 N 
ATOM     23  C   UNL     1       7.971   7.377  17.734  0.00  0.00    +0.000 C 
ATOM     24  O   UNL     1       8.180   6.959  18.870  0.00  0.00    +0.000 OA
ATOM     25  H   UNL     1       7.954   8.882  16.326  0.00  0.00    +0.000 HD
BRANCH  22  30
ATOM     26  C   UNL     1       9.770  13.283  20.362  0.00  0.00    +0.000 C 
ATOM     27  C   UNL     1       9.307  12.094  19.585  0.00  0.00    +0.000 A 
ATOM     28  C   UNL     1       9.446  10.803  20.129  0.00  0.00    +0.000 A 
ATOM     29  C   UNL     1       9.051   9.676  19.390  0.00  0.00    +0.000 A 
ATOM     30  C   UNL     1       8.508   9.808  18.108  0.00  0.00    +0.000 A 
ATOM     31  C   UNL     1       8.347  11.092  17.583  0.00  0.00    +0.000 A 
ATOM     32  C   UNL     1       8.750  12.223  18.306  0.00  0.00    +0.000 A 
ENDBRANCH  22  30
ENDBRANCH  21  23
ENDBRANCH   1  21
TORSDOF 4
ENDMDL
MODEL 2
REMARK VINA RESULT:      -9.5      0.805      1.153
REMARK  Name = 
REMARK  5 active torsions:
REMARK  status: ('A' for Active; 'I' for Inactive)
REMARK    1  A    between atoms: C_1  and  C_2
REMARK    2  A    between atoms: C_5  and  N_6
REMARK    3  A    between atoms: C_7  and  C_9
REMARK    4  A    between atoms: C_9  and  N_10
REMARK    5  A    between atoms: C_22  and  C_23
REMARK                            x       y       z     vdW  Elec       q    Type
REMARK                         _______ _______ _______ _____ _____    ______ ____
ROOT
ATOM      1  N   UNL     1       5.976   6.005  17.210  0.00  0.00    +0.000 NA
ATOM      2  C   UNL     1       5.231   6.013  18.476  0.00  0.00    +0.000 C 
ATOM      3  C   UNL     1       3.669   5.976  18.244  0.00  0.00    +0.000 C 
ATOM      4  C   UNL     1       3.341   4.720  17.459  0.00  0.00    +0.000 A 
ATOM      5  C   UNL     1       4.414   4.135  16.778  0.00  0.00    +0.000 A 
ATOM      6  N   UNL     1       4.518   2.937  17.495  0.00  0.00    +0.000 N 
ATOM      7  C   UNL     1       3.325   2.703  18.212  0.00  0.00    +0.000 A 
ATOM      8  C   UNL     1       2.951   1.794  19.224  0.00  0.00    +0.000 A 
ATOM      9  C   UNL     1       1.609   1.805  19.665  0.00  0.00    +0.000 A 
ATOM     10  C   UNL     1       0.669   2.674  19.112  0.00  0.00    +0.000 A 
ATOM     11  C   UNL     1       1.089   3.667  18.228  0.00  0.00    +0.000 A 
ATOM     12  C   UNL     1       2.440   3.706  17.827  0.00  0.00    +0.000 A 
ATOM     13  C   UNL     1       5.451   5.098  16.175  0.00  0.00    +0.000 C 
ATOM     14  H   UNL     1       5.373   2.425  17.656  0.00  0.00    +0.000 HD
ENDROOT
BRANCH  13  15
ATOM     15  C   UNL     1       6.347   4.880  14.956  0.00  0.00    +0.000 A 
ATOM     16  C   UNL     1       5.913   3.882  14.029  0.00  0.00    +0.000 A 
ATOM     17  C   UNL     1       6.451   3.755  12.750  0.00  0.00    +0.000 A 
ATOM     18  C   UNL     1       7.496   4.583  12.376  0.00  0.00    +0.000 A 
ATOM     19  C   UNL     1       8.007   5.503  13.300  0.00  0.00    +0.000 A 
ATOM     20  C   UNL     1       7.436   5.659  14.580  0.00  0.00    +0.000 A 
ENDBRANCH  13  15
BRANCH   1  21
ATOM     21  C   UNL     1       7.355   6.478  17.222  0.00  0.00    +0.000 C 
BRANCH  21  23
ATOM     22  N   UNL     1       8.534   8.298  18.380  0.00  0.00    +0.000 N 
ATOM     23  C   UNL     1       7.526   7.978  17.478  0.00  0.00    +0.000 C 
ATOM     24  O   UNL     1       6.827   8.781  16.864  0.00  0.00    +0.000 OA
ATOM     25  H   UNL     1       8.992   7.526  18.853  0.00  0.00    +0.000 HD
BRANCH  22  30
ATOM     26  C   UNL     1      10.144  13.567  20.044  0.00  0.00    +0.000 C 
ATOM     27  C   UNL     1       9.761  12.189  19.611  0.00  0.00    +0.000 A 
ATOM     28  C   UNL     1       9.643  11.893  18.239  0.00  0.00    +0.000 A 
ATOM     29  C   UNL     1       9.244  10.612  17.823  0.00  0.00    +0.000 A 
ATOM     30  C   UNL     1       8.962   9.606  18.753  0.00  0.00    +0.000 A 
ATOM     31  C   UNL     1       9.106   9.897  20.111  0.00  0.00    +0.000 A 
ATOM     32  C   UNL     1       9.490  11.175  20.538  0.00  0.00    +0.000 A 
ENDBRANCH  22  30
ENDBRANCH  21  23
ENDBRANCH   1  21
TORSDOF 4
ENDMDL
MODEL 3
REMARK VINA RESULT:      -9.2      7.301     10.747
REMARK  Name = 
REMARK  5 active torsions:
REMARK  status: ('A' for Active; 'I' for Inactive)
REMARK    1  A    between atoms: C_1  and  C_2
REMARK    2  A    between atoms: C_5  and  N_6
REMARK    3  A    between atoms: C_7  and  C_9
REMARK    4  A    between atoms: C_9  and  N_10
REMARK    5  A    between atoms: C_22  and  C_23
REMARK                            x       y       z     vdW  Elec       q    Type
REMARK                         _______ _______ _______ _____ _____    ______ ____
ROOT
ATOM      1  N   UNL     1       0.328  11.602  19.992  0.00  0.00    +0.000 NA
ATOM      2  C   UNL     1       1.244  12.536  20.661  0.00  0.00    +0.000 C 
ATOM      3  C   UNL     1       1.968  13.493  19.633  0.00  0.00    +0.000 C 
ATOM      4  C   UNL     1       0.901  14.266  18.881  0.00  0.00    +0.000 A 
ATOM      5  C   UNL     1      -0.385  13.715  18.920  0.00  0.00    +0.000 A 
ATOM      6  N   UNL     1      -1.039  14.708  19.660  0.00  0.00    +0.000 N 
ATOM      7  C   UNL     1      -0.279  15.897  19.642  0.00  0.00    +0.000 A 
ATOM      8  C   UNL     1      -0.344  17.112  20.356  0.00  0.00    +0.000 A 
ATOM      9  C   UNL     1       0.567  18.135  20.010  0.00  0.00    +0.000 A 
ATOM     10  C   UNL     1       1.495  17.966  18.983  0.00  0.00    +0.000 A 
ATOM     11  C   UNL     1       1.648  16.711  18.397  0.00  0.00    +0.000 A 
ATOM     12  C   UNL     1       0.786  15.663  18.777  0.00  0.00    +0.000 A 
ATOM     13  C   UNL     1      -0.475  12.180  18.901  0.00  0.00    +0.000 C 
ATOM     14  H   UNL     1      -1.815  14.552  20.286  0.00  0.00    +0.000 HD
ENDROOT
BRANCH  13  15
ATOM     15  C   UNL     1      -1.609  11.306  18.366  0.00  0.00    +0.000 A 
ATOM     16  C   UNL     1      -2.934  11.723  18.702  0.00  0.00    +0.000 A 
ATOM     17  C   UNL     1      -4.069  11.211  18.076  0.00  0.00    +0.000 A 
ATOM     18  C   UNL     1      -3.920  10.208  17.134  0.00  0.00    +0.000 A 
ATOM     19  C   UNL     1      -2.639   9.711  16.857  0.00  0.00    +0.000 A 
ATOM     20  C   UNL     1      -1.488  10.257  17.462  0.00  0.00    +0.000 A 
ENDBRANCH  13  15
BRANCH   1  21
ATOM     21  C   UNL     1      -0.063  10.394  20.708  0.00  0.00    +0.000 C 
BRANCH  21  23
ATOM     22  N   UNL     1       1.248   8.809  19.361  0.00  0.00    +0.000 N 
ATOM     23  C   UNL     1       0.949   9.246  20.646  0.00  0.00    +0.000 C 
ATOM     24  O   UNL     1       1.454   8.828  21.685  0.00  0.00    +0.000 OA
ATOM     25  H   UNL     1       0.710   9.211  18.600  0.00  0.00    +0.000 HD
BRANCH  22  30
ATOM     26  C   UNL     1       5.054   4.820  17.710  0.00  0.00    +0.000 C 
ATOM     27  C   UNL     1       4.091   5.872  18.158  0.00  0.00    +0.000 A 
ATOM     28  C   UNL     1       3.324   5.669  19.321  0.00  0.00    +0.000 A 
ATOM     29  C   UNL     1       2.388   6.633  19.729  0.00  0.00    +0.000 A 
ATOM     30  C   UNL     1       2.200   7.811  18.998  0.00  0.00    +0.000 A 
ATOM     31  C   UNL     1       2.982   8.019  17.861  0.00  0.00    +0.000 A 
ATOM     32  C   UNL     1       3.910   7.058  17.437  0.00  0.00    +0.000 A 
ENDBRANCH  22  30
ENDBRANCH  21  23
ENDBRANCH   1  21
TORSDOF 4
ENDMDL
MODEL 4
REMARK VINA RESULT:      -9.1      3.627      7.672
REMARK  Name = 
REMARK  5 active torsions:
REMARK  status: ('A' for Active; 'I' for Inactive)
REMARK    1  A    between atoms: C_1  and  C_2
REMARK    2  A    between atoms: C_5  and  N_6
REMARK    3  A    between atoms: C_7  and  C_9
REMARK    4  A    between atoms: C_9  and  N_10
REMARK    5  A    between atoms: C_22  and  C_23
REMARK                            x       y       z     vdW  Elec       q    Type
REMARK                         _______ _______ _______ _____ _____    ______ ____
ROOT
ATOM      1  N   UNL     1       3.455   6.651  18.374  0.00  0.00    +0.000 NA
ATOM      2  C   UNL     1       3.648   8.076  18.073  0.00  0.00    +0.000 C 
ATOM      3  C   UNL     1       2.341   8.739  17.482  0.00  0.00    +0.000 C 
ATOM      4  C   UNL     1       1.229   8.572  18.500  0.00  0.00    +0.000 A 
ATOM      5  C   UNL     1       1.435   7.578  19.463  0.00  0.00    +0.000 A 
ATOM      6  N   UNL     1       1.543   8.381  20.605  0.00  0.00    +0.000 N 
ATOM      7  C   UNL     1       1.003   9.659  20.344  0.00  0.00    +0.000 A 
ATOM      8  C   UNL     1       1.024  10.890  21.032  0.00  0.00    +0.000 A 
ATOM      9  C   UNL     1       0.291  11.968  20.486  0.00  0.00    +0.000 A 
ATOM     10  C   UNL     1      -0.448  11.824  19.313  0.00  0.00    +0.000 A 
ATOM     11  C   UNL     1      -0.332  10.652  18.568  0.00  0.00    +0.000 A 
ATOM     12  C   UNL     1       0.446   9.591  19.070  0.00  0.00    +0.000 A 
ATOM     13  C   UNL     1       2.163   6.308  18.992  0.00  0.00    +0.000 C 
ATOM     14  H   UNL     1       2.105   8.169  21.416  0.00  0.00    +0.000 HD
ENDROOT
BRANCH  13  15
ATOM     15  C   UNL     1       2.041   4.888  19.546  0.00  0.00    +0.000 A 
ATOM     16  C   UNL     1       2.351   4.726  20.932  0.00  0.00    +0.000 A 
ATOM     17  C   UNL     1       2.029   3.575  21.649  0.00  0.00    +0.000 A 
ATOM     18  C   UNL     1       1.441   2.513  20.984  0.00  0.00    +0.000 A 
ATOM     19  C   UNL     1       1.216   2.607  19.604  0.00  0.00    +0.000 A 
ATOM     20  C   UNL     1       1.507   3.786  18.887  0.00  0.00    +0.000 A 
ENDBRANCH  13  15
BRANCH   1  21
ATOM     21  C   UNL     1       4.638   5.809  18.491  0.00  0.00    +0.000 C 
BRANCH  21  23
ATOM     22  N   UNL     1       5.442   5.568  16.180  0.00  0.00    +0.000 N 
ATOM     23  C   UNL     1       4.917   4.907  17.285  0.00  0.00    +0.000 C 
ATOM     24  O   UNL     1       4.717   3.698  17.374  0.00  0.00    +0.000 OA
ATOM     25  H   UNL     1       5.501   6.580  16.233  0.00  0.00    +0.000 HD
BRANCH  22  30
ATOM     26  C   UNL     1       7.025   3.024  11.267  0.00  0.00    +0.000 C 
ATOM     27  C   UNL     1       6.603   3.713  12.524  0.00  0.00    +0.000 A 
ATOM     28  C   UNL     1       7.514   4.539  13.210  0.00  0.00    +0.000 A 
ATOM     29  C   UNL     1       7.140   5.159  14.414  0.00  0.00    +0.000 A 
ATOM     30  C   UNL     1       5.862   4.977  14.952  0.00  0.00    +0.000 A 
ATOM     31  C   UNL     1       4.954   4.179  14.254  0.00  0.00    +0.000 A 
ATOM     32  C   UNL     1       5.320   3.545  13.059  0.00  0.00    +0.000 A 
ENDBRANCH  22  30
ENDBRANCH  21  23
ENDBRANCH   1  21
TORSDOF 4
ENDMDL
MODEL 5
REMARK VINA RESULT:      -9.0      7.766     10.669
REMARK  Name = 
REMARK  5 active torsions:
REMARK  status: ('A' for Active; 'I' for Inactive)
REMARK    1  A    between atoms: C_1  and  C_2
REMARK    2  A    between atoms: C_5  and  N_6
REMARK    3  A    between atoms: C_7  and  C_9
REMARK    4  A    between atoms: C_9  and  N_10
REMARK    5  A    between atoms: C_22  and  C_23
REMARK                            x       y       z     vdW  Elec       q    Type
REMARK                         _______ _______ _______ _____ _____    ______ ____
ROOT
ATOM      1  N   UNL     1       0.152  11.247  21.973  0.00  0.00    +0.000 NA
ATOM      2  C   UNL     1      -1.126  10.747  22.496  0.00  0.00    +0.000 C 
ATOM      3  C   UNL     1      -2.043  11.915  23.035  0.00  0.00    +0.000 C 
ATOM      4  C   UNL     1      -2.295  12.878  21.891  0.00  0.00    +0.000 A 
ATOM      5  C   UNL     1      -1.397  12.795  20.821  0.00  0.00    +0.000 A 
ATOM      6  N   UNL     1      -2.265  12.329  19.826  0.00  0.00    +0.000 N 
ATOM      7  C   UNL     1      -3.603  12.561  20.210  0.00  0.00    +0.000 A 
ATOM      8  C   UNL     1      -4.853  12.135  19.715  0.00  0.00    +0.000 A 
ATOM      9  C   UNL     1      -6.020  12.643  20.330  0.00  0.00    +0.000 A 
ATOM     10  C   UNL     1      -5.948  13.552  21.385  0.00  0.00    +0.000 A 
ATOM     11  C   UNL     1      -4.712  13.840  21.960  0.00  0.00    +0.000 A 
ATOM     12  C   UNL     1      -3.544  13.291  21.394  0.00  0.00    +0.000 A 
ATOM     13  C   UNL     1       0.066  12.483  21.177  0.00  0.00    +0.000 C 
ATOM     14  H   UNL     1      -2.003  11.730  19.057  0.00  0.00    +0.000 HD
ENDROOT
BRANCH  13  15
ATOM     15  C   UNL     1       1.330  12.879  20.413  0.00  0.00    +0.000 A 
ATOM     16  C   UNL     1       1.357  12.536  19.026  0.00  0.00    +0.000 A 
ATOM     17  C   UNL     1       2.294  13.061  18.137  0.00  0.00    +0.000 A 
ATOM     18  C   UNL     1       3.283  13.899  18.621  0.00  0.00    +0.000 A 
ATOM     19  C   UNL     1       3.338  14.173  19.994  0.00  0.00    +0.000 A 
ATOM     20  C   UNL     1       2.368  13.674  20.887  0.00  0.00    +0.000 A 
ENDBRANCH  13  15
BRANCH   1  21
ATOM     21  C   UNL     1       1.262  10.310  21.861  0.00  0.00    +0.000 C 
BRANCH  21  23
ATOM     22  N   UNL     1       1.957   8.150  20.912  0.00  0.00    +0.000 N 
ATOM     23  C   UNL     1       1.101   9.237  20.780  0.00  0.00    +0.000 C 
ATOM     24  O   UNL     1       0.230   9.368  19.923  0.00  0.00    +0.000 OA
ATOM     25  H   UNL     1       2.665   8.207  21.638  0.00  0.00    +0.000 HD
BRANCH  22  30
ATOM     26  C   UNL     1       2.110   3.320  17.787  0.00  0.00    +0.000 C 
ATOM     27  C   UNL     1       2.037   4.581  18.587  0.00  0.00    +0.000 A 
ATOM     28  C   UNL     1       2.440   5.800  18.011  0.00  0.00    +0.000 A 
ATOM     29  C   UNL     1       2.413   6.984  18.768  0.00  0.00    +0.000 A 
ATOM     30  C   UNL     1       1.983   6.980  20.099  0.00  0.00    +0.000 A 
ATOM     31  C   UNL     1       1.559   5.773  20.657  0.00  0.00    +0.000 A 
ATOM     32  C   UNL     1       1.594   4.583  19.916  0.00  0.00    +0.000 A 
ENDBRANCH  22  30
ENDBRANCH  21  23
ENDBRANCH   1  21
TORSDOF 4
ENDMDL
MODEL 6
REMARK VINA RESULT:      -9.0      7.220     10.804
REMARK  Name = 
REMARK  5 active torsions:
REMARK  status: ('A' for Active; 'I' for Inactive)
REMARK    1  A    between atoms: C_1  and  C_2
REMARK    2  A    between atoms: C_5  and  N_6
REMARK    3  A    between atoms: C_7  and  C_9
REMARK    4  A    between atoms: C_9  and  N_10
REMARK    5  A    between atoms: C_22  and  C_23
REMARK                            x       y       z     vdW  Elec       q    Type
REMARK                         _______ _______ _______ _____ _____    ______ ____
ROOT
ATOM      1  N   UNL     1       0.801  11.641  19.015  0.00  0.00    +0.000 NA
ATOM      2  C   UNL     1       1.864  12.500  19.551  0.00  0.00    +0.000 C 
ATOM      3  C   UNL     1       2.029  13.831  18.716  0.00  0.00    +0.000 C 
ATOM      4  C   UNL     1       0.705  14.570  18.745  0.00  0.00    +0.000 A 
ATOM      5  C   UNL     1      -0.411  13.798  19.088  0.00  0.00    +0.000 A 
ATOM      6  N   UNL     1      -0.737  14.393  20.312  0.00  0.00    +0.000 N 
ATOM      7  C   UNL     1      -0.120  15.659  20.408  0.00  0.00    +0.000 A 
ATOM      8  C   UNL     1       0.063  16.583  21.457  0.00  0.00    +0.000 A 
ATOM      9  C   UNL     1       0.684  17.817  21.157  0.00  0.00    +0.000 A 
ATOM     10  C   UNL     1       1.092  18.128  19.860  0.00  0.00    +0.000 A 
ATOM     11  C   UNL     1       1.044  17.146  18.872  0.00  0.00    +0.000 A 
ATOM     12  C   UNL     1       0.484  15.889  19.175  0.00  0.00    +0.000 A 
ATOM     13  C   UNL     1      -0.420  12.344  18.585  0.00  0.00    +0.000 C 
ATOM     14  H   UNL     1      -1.162  13.921  21.097  0.00  0.00    +0.000 HD
ENDROOT
BRANCH  13  15
ATOM     15  C   UNL     1      -1.627  11.461  18.268  0.00  0.00    +0.000 A 
ATOM     16  C   UNL     1      -2.867  11.858  18.859  0.00  0.00    +0.000 A 
ATOM     17  C   UNL     1      -4.095  11.337  18.456  0.00  0.00    +0.000 A 
ATOM     18  C   UNL     1      -4.120  10.346  17.490  0.00  0.00    +0.000 A 
ATOM     19  C   UNL     1      -2.912   9.869  16.965  0.00  0.00    +0.000 A 
ATOM     20  C   UNL     1      -1.672  10.423  17.343  0.00  0.00    +0.000 A 
ENDBRANCH  13  15
BRANCH   1  21
ATOM     21  C   UNL     1       0.817  10.227  19.368  0.00  0.00    +0.000 C 
BRANCH  21  23
ATOM     22  N   UNL     1       2.004   8.105  19.002  0.00  0.00    +0.000 N 
ATOM     23  C   UNL     1       1.666   9.338  18.456  0.00  0.00    +0.000 C 
ATOM     24  O   UNL     1       1.948   9.726  17.324  0.00  0.00    +0.000 OA
ATOM     25  H   UNL     1       1.748   7.945  19.972  0.00  0.00    +0.000 HD
BRANCH  22  30
ATOM     26  C   UNL     1       4.849   3.743  16.554  0.00  0.00    +0.000 C 
ATOM     27  C   UNL     1       4.091   4.880  17.160  0.00  0.00    +0.000 A 
ATOM     28  C   UNL     1       4.591   6.192  17.048  0.00  0.00    +0.000 A 
ATOM     29  C   UNL     1       3.907   7.263  17.648  0.00  0.00    +0.000 A 
ATOM     30  C   UNL     1       2.722   7.054  18.360  0.00  0.00    +0.000 A 
ATOM     31  C   UNL     1       2.217   5.756  18.444  0.00  0.00    +0.000 A 
ATOM     32  C   UNL     1       2.897   4.677  17.861  0.00  0.00    +0.000 A 
ENDBRANCH  22  30
ENDBRANCH  21  23
ENDBRANCH   1  21
TORSDOF 4
ENDMDL
MODEL 7
REMARK VINA RESULT:      -8.9      3.683      7.667
REMARK  Name = 
REMARK  5 active torsions:
REMARK  status: ('A' for Active; 'I' for Inactive)
REMARK    1  A    between atoms: C_1  and  C_2
REMARK    2  A    between atoms: C_5  and  N_6
REMARK    3  A    between atoms: C_7  and  C_9
REMARK    4  A    between atoms: C_9  and  N_10
REMARK    5  A    between atoms: C_22  and  C_23
REMARK                            x       y       z     vdW  Elec       q    Type
REMARK                         _______ _______ _______ _____ _____    ______ ____
ROOT
ATOM      1  N   UNL     1       3.269   6.601  18.657  0.00  0.00    +0.000 NA
ATOM      2  C   UNL     1       3.534   7.983  18.237  0.00  0.00    +0.000 C 
ATOM      3  C   UNL     1       2.258   8.664  17.601  0.00  0.00    +0.000 C 
ATOM      4  C   UNL     1       1.150   8.642  18.637  0.00  0.00    +0.000 A 
ATOM      5  C   UNL     1       1.313   7.722  19.678  0.00  0.00    +0.000 A 
ATOM      6  N   UNL     1       1.477   8.610  20.748  0.00  0.00    +0.000 N 
ATOM      7  C   UNL     1       1.002   9.889  20.385  0.00  0.00    +0.000 A 
ATOM      8  C   UNL     1       1.096  11.171  20.967  0.00  0.00    +0.000 A 
ATOM      9  C   UNL     1       0.415  12.238  20.338  0.00  0.00    +0.000 A 
ATOM     10  C   UNL     1      -0.343  12.037  19.186  0.00  0.00    +0.000 A 
ATOM     11  C   UNL     1      -0.298  10.802  18.541  0.00  0.00    +0.000 A 
ATOM     12  C   UNL     1       0.429   9.746  19.125  0.00  0.00    +0.000 A 
ATOM     13  C   UNL     1       1.968   6.380  19.311  0.00  0.00    +0.000 C 
ATOM     14  H   UNL     1       2.036   8.437  21.571  0.00  0.00    +0.000 HD
ENDROOT
BRANCH  13  15
ATOM     15  C   UNL     1       1.777   5.020  19.982  0.00  0.00    +0.000 A 
ATOM     16  C   UNL     1       1.313   3.964  19.138  0.00  0.00    +0.000 A 
ATOM     17  C   UNL     1       1.352   2.623  19.516  0.00  0.00    +0.000 A 
ATOM     18  C   UNL     1       1.797   2.296  20.785  0.00  0.00    +0.000 A 
ATOM     19  C   UNL     1       2.164   3.319  21.668  0.00  0.00    +0.000 A 
ATOM     20  C   UNL     1       2.162   4.673  21.273  0.00  0.00    +0.000 A 
ENDBRANCH  13  15
BRANCH   1  21
ATOM     21  C   UNL     1       4.407   5.709  18.837  0.00  0.00    +0.000 C 
BRANCH  21  23
ATOM     22  N   UNL     1       5.200   5.521  16.517  0.00  0.00    +0.000 N 
ATOM     23  C   UNL     1       4.739   4.827  17.630  0.00  0.00    +0.000 C 
ATOM     24  O   UNL     1       4.631   3.606  17.724  0.00  0.00    +0.000 OA
ATOM     25  H   UNL     1       5.184   6.535  16.567  0.00  0.00    +0.000 HD
BRANCH  22  30
ATOM     26  C   UNL     1       7.121   3.411  11.520  0.00  0.00    +0.000 C 
ATOM     27  C   UNL     1       6.633   3.929  12.834  0.00  0.00    +0.000 A 
ATOM     28  C   UNL     1       5.308   3.676  13.238  0.00  0.00    +0.000 A 
ATOM     29  C   UNL     1       4.828   4.192  14.452  0.00  0.00    +0.000 A 
ATOM     30  C   UNL     1       5.649   4.959  15.286  0.00  0.00    +0.000 A 
ATOM     31  C   UNL     1       6.969   5.184  14.893  0.00  0.00    +0.000 A 
ATOM     32  C   UNL     1       7.456   4.685  13.677  0.00  0.00    +0.000 A 
ENDBRANCH  22  30
ENDBRANCH  21  23
ENDBRANCH   1  21
TORSDOF 4
ENDMDL
MODEL 8
REMARK VINA RESULT:      -8.9      6.928      9.265
REMARK  Name = 
REMARK  5 active torsions:
REMARK  status: ('A' for Active; 'I' for Inactive)
REMARK    1  A    between atoms: C_1  and  C_2
REMARK    2  A    between atoms: C_5  and  N_6
REMARK    3  A    between atoms: C_7  and  C_9
REMARK    4  A    between atoms: C_9  and  N_10
REMARK    5  A    between atoms: C_22  and  C_23
REMARK                            x       y       z     vdW  Elec       q    Type
REMARK                         _______ _______ _______ _____ _____    ______ ____
ROOT
ATOM      1  N   UNL     1       1.379   8.639  20.592  0.00  0.00    +0.000 NA
ATOM      2  C   UNL     1       2.077   7.419  21.018  0.00  0.00    +0.000 C 
ATOM      3  C   UNL     1       1.670   6.168  20.143  0.00  0.00    +0.000 C 
ATOM      4  C   UNL     1       2.009   6.477  18.697  0.00  0.00    +0.000 A 
ATOM      5  C   UNL     1       2.178   7.832  18.393  0.00  0.00    +0.000 A 
ATOM      6  N   UNL     1       3.543   7.832  18.085  0.00  0.00    +0.000 N 
ATOM      7  C   UNL     1       3.974   6.514  17.819  0.00  0.00    +0.000 A 
ATOM      8  C   UNL     1       5.238   5.909  17.660  0.00  0.00    +0.000 A 
ATOM      9  C   UNL     1       5.281   4.538  17.321  0.00  0.00    +0.000 A 
ATOM     10  C   UNL     1       4.114   3.800  17.131  0.00  0.00    +0.000 A 
ATOM     11  C   UNL     1       2.881   4.371  17.443  0.00  0.00    +0.000 A 
ATOM     12  C   UNL     1       2.830   5.722  17.842  0.00  0.00    +0.000 A 
ATOM     13  C   UNL     1       1.263   8.821  19.135  0.00  0.00    +0.000 C 
ATOM     14  H   UNL     1       4.176   8.604  18.235  0.00  0.00    +0.000 HD
ENDROOT
BRANCH  13  15
ATOM     15  C   UNL     1       0.777  10.193  18.667  0.00  0.00    +0.000 A 
ATOM     16  C   UNL     1      -0.610  10.285  18.332  0.00  0.00    +0.000 A 
ATOM     17  C   UNL     1      -1.265  11.503  18.159  0.00  0.00    +0.000 A 
ATOM     18  C   UNL     1      -0.536  12.676  18.250  0.00  0.00    +0.000 A 
ATOM     19  C   UNL     1       0.844  12.611  18.480  0.00  0.00    +0.000 A 
ATOM     20  C   UNL     1       1.500  11.380  18.694  0.00  0.00    +0.000 A 
ENDBRANCH  13  15
BRANCH   1  21
ATOM     21  C   UNL     1       1.289   9.744  21.537  0.00  0.00    +0.000 C 
BRANCH  21  23
ATOM     22  N   UNL     1      -0.536  11.360  21.860  0.00  0.00    +0.000 N 
ATOM     23  C   UNL     1      -0.121  10.047  22.052  0.00  0.00    +0.000 C 
ATOM     24  O   UNL     1      -0.795   9.142  22.539  0.00  0.00    +0.000 OA
ATOM     25  H   UNL     1       0.151  12.012  21.494  0.00  0.00    +0.000 HD
BRANCH  22  30
ATOM     26  C   UNL     1      -5.721  13.425  23.263  0.00  0.00    +0.000 C 
ATOM     27  C   UNL     1      -4.361  12.921  22.903  0.00  0.00    +0.000 A 
ATOM     28  C   UNL     1      -3.939  12.941  21.560  0.00  0.00    +0.000 A 
ATOM     29  C   UNL     1      -2.678  12.433  21.206  0.00  0.00    +0.000 A 
ATOM     30  C   UNL     1      -1.816  11.905  22.173  0.00  0.00    +0.000 A 
ATOM     31  C   UNL     1      -2.228  11.912  23.506  0.00  0.00    +0.000 A 
ATOM     32  C   UNL     1      -3.489  12.404  23.870  0.00  0.00    +0.000 A 
ENDBRANCH  22  30
ENDBRANCH  21  23
ENDBRANCH   1  21
TORSDOF 4
ENDMDL
MODEL 9
REMARK VINA RESULT:      -8.9      4.052      6.854
REMARK  Name = 
REMARK  5 active torsions:
REMARK  status: ('A' for Active; 'I' for Inactive)
REMARK    1  A    between atoms: C_1  and  C_2
REMARK    2  A    between atoms: C_5  and  N_6
REMARK    3  A    between atoms: C_7  and  C_9
REMARK    4  A    between atoms: C_9  and  N_10
REMARK    5  A    between atoms: C_22  and  C_23
REMARK                            x       y       z     vdW  Elec       q    Type
REMARK                         _______ _______ _______ _____ _____    ______ ____
ROOT
ATOM      1  N   UNL     1       2.945   6.707  18.446  0.00  0.00    +0.000 NA
ATOM      2  C   UNL     1       3.601   7.382  17.319  0.00  0.00    +0.000 C 
ATOM      3  C   UNL     1       5.158   7.111  17.291  0.00  0.00    +0.000 C 
ATOM      4  C   UNL     1       5.371   5.613  17.192  0.00  0.00    +0.000 A 
ATOM      5  C   UNL     1       4.278   4.821  17.559  0.00  0.00    +0.000 A 
ATOM      6  N   UNL     1       3.975   4.254  16.315  0.00  0.00    +0.000 N 
ATOM      7  C   UNL     1       5.079   4.387  15.447  0.00  0.00    +0.000 A 
ATOM      8  C   UNL     1       5.267   4.191  14.063  0.00  0.00    +0.000 A 
ATOM      9  C   UNL     1       6.568   4.358  13.538  0.00  0.00    +0.000 A 
ATOM     10  C   UNL     1       7.645   4.690  14.358  0.00  0.00    +0.000 A 
ATOM     11  C   UNL     1       7.415   5.031  15.690  0.00  0.00    +0.000 A 
ATOM     12  C   UNL     1       6.109   4.928  16.211  0.00  0.00    +0.000 A 
ATOM     13  C   UNL     1       3.415   5.339  18.722  0.00  0.00    +0.000 C 
ATOM     14  H   UNL     1       3.052   3.985  16.005  0.00  0.00    +0.000 HD
ENDROOT
BRANCH  13  15
ATOM     15  C   UNL     1       2.579   4.529  19.713  0.00  0.00    +0.000 A 
ATOM     16  C   UNL     1       1.602   3.655  19.143  0.00  0.00    +0.000 A 
ATOM     17  C   UNL     1       0.961   2.659  19.876  0.00  0.00    +0.000 A 
ATOM     18  C   UNL     1       1.226   2.545  21.230  0.00  0.00    +0.000 A 
ATOM     19  C   UNL     1       2.106   3.453  21.835  0.00  0.00    +0.000 A 
ATOM     20  C   UNL     1       2.784   4.436  21.085  0.00  0.00    +0.000 A 
ENDBRANCH  13  15
BRANCH   1  21
ATOM     21  C   UNL     1       1.641   7.197  18.874  0.00  0.00    +0.000 C 
BRANCH  21  23
ATOM     22  N   UNL     1       1.435   9.596  18.372  0.00  0.00    +0.000 N 
ATOM     23  C   UNL     1       1.621   8.646  19.370  0.00  0.00    +0.000 C 
ATOM     24  O   UNL     1       1.716   8.875  20.574  0.00  0.00    +0.000 OA
ATOM     25  H   UNL     1       1.428   9.262  17.413  0.00  0.00    +0.000 HD
BRANCH  22  30
ATOM     26  C   UNL     1       1.103  15.292  19.118  0.00  0.00    +0.000 C 
ATOM     27  C   UNL     1       1.174  13.817  18.892  0.00  0.00    +0.000 A 
ATOM     28  C   UNL     1       0.102  12.995  19.288  0.00  0.00    +0.000 A 
ATOM     29  C   UNL     1       0.176  11.603  19.116  0.00  0.00    +0.000 A 
ATOM     30  C   UNL     1       1.305  11.005  18.548  0.00  0.00    +0.000 A 
ATOM     31  C   UNL     1       2.355  11.826  18.133  0.00  0.00    +0.000 A 
ATOM     32  C   UNL     1       2.298  13.216  18.311  0.00  0.00    +0.000 A 
ENDBRANCH  22  30
ENDBRANCH  21  23
ENDBRANCH   1  21
TORSDOF 4
ENDMDL
