MODEL 1
REMARK VINA RESULT:      -7.2      0.000      0.000
REMARK  Name = 
REMARK  3 active torsions:
REMARK  status: ('A' for Active; 'I' for Inactive)
REMARK    1  A    between atoms: C_2  and  O_3
REMARK    2  A    between atoms: C_2  and  C_4
REMARK    3  A    between atoms: C_4  and  N_5
REMARK                            x       y       z     vdW  Elec       q    Type
REMARK                         _______ _______ _______ _____ _____    ______ ____
ROOT
ATOM      1  N   UNL     1       6.015   5.530  17.437  0.00  0.00    +0.000 N 
ATOM      2  C   UNL     1       6.539   5.402  16.152  0.00  0.00    +0.000 A 
ATOM      3  O   UNL     1       7.560   6.001  15.810  0.00  0.00    +0.000 OA
ATOM      4  C   UNL     1       5.775   4.525  15.144  0.00  0.00    +0.000 A 
ATOM      5  O   UNL     1       6.197   4.349  14.007  0.00  0.00    +0.000 OA
ATOM      6  N   UNL     1       4.611   3.951  15.583  0.00  0.00    +0.000 N 
ATOM      7  C   UNL     1       4.095   4.132  16.868  0.00  0.00    +0.000 A 
ATOM      8  C   UNL     1       2.916   3.465  17.212  0.00  0.00    +0.000 A 
ATOM      9  C   UNL     1       2.386   3.608  18.497  0.00  0.00    +0.000 A 
ATOM     10 CL   UNL     1       0.978   2.689  18.892  0.00  0.00    +0.000 Cl
ATOM     11  C   UNL     1       3.007   4.462  19.411  0.00  0.00    +0.000 A 
ATOM     12 CL   UNL     1       2.404   4.696  21.013  0.00  0.00    +0.000 Cl
ATOM     13  C   UNL     1       4.176   5.145  19.051  0.00  0.00    +0.000 A 
ATOM     14  C   UNL     1       4.763   4.950  17.793  0.00  0.00    +0.000 A 
ATOM     15  H   UNL     1       4.124   3.376  14.903  0.00  0.00    +0.000 HD
ENDROOT
BRANCH   1  16
ATOM     16  C   UNL     1       6.824   6.255  18.418  0.00  0.00    +0.000 C 
BRANCH  16  18
ATOM     17  O   UNL     1       8.406   4.439  18.626  0.00  0.00    +0.000 OA
ATOM     18  C   UNL     1       7.775   5.336  19.167  0.00  0.00    +0.000 C 
BRANCH  18  19
ATOM     19  O   UNL     1       7.901   5.626  20.483  0.00  0.00    +0.000 OA
ATOM     20  H   UNL     1       7.980   6.590  20.674  0.00  0.00    +0.000 HD
ENDBRANCH  18  19
ENDBRANCH  16  18
ENDBRANCH   1  16
TORSDOF 3
ENDMDL
MODEL 2
REMARK VINA RESULT:      -7.0      1.494      3.669
REMARK  Name = 
REMARK  3 active torsions:
REMARK  status: ('A' for Active; 'I' for Inactive)
REMARK    1  A    between atoms: C_2  and  O_3
REMARK    2  A    between atoms: C_2  and  C_4
REMARK    3  A    between atoms: C_4  and  N_5
REMARK                            x       y       z     vdW  Elec       q    Type
REMARK                         _______ _______ _______ _____ _____    ______ ____
ROOT
ATOM      1  N   UNL     1       6.045   5.483  16.641  0.00  0.00    +0.000 N 
ATOM      2  C   UNL     1       7.128   6.252  17.065  0.00  0.00    +0.000 A 
ATOM      3  O   UNL     1       7.833   6.869  16.264  0.00  0.00    +0.000 OA
ATOM      4  C   UNL     1       7.456   6.270  18.569  0.00  0.00    +0.000 A 
ATOM      5  O   UNL     1       8.378   6.948  19.009  0.00  0.00    +0.000 OA
ATOM      6  N   UNL     1       6.667   5.502  19.383  0.00  0.00    +0.000 N 
ATOM      7  C   UNL     1       5.613   4.713  18.918  0.00  0.00    +0.000 A 
ATOM      8  C   UNL     1       4.855   3.998  19.850  0.00  0.00    +0.000 A 
ATOM      9  C   UNL     1       3.779   3.217  19.419  0.00  0.00    +0.000 A 
ATOM     10 CL   UNL     1       2.825   2.430  20.624  0.00  0.00    +0.000 Cl
ATOM     11  C   UNL     1       3.505   3.110  18.054  0.00  0.00    +0.000 A 
ATOM     12 CL   UNL     1       2.198   2.156  17.447  0.00  0.00    +0.000 Cl
ATOM     13  C   UNL     1       4.283   3.811  17.125  0.00  0.00    +0.000 A 
ATOM     14  C   UNL     1       5.315   4.661  17.547  0.00  0.00    +0.000 A 
ATOM     15  H   UNL     1       6.900   5.530  20.370  0.00  0.00    +0.000 HD
ENDROOT
BRANCH   1  16
ATOM     16  C   UNL     1       5.667   5.585  15.231  0.00  0.00    +0.000 C 
BRANCH  16  18
ATOM     17  O   UNL     1       6.333   3.595  14.032  0.00  0.00    +0.000 OA
ATOM     18  C   UNL     1       6.571   4.756  14.334  0.00  0.00    +0.000 C 
BRANCH  18  19
ATOM     19  O   UNL     1       7.643   5.430  13.857  0.00  0.00    +0.000 OA
ATOM     20  H   UNL     1       7.554   5.708  12.916  0.00  0.00    +0.000 HD
ENDBRANCH  18  19
ENDBRANCH  16  18
ENDBRANCH   1  16
TORSDOF 3
ENDMDL
MODEL 3
REMARK VINA RESULT:      -6.8      3.543      5.027
REMARK  Name = 
REMARK  3 active torsions:
REMARK  status: ('A' for Active; 'I' for Inactive)
REMARK    1  A    between atoms: C_2  and  O_3
REMARK    2  A    between atoms: C_2  and  C_4
REMARK    3  A    between atoms: C_4  and  N_5
REMARK                            x       y       z     vdW  Elec       q    Type
REMARK                         _______ _______ _______ _____ _____    ______ ____
ROOT
ATOM      1  N   UNL     1       3.402   4.327  18.860  0.00  0.00    +0.000 N 
ATOM      2  C   UNL     1       3.390   3.231  19.721  0.00  0.00    +0.000 A 
ATOM      3  O   UNL     1       3.847   2.139  19.380  0.00  0.00    +0.000 OA
ATOM      4  C   UNL     1       2.738   3.406  21.104  0.00  0.00    +0.000 A 
ATOM      5  O   UNL     1       2.719   2.491  21.918  0.00  0.00    +0.000 OA
ATOM      6  N   UNL     1       2.190   4.632  21.378  0.00  0.00    +0.000 N 
ATOM      7  C   UNL     1       2.187   5.697  20.475  0.00  0.00    +0.000 A 
ATOM      8  C   UNL     1       1.629   6.913  20.882  0.00  0.00    +0.000 A 
ATOM      9  C   UNL     1       1.630   8.004  20.010  0.00  0.00    +0.000 A 
ATOM     10 CL   UNL     1       1.009   9.504  20.600  0.00  0.00    +0.000 Cl
ATOM     11  C   UNL     1       2.137   7.857  18.717  0.00  0.00    +0.000 A 
ATOM     12 CL   UNL     1       2.163   9.159  17.582  0.00  0.00    +0.000 Cl
ATOM     13  C   UNL     1       2.674   6.629  18.310  0.00  0.00    +0.000 A 
ATOM     14  C   UNL     1       2.752   5.549  19.199  0.00  0.00    +0.000 A 
ATOM     15  H   UNL     1       1.768   4.726  22.296  0.00  0.00    +0.000 HD
ENDROOT
BRANCH   1  16
ATOM     16  C   UNL     1       4.143   4.182  17.606  0.00  0.00    +0.000 C 
BRANCH  16  18
ATOM     17  O   UNL     1       5.999   5.677  17.208  0.00  0.00    +0.000 OA
ATOM     18  C   UNL     1       5.582   4.655  17.733  0.00  0.00    +0.000 C 
BRANCH  18  19
ATOM     19  O   UNL     1       6.354   3.870  18.520  0.00  0.00    +0.000 OA
ATOM     20  H   UNL     1       6.159   2.908  18.437  0.00  0.00    +0.000 HD
ENDBRANCH  18  19
ENDBRANCH  16  18
ENDBRANCH   1  16
TORSDOF 3
ENDMDL
MODEL 4
REMARK VINA RESULT:      -6.8      1.328      3.660
REMARK  Name = 
REMARK  3 active torsions:
REMARK  status: ('A' for Active; 'I' for Inactive)
REMARK    1  A    between atoms: C_2  and  O_3
REMARK    2  A    between atoms: C_2  and  C_4
REMARK    3  A    between atoms: C_4  and  N_5
REMARK                            x       y       z     vdW  Elec       q    Type
REMARK                         _______ _______ _______ _____ _____    ______ ____
ROOT
ATOM      1  N   UNL     1       5.926   4.324  17.040  0.00  0.00    +0.000 N 
ATOM      2  C   UNL     1       7.201   4.565  17.551  0.00  0.00    +0.000 A 
ATOM      3  O   UNL     1       8.212   4.377  16.873  0.00  0.00    +0.000 OA
ATOM      4  C   UNL     1       7.317   5.027  19.014  0.00  0.00    +0.000 A 
ATOM      5  O   UNL     1       8.406   5.283  19.515  0.00  0.00    +0.000 OA
ATOM      6  N   UNL     1       6.149   5.144  19.720  0.00  0.00    +0.000 N 
ATOM      7  C   UNL     1       4.891   4.857  19.187  0.00  0.00    +0.000 A 
ATOM      8  C   UNL     1       3.766   5.047  19.994  0.00  0.00    +0.000 A 
ATOM      9  C   UNL     1       2.491   4.791  19.483  0.00  0.00    +0.000 A 
ATOM     10 CL   UNL     1       1.136   5.131  20.497  0.00  0.00    +0.000 Cl
ATOM     11  C   UNL     1       2.353   4.290  18.187  0.00  0.00    +0.000 A 
ATOM     12 CL   UNL     1       0.811   3.940  17.491  0.00  0.00    +0.000 Cl
ATOM     13  C   UNL     1       3.487   4.079  17.392  0.00  0.00    +0.000 A 
ATOM     14  C   UNL     1       4.766   4.407  17.862  0.00  0.00    +0.000 A 
ATOM     15  H   UNL     1       6.249   5.452  20.682  0.00  0.00    +0.000 HD
ENDROOT
BRANCH   1  16
ATOM     16  C   UNL     1       5.827   4.017  15.613  0.00  0.00    +0.000 C 
BRANCH  16  18
ATOM     17  O   UNL     1       5.364   6.241  14.788  0.00  0.00    +0.000 OA
ATOM     18  C   UNL     1       6.067   5.242  14.746  0.00  0.00    +0.000 C 
BRANCH  18  19
ATOM     19  O   UNL     1       7.159   5.151  13.952  0.00  0.00    +0.000 OA
ATOM     20  H   UNL     1       7.158   4.364  13.359  0.00  0.00    +0.000 HD
ENDBRANCH  18  19
ENDBRANCH  16  18
ENDBRANCH   1  16
TORSDOF 3
ENDMDL
MODEL 5
REMARK VINA RESULT:      -6.7      2.394      3.228
REMARK  Name = 
REMARK  3 active torsions:
REMARK  status: ('A' for Active; 'I' for Inactive)
REMARK    1  A    between atoms: C_2  and  O_3
REMARK    2  A    between atoms: C_2  and  C_4
REMARK    3  A    between atoms: C_4  and  N_5
REMARK                            x       y       z     vdW  Elec       q    Type
REMARK                         _______ _______ _______ _____ _____    ______ ____
ROOT
ATOM      1  N   UNL     1       4.789   5.455  17.194  0.00  0.00    +0.000 N 
ATOM      2  C   UNL     1       4.375   6.726  16.796  0.00  0.00    +0.000 A 
ATOM      3  O   UNL     1       4.923   7.321  15.867  0.00  0.00    +0.000 OA
ATOM      4  C   UNL     1       3.239   7.396  17.589  0.00  0.00    +0.000 A 
ATOM      5  O   UNL     1       2.809   8.500  17.274  0.00  0.00    +0.000 OA
ATOM      6  N   UNL     1       2.731   6.696  18.653  0.00  0.00    +0.000 N 
ATOM      7  C   UNL     1       3.198   5.441  19.045  0.00  0.00    +0.000 A 
ATOM      8  C   UNL     1       2.576   4.808  20.127  0.00  0.00    +0.000 A 
ATOM      9  C   UNL     1       3.004   3.541  20.530  0.00  0.00    +0.000 A 
ATOM     10 CL   UNL     1       2.140   2.772  21.812  0.00  0.00    +0.000 Cl
ATOM     11  C   UNL     1       4.088   2.939  19.888  0.00  0.00    +0.000 A 
ATOM     12 CL   UNL     1       4.679   1.379  20.338  0.00  0.00    +0.000 Cl
ATOM     13  C   UNL     1       4.720   3.589  18.820  0.00  0.00    +0.000 A 
ATOM     14  C   UNL     1       4.252   4.825  18.352  0.00  0.00    +0.000 A 
ATOM     15  H   UNL     1       1.982   7.156  19.160  0.00  0.00    +0.000 HD
ENDROOT
BRANCH   1  16
ATOM     16  C   UNL     1       5.775   4.781  16.348  0.00  0.00    +0.000 C 
BRANCH  16  18
ATOM     17  O   UNL     1       7.915   4.403  17.404  0.00  0.00    +0.000 OA
ATOM     18  C   UNL     1       7.201   5.135  16.735  0.00  0.00    +0.000 C 
BRANCH  18  19
ATOM     19  O   UNL     1       7.631   6.317  16.235  0.00  0.00    +0.000 OA
ATOM     20  H   UNL     1       8.318   6.758  16.787  0.00  0.00    +0.000 HD
ENDBRANCH  18  19
ENDBRANCH  16  18
ENDBRANCH   1  16
TORSDOF 3
ENDMDL
MODEL 6
REMARK VINA RESULT:      -6.7      1.535      1.624
REMARK  Name = 
REMARK  3 active torsions:
REMARK  status: ('A' for Active; 'I' for Inactive)
REMARK    1  A    between atoms: C_2  and  O_3
REMARK    2  A    between atoms: C_2  and  C_4
REMARK    3  A    between atoms: C_4  and  N_5
REMARK                            x       y       z     vdW  Elec       q    Type
REMARK                         _______ _______ _______ _____ _____    ______ ____
ROOT
ATOM      1  N   UNL     1       6.403   5.124  17.719  0.00  0.00    +0.000 N 
ATOM      2  C   UNL     1       6.477   6.004  16.640  0.00  0.00    +0.000 A 
ATOM      3  O   UNL     1       7.536   6.545  16.321  0.00  0.00    +0.000 OA
ATOM      4  C   UNL     1       5.176   6.325  15.882  0.00  0.00    +0.000 A 
ATOM      5  O   UNL     1       5.177   7.069  14.908  0.00  0.00    +0.000 OA
ATOM      6  N   UNL     1       4.029   5.736  16.344  0.00  0.00    +0.000 N 
ATOM      7  C   UNL     1       3.988   4.888  17.453  0.00  0.00    +0.000 A 
ATOM      8  C   UNL     1       2.762   4.317  17.809  0.00  0.00    +0.000 A 
ATOM      9  C   UNL     1       2.691   3.448  18.900  0.00  0.00    +0.000 A 
ATOM     10 CL   UNL     1       1.170   2.703  19.236  0.00  0.00    +0.000 Cl
ATOM     11  C   UNL     1       3.834   3.199  19.662  0.00  0.00    +0.000 A 
ATOM     12 CL   UNL     1       3.821   2.143  21.030  0.00  0.00    +0.000 Cl
ATOM     13  C   UNL     1       5.054   3.793  19.313  0.00  0.00    +0.000 A 
ATOM     14  C   UNL     1       5.158   4.604  18.175  0.00  0.00    +0.000 A 
ATOM     15  H   UNL     1       3.184   5.960  15.828  0.00  0.00    +0.000 HD
ENDROOT
BRANCH   1  16
ATOM     16  C   UNL     1       7.667   4.726  18.341  0.00  0.00    +0.000 C 
BRANCH  16  18
ATOM     17  O   UNL     1       7.989   5.264  20.675  0.00  0.00    +0.000 OA
ATOM     18  C   UNL     1       8.039   5.625  19.508  0.00  0.00    +0.000 C 
BRANCH  18  19
ATOM     19  O   UNL     1       8.478   6.852  19.142  0.00  0.00    +0.000 OA
ATOM     20  H   UNL     1       7.820   7.571  19.288  0.00  0.00    +0.000 HD
ENDBRANCH  18  19
ENDBRANCH  16  18
ENDBRANCH   1  16
TORSDOF 3
ENDMDL
MODEL 7
REMARK VINA RESULT:      -6.7      2.950      4.115
REMARK  Name = 
REMARK  3 active torsions:
REMARK  status: ('A' for Active; 'I' for Inactive)
REMARK    1  A    between atoms: C_2  and  O_3
REMARK    2  A    between atoms: C_2  and  C_4
REMARK    3  A    between atoms: C_4  and  N_5
REMARK                            x       y       z     vdW  Elec       q    Type
REMARK                         _______ _______ _______ _____ _____    ______ ____
ROOT
ATOM      1  N   UNL     1       4.537   5.691  17.477  0.00  0.00    +0.000 N 
ATOM      2  C   UNL     1       4.985   4.433  17.881  0.00  0.00    +0.000 A 
ATOM      3  O   UNL     1       5.744   3.764  17.179  0.00  0.00    +0.000 OA
ATOM      4  C   UNL     1       4.460   3.875  19.215  0.00  0.00    +0.000 A 
ATOM      5  O   UNL     1       4.835   2.789  19.641  0.00  0.00    +0.000 OA
ATOM      6  N   UNL     1       3.563   4.652  19.901  0.00  0.00    +0.000 N 
ATOM      7  C   UNL     1       3.108   5.891  19.446  0.00  0.00    +0.000 A 
ATOM      8  C   UNL     1       2.219   6.610  20.251  0.00  0.00    +0.000 A 
ATOM      9  C   UNL     1       1.762   7.862  19.836  0.00  0.00    +0.000 A 
ATOM     10 CL   UNL     1       0.738   8.742  20.913  0.00  0.00    +0.000 Cl
ATOM     11  C   UNL     1       2.151   8.363  18.592  0.00  0.00    +0.000 A 
ATOM     12 CL   UNL     1       1.619   9.900  18.007  0.00  0.00    +0.000 Cl
ATOM     13  C   UNL     1       3.024   7.627  17.781  0.00  0.00    +0.000 A 
ATOM     14  C   UNL     1       3.554   6.406  18.218  0.00  0.00    +0.000 A 
ATOM     15  H   UNL     1       3.232   4.265  20.779  0.00  0.00    +0.000 HD
ENDROOT
BRANCH   1  16
ATOM     16  C   UNL     1       5.149   6.261  16.276  0.00  0.00    +0.000 C 
BRANCH  16  18
ATOM     17  O   UNL     1       6.846   7.710  17.205  0.00  0.00    +0.000 OA
ATOM     18  C   UNL     1       6.573   6.730  16.527  0.00  0.00    +0.000 C 
BRANCH  18  19
ATOM     19  O   UNL     1       7.520   5.939  15.971  0.00  0.00    +0.000 OA
ATOM     20  H   UNL     1       7.382   5.764  15.012  0.00  0.00    +0.000 HD
ENDBRANCH  18  19
ENDBRANCH  16  18
ENDBRANCH   1  16
TORSDOF 3
ENDMDL
MODEL 8
REMARK VINA RESULT:      -6.7      3.740      5.579
REMARK  Name = 
REMARK  3 active torsions:
REMARK  status: ('A' for Active; 'I' for Inactive)
REMARK    1  A    between atoms: C_2  and  O_3
REMARK    2  A    between atoms: C_2  and  C_4
REMARK    3  A    between atoms: C_4  and  N_5
REMARK                            x       y       z     vdW  Elec       q    Type
REMARK                         _______ _______ _______ _____ _____    ______ ____
ROOT
ATOM      1  N   UNL     1       4.804   3.937  17.610  0.00  0.00    +0.000 N 
ATOM      2  C   UNL     1       5.291   4.344  18.852  0.00  0.00    +0.000 A 
ATOM      3  O   UNL     1       4.652   4.153  19.888  0.00  0.00    +0.000 OA
ATOM      4  C   UNL     1       6.635   5.092  18.891  0.00  0.00    +0.000 A 
ATOM      5  O   UNL     1       7.131   5.452  19.952  0.00  0.00    +0.000 OA
ATOM      6  N   UNL     1       7.248   5.326  17.687  0.00  0.00    +0.000 N 
ATOM      7  C   UNL     1       6.711   4.937  16.459  0.00  0.00    +0.000 A 
ATOM      8  C   UNL     1       7.446   5.200  15.298  0.00  0.00    +0.000 A 
ATOM      9  C   UNL     1       6.948   4.803  14.055  0.00  0.00    +0.000 A 
ATOM     10 CL   UNL     1       7.941   5.074  12.669  0.00  0.00    +0.000 Cl
ATOM     11  C   UNL     1       5.693   4.197  13.974  0.00  0.00    +0.000 A 
ATOM     12 CL   UNL     1       5.008   3.689  12.471  0.00  0.00    +0.000 Cl
ATOM     13  C   UNL     1       4.952   3.958  15.138  0.00  0.00    +0.000 A 
ATOM     14  C   UNL     1       5.473   4.278  16.400  0.00  0.00    +0.000 A 
ATOM     15  H   UNL     1       8.133   5.819  17.737  0.00  0.00    +0.000 HD
ENDROOT
BRANCH   1  16
ATOM     16  C   UNL     1       3.596   3.112  17.606  0.00  0.00    +0.000 C 
BRANCH  16  18
ATOM     17  O   UNL     1       1.206   3.472  17.592  0.00  0.00    +0.000 OA
ATOM     18  C   UNL     1       2.329   3.950  17.655  0.00  0.00    +0.000 C 
BRANCH  18  19
ATOM     19  O   UNL     1       2.551   5.275  17.821  0.00  0.00    +0.000 OA
ATOM     20  H   UNL     1       2.515   5.571  18.760  0.00  0.00    +0.000 HD
ENDBRANCH  18  19
ENDBRANCH  16  18
ENDBRANCH   1  16
TORSDOF 3
ENDMDL
MODEL 9
REMARK VINA RESULT:      -6.6      4.119      5.119
REMARK  Name = 
REMARK  3 active torsions:
REMARK  status: ('A' for Active; 'I' for Inactive)
REMARK    1  A    between atoms: C_2  and  O_3
REMARK    2  A    between atoms: C_2  and  C_4
REMARK    3  A    between atoms: C_4  and  N_5
REMARK                            x       y       z     vdW  Elec       q    Type
REMARK                         _______ _______ _______ _____ _____    ______ ____
ROOT
ATOM      1  N   UNL     1       3.030   4.713  20.090  0.00  0.00    +0.000 N 
ATOM      2  C   UNL     1       3.752   3.820  19.299  0.00  0.00    +0.000 A 
ATOM      3  O   UNL     1       4.132   2.733  19.737  0.00  0.00    +0.000 OA
ATOM      4  C   UNL     1       4.110   4.252  17.866  0.00  0.00    +0.000 A 
ATOM      5  O   UNL     1       4.719   3.504  17.110  0.00  0.00    +0.000 OA
ATOM      6  N   UNL     1       3.710   5.505  17.480  0.00  0.00    +0.000 N 
ATOM      7  C   UNL     1       3.021   6.387  18.314  0.00  0.00    +0.000 A 
ATOM      8  C   UNL     1       2.634   7.628  17.796  0.00  0.00    +0.000 A 
ATOM      9  C   UNL     1       1.924   8.524  18.597  0.00  0.00    +0.000 A 
ATOM     10 CL   UNL     1       1.395  10.001  17.875  0.00  0.00    +0.000 Cl
ATOM     11  C   UNL     1       1.655   8.200  19.928  0.00  0.00    +0.000 A 
ATOM     12 CL   UNL     1       0.790   9.263  20.981  0.00  0.00    +0.000 Cl
ATOM     13  C   UNL     1       2.066   6.965  20.447  0.00  0.00    +0.000 A 
ATOM     14  C   UNL     1       2.709   6.023  19.633  0.00  0.00    +0.000 A 
ATOM     15  H   UNL     1       3.956   5.768  16.531  0.00  0.00    +0.000 HD
ENDROOT
BRANCH   1  16
ATOM     16  C   UNL     1       2.583   4.232  21.399  0.00  0.00    +0.000 C 
BRANCH  16  18
ATOM     17  O   UNL     1       1.380   2.216  21.972  0.00  0.00    +0.000 OA
ATOM     18  C   UNL     1       1.453   3.223  21.282  0.00  0.00    +0.000 C 
BRANCH  18  19
ATOM     19  O   UNL     1       0.505   3.558  20.377  0.00  0.00    +0.000 OA
ATOM     20  H   UNL     1       0.522   3.010  19.559  0.00  0.00    +0.000 HD
ENDBRANCH  18  19
ENDBRANCH  16  18
ENDBRANCH   1  16
TORSDOF 3
ENDMDL
