MODEL 1
REMARK VINA RESULT:      -7.2      0.000      0.000
REMARK  Name = 
REMARK  5 active torsions:
REMARK  status: ('A' for Active; 'I' for Inactive)
REMARK    1  A    between atoms: P_2  and  O_3
REMARK    2  A    between atoms: P_2  and  O_4
REMARK    3  A    between atoms: P_2  and  O_5
REMARK    4  A    between atoms: O_5  and  N_6
REMARK    5  A    between atoms: C_14  and  O_15
REMARK                            x       y       z     vdW  Elec       q    Type
REMARK                         _______ _______ _______ _____ _____    ______ ____
ROOT
ATOM      1  N   UNL     1       4.717   5.617  17.166  0.00  0.00    +0.000 N 
ATOM      2  C   UNL     1       4.281   6.921  17.405  0.00  0.00    +0.000 C 
ATOM      3  C   UNL     1       3.111   7.257  17.969  0.00  0.00    +0.000 C 
ATOM      4  C   UNL     1       2.164   6.232  18.344  0.00  0.00    +0.000 C 
ATOM      5  C   UNL     1       2.417   4.957  18.009  0.00  0.00    +0.000 C 
ATOM      6  C   UNL     1       1.496   3.843  18.333  0.00  0.00    +0.000 C 
ATOM      7  C   UNL     1       1.933   2.577  18.126  0.00  0.00    +0.000 C 
ATOM      8  C   UNL     1       3.342   2.352  18.472  0.00  0.00    +0.000 C 
ATOM      9  C   UNL     1       4.239   3.302  18.157  0.00  0.00    +0.000 C 
ATOM     10  C   UNL     1       3.737   4.505  17.348  0.00  0.00    +0.000 C 
ENDROOT
BRANCH   9  11
ATOM     11  O   UNL     1       5.474   3.284  18.782  0.00  0.00    +0.000 OA
ATOM     12  H   UNL     1       5.399   2.704  19.570  0.00  0.00    +0.000 HD
ENDBRANCH   9  11
BRANCH   1  13
ATOM     13  O   UNL     1       5.394   5.486  15.918  0.00  0.00    +0.000 OA
BRANCH  13  15
ATOM     14  O   UNL     1       7.637   4.595  17.044  0.00  0.00    +0.000 OA
ATOM     15  P   UNL     1       6.788   4.686  15.816  0.00  0.00    +0.000 P 
BRANCH  15  16
ATOM     16  O   UNL     1       7.605   5.295  14.592  0.00  0.00    +0.000 OA
ATOM     17  H   UNL     1       7.849   4.590  13.964  0.00  0.00    +0.000 HD
ENDBRANCH  15  16
BRANCH  15  18
ATOM     18  O   UNL     1       6.398   3.215  15.315  0.00  0.00    +0.000 OA
ATOM     19  H   UNL     1       5.779   3.256  14.563  0.00  0.00    +0.000 HD
ENDBRANCH  15  18
ENDBRANCH  13  15
ENDBRANCH   1  13
TORSDOF 5
ENDMDL
MODEL 2
REMARK VINA RESULT:      -7.2      0.173      1.136
REMARK  Name = 
REMARK  5 active torsions:
REMARK  status: ('A' for Active; 'I' for Inactive)
REMARK    1  A    between atoms: P_2  and  O_3
REMARK    2  A    between atoms: P_2  and  O_4
REMARK    3  A    between atoms: P_2  and  O_5
REMARK    4  A    between atoms: O_5  and  N_6
REMARK    5  A    between atoms: C_14  and  O_15
REMARK                            x       y       z     vdW  Elec       q    Type
REMARK                         _______ _______ _______ _____ _____    ______ ____
ROOT
ATOM      1  N   UNL     1       4.688   5.667  17.039  0.00  0.00    +0.000 N 
ATOM      2  C   UNL     1       4.288   6.977  17.309  0.00  0.00    +0.000 C 
ATOM      3  C   UNL     1       3.158   7.329  17.939  0.00  0.00    +0.000 C 
ATOM      4  C   UNL     1       2.216   6.318  18.361  0.00  0.00    +0.000 C 
ATOM      5  C   UNL     1       2.428   5.041  18.006  0.00  0.00    +0.000 C 
ATOM      6  C   UNL     1       1.507   3.941  18.374  0.00  0.00    +0.000 C 
ATOM      7  C   UNL     1       1.910   2.669  18.136  0.00  0.00    +0.000 C 
ATOM      8  C   UNL     1       3.332   2.418  18.403  0.00  0.00    +0.000 C 
ATOM      9  C   UNL     1       4.226   3.354  18.043  0.00  0.00    +0.000 C 
ATOM     10  C   UNL     1       3.701   4.571  17.269  0.00  0.00    +0.000 C 
ENDROOT
BRANCH   9  11
ATOM     11  O   UNL     1       5.494   3.312  18.598  0.00  0.00    +0.000 OA
ATOM     12  H   UNL     1       5.475   3.848  19.420  0.00  0.00    +0.000 HD
ENDBRANCH   9  11
BRANCH   1  13
ATOM     13  O   UNL     1       5.292   5.533  15.754  0.00  0.00    +0.000 OA
BRANCH  13  15
ATOM     14  O   UNL     1       7.621   5.269  14.489  0.00  0.00    +0.000 OA
ATOM     15  P   UNL     1       6.718   4.801  15.586  0.00  0.00    +0.000 P 
BRANCH  15  16
ATOM     16  O   UNL     1       6.446   3.236  15.483  0.00  0.00    +0.000 OA
ATOM     17  H   UNL     1       6.905   2.863  14.708  0.00  0.00    +0.000 HD
ENDBRANCH  15  16
BRANCH  15  18
ATOM     18  O   UNL     1       7.450   4.966  17.001  0.00  0.00    +0.000 OA
ATOM     19  H   UNL     1       6.814   5.223  17.694  0.00  0.00    +0.000 HD
ENDBRANCH  15  18
ENDBRANCH  13  15
ENDBRANCH   1  13
TORSDOF 5
ENDMDL
MODEL 3
REMARK VINA RESULT:      -6.9      0.800      1.450
REMARK  Name = 
REMARK  5 active torsions:
REMARK  status: ('A' for Active; 'I' for Inactive)
REMARK    1  A    between atoms: P_2  and  O_3
REMARK    2  A    between atoms: P_2  and  O_4
REMARK    3  A    between atoms: P_2  and  O_5
REMARK    4  A    between atoms: O_5  and  N_6
REMARK    5  A    between atoms: C_14  and  O_15
REMARK                            x       y       z     vdW  Elec       q    Type
REMARK                         _______ _______ _______ _____ _____    ______ ____
ROOT
ATOM      1  N   UNL     1       4.614   5.488  17.561  0.00  0.00    +0.000 N 
ATOM      2  C   UNL     1       4.063   6.758  17.742  0.00  0.00    +0.000 C 
ATOM      3  C   UNL     1       2.807   7.009  18.141  0.00  0.00    +0.000 C 
ATOM      4  C   UNL     1       1.888   5.920  18.379  0.00  0.00    +0.000 C 
ATOM      5  C   UNL     1       2.269   4.668  18.077  0.00  0.00    +0.000 C 
ATOM      6  C   UNL     1       1.388   3.493  18.266  0.00  0.00    +0.000 C 
ATOM      7  C   UNL     1       1.933   2.260  18.117  0.00  0.00    +0.000 C 
ATOM      8  C   UNL     1       3.293   2.124  18.653  0.00  0.00    +0.000 C 
ATOM      9  C   UNL     1       4.159   3.134  18.468  0.00  0.00    +0.000 C 
ATOM     10  C   UNL     1       3.695   4.312  17.602  0.00  0.00    +0.000 C 
ENDROOT
BRANCH   9  11
ATOM     11  O   UNL     1       5.295   3.189  19.257  0.00  0.00    +0.000 OA
ATOM     12  H   UNL     1       5.191   3.946  19.874  0.00  0.00    +0.000 HD
ENDBRANCH   9  11
BRANCH   1  13
ATOM     13  O   UNL     1       5.463   5.418  16.418  0.00  0.00    +0.000 OA
BRANCH  13  15
ATOM     14  O   UNL     1       7.812   4.548  15.513  0.00  0.00    +0.000 OA
ATOM     15  P   UNL     1       7.059   5.271  16.583  0.00  0.00    +0.000 P 
BRANCH  15  16
ATOM     16  O   UNL     1       7.338   4.637  18.017  0.00  0.00    +0.000 OA
ATOM     17  H   UNL     1       7.941   5.208  18.528  0.00  0.00    +0.000 HD
ENDBRANCH  15  16
BRANCH  15  18
ATOM     18  O   UNL     1       7.611   6.769  16.719  0.00  0.00    +0.000 OA
ATOM     19  H   UNL     1       7.001   7.404  16.301  0.00  0.00    +0.000 HD
ENDBRANCH  15  18
ENDBRANCH  13  15
ENDBRANCH   1  13
TORSDOF 5
ENDMDL
MODEL 4
REMARK VINA RESULT:      -6.9      2.266      3.305
REMARK  Name = 
REMARK  5 active torsions:
REMARK  status: ('A' for Active; 'I' for Inactive)
REMARK    1  A    between atoms: P_2  and  O_3
REMARK    2  A    between atoms: P_2  and  O_4
REMARK    3  A    between atoms: P_2  and  O_5
REMARK    4  A    between atoms: O_5  and  N_6
REMARK    5  A    between atoms: C_14  and  O_15
REMARK                            x       y       z     vdW  Elec       q    Type
REMARK                         _______ _______ _______ _____ _____    ______ ____
ROOT
ATOM      1  N   UNL     1       4.556   4.635  18.621  0.00  0.00    +0.000 N 
ATOM      2  C   UNL     1       4.689   4.188  17.306  0.00  0.00    +0.000 C 
ATOM      3  C   UNL     1       3.756   3.511  16.619  0.00  0.00    +0.000 C 
ATOM      4  C   UNL     1       2.508   3.149  17.250  0.00  0.00    +0.000 C 
ATOM      5  C   UNL     1       2.347   3.390  18.561  0.00  0.00    +0.000 C 
ATOM      6  C   UNL     1       1.112   3.035  19.297  0.00  0.00    +0.000 C 
ATOM      7  C   UNL     1       0.974   3.495  20.565  0.00  0.00    +0.000 C 
ATOM      8  C   UNL     1       1.464   4.863  20.776  0.00  0.00    +0.000 C 
ATOM      9  C   UNL     1       2.610   5.232  20.179  0.00  0.00    +0.000 C 
ATOM     10  C   UNL     1       3.386   4.153  19.412  0.00  0.00    +0.000 C 
ENDROOT
BRANCH   9  11
ATOM     11  O   UNL     1       2.895   6.581  20.062  0.00  0.00    +0.000 OA
ATOM     12  H   UNL     1       2.705   6.845  19.136  0.00  0.00    +0.000 HD
ENDBRANCH   9  11
BRANCH   1  13
ATOM     13  O   UNL     1       5.760   4.490  19.373  0.00  0.00    +0.000 OA
BRANCH  13  15
ATOM     14  O   UNL     1       6.946   6.572  18.210  0.00  0.00    +0.000 OA
ATOM     15  P   UNL     1       7.098   5.280  18.947  0.00  0.00    +0.000 P 
BRANCH  15  16
ATOM     16  O   UNL     1       8.023   4.261  18.145  0.00  0.00    +0.000 OA
ATOM     17  H   UNL     1       8.775   3.980  18.698  0.00  0.00    +0.000 HD
ENDBRANCH  15  16
BRANCH  15  18
ATOM     18  O   UNL     1       7.900   5.523  20.312  0.00  0.00    +0.000 OA
ATOM     19  H   UNL     1       7.998   4.691  20.812  0.00  0.00    +0.000 HD
ENDBRANCH  15  18
ENDBRANCH  13  15
ENDBRANCH   1  13
TORSDOF 5
ENDMDL
MODEL 5
REMARK VINA RESULT:      -6.8      0.274      1.144
REMARK  Name = 
REMARK  5 active torsions:
REMARK  status: ('A' for Active; 'I' for Inactive)
REMARK    1  A    between atoms: P_2  and  O_3
REMARK    2  A    between atoms: P_2  and  O_4
REMARK    3  A    between atoms: P_2  and  O_5
REMARK    4  A    between atoms: O_5  and  N_6
REMARK    5  A    between atoms: C_14  and  O_15
REMARK                            x       y       z     vdW  Elec       q    Type
REMARK                         _______ _______ _______ _____ _____    ______ ____
ROOT
ATOM      1  N   UNL     1       4.786   5.830  17.036  0.00  0.00    +0.000 N 
ATOM      2  C   UNL     1       4.322   7.109  17.348  0.00  0.00    +0.000 C 
ATOM      3  C   UNL     1       3.158   7.385  17.956  0.00  0.00    +0.000 C 
ATOM      4  C   UNL     1       2.249   6.317  18.304  0.00  0.00    +0.000 C 
ATOM      5  C   UNL     1       2.527   5.067  17.902  0.00  0.00    +0.000 C 
ATOM      6  C   UNL     1       1.644   3.914  18.193  0.00  0.00    +0.000 C 
ATOM      7  C   UNL     1       2.109   2.672  17.915  0.00  0.00    +0.000 C 
ATOM      8  C   UNL     1       3.532   2.470  18.216  0.00  0.00    +0.000 C 
ATOM      9  C   UNL     1       4.395   3.458  17.926  0.00  0.00    +0.000 C 
ATOM     10  C   UNL     1       3.842   4.684  17.188  0.00  0.00    +0.000 C 
ENDROOT
BRANCH   9  11
ATOM     11  O   UNL     1       5.646   3.446  18.519  0.00  0.00    +0.000 OA
ATOM     12  H   UNL     1       5.963   2.517  18.522  0.00  0.00    +0.000 HD
ENDBRANCH   9  11
BRANCH   1  13
ATOM     13  O   UNL     1       5.435   5.778  15.767  0.00  0.00    +0.000 OA
BRANCH  13  15
ATOM     14  O   UNL     1       6.381   3.398  15.037  0.00  0.00    +0.000 OA
ATOM     15  P   UNL     1       6.677   4.784  15.516  0.00  0.00    +0.000 P 
BRANCH  15  16
ATOM     16  O   UNL     1       7.552   4.761  16.846  0.00  0.00    +0.000 OA
ATOM     17  H   UNL     1       8.361   4.233  16.710  0.00  0.00    +0.000 HD
ENDBRANCH  15  16
BRANCH  15  18
ATOM     18  O   UNL     1       7.617   5.536  14.459  0.00  0.00    +0.000 OA
ATOM     19  H   UNL     1       8.168   6.208  14.900  0.00  0.00    +0.000 HD
ENDBRANCH  15  18
ENDBRANCH  13  15
ENDBRANCH   1  13
TORSDOF 5
ENDMDL
MODEL 6
REMARK VINA RESULT:      -6.7      1.154      1.542
REMARK  Name = 
REMARK  5 active torsions:
REMARK  status: ('A' for Active; 'I' for Inactive)
REMARK    1  A    between atoms: P_2  and  O_3
REMARK    2  A    between atoms: P_2  and  O_4
REMARK    3  A    between atoms: P_2  and  O_5
REMARK    4  A    between atoms: O_5  and  N_6
REMARK    5  A    between atoms: C_14  and  O_15
REMARK                            x       y       z     vdW  Elec       q    Type
REMARK                         _______ _______ _______ _____ _____    ______ ____
ROOT
ATOM      1  N   UNL     1       4.273   5.132  18.227  0.00  0.00    +0.000 N 
ATOM      2  C   UNL     1       3.907   6.361  18.779  0.00  0.00    +0.000 C 
ATOM      3  C   UNL     1       2.797   6.589  19.496  0.00  0.00    +0.000 C 
ATOM      4  C   UNL     1       1.842   5.528  19.716  0.00  0.00    +0.000 C 
ATOM      5  C   UNL     1       2.020   4.353  19.093  0.00  0.00    +0.000 C 
ATOM      6  C   UNL     1       1.082   3.215  19.240  0.00  0.00    +0.000 C 
ATOM      7  C   UNL     1       1.453   2.017  18.727  0.00  0.00    +0.000 C 
ATOM      8  C   UNL     1       2.874   1.690  18.900  0.00  0.00    +0.000 C 
ATOM      9  C   UNL     1       3.781   2.667  18.727  0.00  0.00    +0.000 C 
ATOM     10  C   UNL     1       3.268   4.029  18.242  0.00  0.00    +0.000 C 
ENDROOT
BRANCH   9  11
ATOM     11  O   UNL     1       5.058   2.486  19.230  0.00  0.00    +0.000 OA
ATOM     12  H   UNL     1       5.035   1.706  19.825  0.00  0.00    +0.000 HD
ENDBRANCH   9  11
BRANCH   1  13
ATOM     13  O   UNL     1       4.849   5.265  16.929  0.00  0.00    +0.000 OA
BRANCH  13  15
ATOM     14  O   UNL     1       7.299   5.639  15.954  0.00  0.00    +0.000 OA
ATOM     15  P   UNL     1       6.333   4.716  16.625  0.00  0.00    +0.000 P 
BRANCH  15  16
ATOM     16  O   UNL     1       6.185   3.349  15.822  0.00  0.00    +0.000 OA
ATOM     17  H   UNL     1       5.323   2.935  16.014  0.00  0.00    +0.000 HD
ENDBRANCH  15  16
BRANCH  15  18
ATOM     18  O   UNL     1       6.916   4.258  18.046  0.00  0.00    +0.000 OA
ATOM     19  H   UNL     1       7.317   5.012  18.516  0.00  0.00    +0.000 HD
ENDBRANCH  15  18
ENDBRANCH  13  15
ENDBRANCH   1  13
TORSDOF 5
ENDMDL
MODEL 7
REMARK VINA RESULT:      -6.6      2.256      3.323
REMARK  Name = 
REMARK  5 active torsions:
REMARK  status: ('A' for Active; 'I' for Inactive)
REMARK    1  A    between atoms: P_2  and  O_3
REMARK    2  A    between atoms: P_2  and  O_4
REMARK    3  A    between atoms: P_2  and  O_5
REMARK    4  A    between atoms: O_5  and  N_6
REMARK    5  A    between atoms: C_14  and  O_15
REMARK                            x       y       z     vdW  Elec       q    Type
REMARK                         _______ _______ _______ _____ _____    ______ ____
ROOT
ATOM      1  N   UNL     1       4.624   4.653  18.653  0.00  0.00    +0.000 N 
ATOM      2  C   UNL     1       4.801   4.210  17.341  0.00  0.00    +0.000 C 
ATOM      3  C   UNL     1       3.889   3.541  16.619  0.00  0.00    +0.000 C 
ATOM      4  C   UNL     1       2.617   3.185  17.204  0.00  0.00    +0.000 C 
ATOM      5  C   UNL     1       2.411   3.422  18.509  0.00  0.00    +0.000 C 
ATOM      6  C   UNL     1       1.148   3.072  19.200  0.00  0.00    +0.000 C 
ATOM      7  C   UNL     1       0.968   3.528  20.464  0.00  0.00    +0.000 C 
ATOM      8  C   UNL     1       1.459   4.892  20.698  0.00  0.00    +0.000 C 
ATOM      9  C   UNL     1       2.628   5.256  20.143  0.00  0.00    +0.000 C 
ATOM     10  C   UNL     1       3.423   4.175  19.400  0.00  0.00    +0.000 C 
ENDROOT
BRANCH   9  11
ATOM     11  O   UNL     1       2.924   6.604  20.041  0.00  0.00    +0.000 OA
ATOM     12  H   UNL     1       2.114   7.105  20.276  0.00  0.00    +0.000 HD
ENDBRANCH   9  11
BRANCH   1  13
ATOM     13  O   UNL     1       5.800   4.498  19.446  0.00  0.00    +0.000 OA
BRANCH  13  15
ATOM     14  O   UNL     1       8.073   4.384  18.063  0.00  0.00    +0.000 OA
ATOM     15  P   UNL     1       7.195   5.162  18.991  0.00  0.00    +0.000 P 
BRANCH  15  16
ATOM     16  O   UNL     1       7.979   5.586  20.310  0.00  0.00    +0.000 OA
ATOM     17  H   UNL     1       8.043   4.831  20.923  0.00  0.00    +0.000 HD
ENDBRANCH  15  16
BRANCH  15  18
ATOM     18  O   UNL     1       6.800   6.562  18.319  0.00  0.00    +0.000 OA
ATOM     19  H   UNL     1       7.524   6.895  17.758  0.00  0.00    +0.000 HD
ENDBRANCH  15  18
ENDBRANCH  13  15
ENDBRANCH   1  13
TORSDOF 5
ENDMDL
MODEL 8
REMARK VINA RESULT:      -6.6      1.827      3.452
REMARK  Name = 
REMARK  5 active torsions:
REMARK  status: ('A' for Active; 'I' for Inactive)
REMARK    1  A    between atoms: P_2  and  O_3
REMARK    2  A    between atoms: P_2  and  O_4
REMARK    3  A    between atoms: P_2  and  O_5
REMARK    4  A    between atoms: O_5  and  N_6
REMARK    5  A    between atoms: C_14  and  O_15
REMARK                            x       y       z     vdW  Elec       q    Type
REMARK                         _______ _______ _______ _____ _____    ______ ____
ROOT
ATOM      1  N   UNL     1       4.519   3.945  18.321  0.00  0.00    +0.000 N 
ATOM      2  C   UNL     1       4.176   2.740  17.706  0.00  0.00    +0.000 C 
ATOM      3  C   UNL     1       2.977   2.142  17.785  0.00  0.00    +0.000 C 
ATOM      4  C   UNL     1       1.928   2.722  18.591  0.00  0.00    +0.000 C 
ATOM      5  C   UNL     1       2.206   3.792  19.352  0.00  0.00    +0.000 C 
ATOM      6  C   UNL     1       1.201   4.439  20.226  0.00  0.00    +0.000 C 
ATOM      7  C   UNL     1       1.528   5.623  20.800  0.00  0.00    +0.000 C 
ATOM      8  C   UNL     1       2.293   6.531  19.937  0.00  0.00    +0.000 C 
ATOM      9  C   UNL     1       3.258   6.013  19.158  0.00  0.00    +0.000 C 
ATOM     10  C   UNL     1       3.568   4.519  19.318  0.00  0.00    +0.000 C 
ENDROOT
BRANCH   9  11
ATOM     11  O   UNL     1       3.730   6.764  18.095  0.00  0.00    +0.000 OA
ATOM     12  H   UNL     1       3.129   6.610  17.334  0.00  0.00    +0.000 HD
ENDBRANCH   9  11
BRANCH   1  13
ATOM     13  O   UNL     1       5.845   3.933  18.846  0.00  0.00    +0.000 OA
BRANCH  13  15
ATOM     14  O   UNL     1       6.509   6.085  17.425  0.00  0.00    +0.000 OA
ATOM     15  P   UNL     1       6.962   4.951  18.288  0.00  0.00    +0.000 P 
BRANCH  15  16
ATOM     16  O   UNL     1       8.084   4.084  17.563  0.00  0.00    +0.000 OA
ATOM     17  H   UNL     1       8.316   3.308  18.106  0.00  0.00    +0.000 HD
ENDBRANCH  15  16
BRANCH  15  18
ATOM     18  O   UNL     1       7.706   5.520  19.588  0.00  0.00    +0.000 OA
ATOM     19  H   UNL     1       7.499   6.463  19.723  0.00  0.00    +0.000 HD
ENDBRANCH  15  18
ENDBRANCH  13  15
ENDBRANCH   1  13
TORSDOF 5
ENDMDL
MODEL 9
REMARK VINA RESULT:      -6.5      1.139      1.174
REMARK  Name = 
REMARK  5 active torsions:
REMARK  status: ('A' for Active; 'I' for Inactive)
REMARK    1  A    between atoms: P_2  and  O_3
REMARK    2  A    between atoms: P_2  and  O_4
REMARK    3  A    between atoms: P_2  and  O_5
REMARK    4  A    between atoms: O_5  and  N_6
REMARK    5  A    between atoms: C_14  and  O_15
REMARK                            x       y       z     vdW  Elec       q    Type
REMARK                         _______ _______ _______ _____ _____    ______ ____
ROOT
ATOM      1  N   UNL     1       4.380   5.253  18.337  0.00  0.00    +0.000 N 
ATOM      2  C   UNL     1       3.888   6.450  18.860  0.00  0.00    +0.000 C 
ATOM      3  C   UNL     1       2.695   6.603  19.456  0.00  0.00    +0.000 C 
ATOM      4  C   UNL     1       1.784   5.486  19.558  0.00  0.00    +0.000 C 
ATOM      5  C   UNL     1       2.095   4.334  18.944  0.00  0.00    +0.000 C 
ATOM      6  C   UNL     1       1.214   3.144  18.976  0.00  0.00    +0.000 C 
ATOM      7  C   UNL     1       1.706   1.977  18.492  0.00  0.00    +0.000 C 
ATOM      8  C   UNL     1       3.116   1.727  18.814  0.00  0.00    +0.000 C 
ATOM      9  C   UNL     1       3.979   2.756  18.752  0.00  0.00    +0.000 C 
ATOM     10  C   UNL     1       3.444   4.095  18.230  0.00  0.00    +0.000 C 
ENDROOT
BRANCH   9  11
ATOM     11  O   UNL     1       5.203   2.637  19.388  0.00  0.00    +0.000 OA
ATOM     12  H   UNL     1       5.100   1.979  20.109  0.00  0.00    +0.000 HD
ENDBRANCH   9  11
BRANCH   1  13
ATOM     13  O   UNL     1       5.084   5.440  17.111  0.00  0.00    +0.000 OA
BRANCH  13  15
ATOM     14  O   UNL     1       7.334   4.437  18.122  0.00  0.00    +0.000 OA
ATOM     15  P   UNL     1       6.558   4.826  16.904  0.00  0.00    +0.000 P 
BRANCH  15  16
ATOM     16  O   UNL     1       7.380   5.842  15.994  0.00  0.00    +0.000 OA
ATOM     17  H   UNL     1       7.479   6.699  16.449  0.00  0.00    +0.000 HD
ENDBRANCH  15  16
BRANCH  15  18
ATOM     18  O   UNL     1       6.357   3.549  15.957  0.00  0.00    +0.000 OA
ATOM     19  H   UNL     1       7.121   3.433  15.362  0.00  0.00    +0.000 HD
ENDBRANCH  15  18
ENDBRANCH  13  15
ENDBRANCH   1  13
TORSDOF 5
ENDMDL
