MODEL 1
REMARK VINA RESULT:      -7.2      0.000      0.000
REMARK  Name = 
REMARK  8 active torsions:
REMARK  status: ('A' for Active; 'I' for Inactive)
REMARK    1  A    between atoms: C_1  and  C_2
REMARK    2  A    between atoms: N_4  and  C_5
REMARK    3  A    between atoms: C_5  and  C_6
REMARK    4  A    between atoms: C_6  and  N_7
REMARK    5  A    between atoms: C_8  and  C_10
REMARK    6  A    between atoms: C_10  and  N_11
REMARK    7  A    between atoms: C_15  and  C_16
REMARK    8  A    between atoms: C_16  and  N_17
REMARK                            x       y       z     vdW  Elec       q    Type
REMARK                         _______ _______ _______ _____ _____    ______ ____
ROOT
ATOM      1  C   UNL     1       7.023   4.564  16.320  0.00  0.00    +0.000 C 
ENDROOT
BRANCH   1   2
ATOM      2  N   UNL     1       6.463   5.788  16.926  0.00  0.00    +0.000 NA
ATOM      3  C   UNL     1       6.610   5.840  18.397  0.00  0.00    +0.000 C 
ATOM      4  C   UNL     1       5.632   4.925  19.142  0.00  0.00    +0.000 C 
ATOM      5  O   UNL     1       4.278   5.281  18.856  0.00  0.00    +0.000 OA
ATOM      6  C   UNL     1       3.954   5.268  17.453  0.00  0.00    +0.000 C 
ATOM      7  C   UNL     1       5.030   6.016  16.612  0.00  0.00    +0.000 C 
BRANCH   6   8
ATOM      8  C   UNL     1       3.622   3.857  16.949  0.00  0.00    +0.000 C 
BRANCH   8   9
ATOM      9  N   UNL     1       2.653   3.198  17.817  0.00  0.00    +0.000 N 
ATOM     10  C   UNL     1       2.895   2.165  18.680  0.00  0.00    +0.000 A 
ATOM     11  C   UNL     1       1.720   1.946  19.355  0.00  0.00    +0.000 A 
ATOM     12  C   UNL     1       0.810   2.859  18.790  0.00  0.00    +0.000 A 
ATOM     13  N   UNL     1       1.368   3.605  17.829  0.00  0.00    +0.000 NA
ENDBRANCH   8   9
ENDBRANCH   6   8
ENDBRANCH   1   2
BRANCH   1  15
ATOM     14  N   UNL     1       6.346   3.698  14.093  0.00  0.00    +0.000 N 
ATOM     15  C   UNL     1       7.081   4.648  14.773  0.00  0.00    +0.000 C 
ATOM     16  O   UNL     1       7.774   5.481  14.192  0.00  0.00    +0.000 OA
ATOM     17  H   UNL     1       5.720   3.093  14.611  0.00  0.00    +0.000 HD
BRANCH  14  18
ATOM     18  C   UNL     1       6.319   3.620  12.633  0.00  0.00    +0.000 C 
BRANCH  18  19
ATOM     19  C   UNL     1       5.000   3.056  12.080  0.00  0.00    +0.000 C 
BRANCH  19  23
ATOM     20  C   UNL     1       2.817   4.515   9.336  0.00  0.00    +0.000 C 
ATOM     21  C   UNL     1       3.259   3.520  10.379  0.00  0.00    +0.000 C 
ATOM     22  O   UNL     1       2.674   2.459  10.570  0.00  0.00    +0.000 OA
ATOM     23  N   UNL     1       4.374   3.914  11.087  0.00  0.00    +0.000 N 
ATOM     24  H   UNL     1       4.789   4.817  10.896  0.00  0.00    +0.000 HD
ENDBRANCH  19  23
ENDBRANCH  18  19
ENDBRANCH  14  18
ENDBRANCH   1  15
TORSDOF 7
ENDMDL
MODEL 2
REMARK VINA RESULT:      -7.0      1.699      2.134
REMARK  Name = 
REMARK  8 active torsions:
REMARK  status: ('A' for Active; 'I' for Inactive)
REMARK    1  A    between atoms: C_1  and  C_2
REMARK    2  A    between atoms: N_4  and  C_5
REMARK    3  A    between atoms: C_5  and  C_6
REMARK    4  A    between atoms: C_6  and  N_7
REMARK    5  A    between atoms: C_8  and  C_10
REMARK    6  A    between atoms: C_10  and  N_11
REMARK    7  A    between atoms: C_15  and  C_16
REMARK    8  A    between atoms: C_16  and  N_17
REMARK                            x       y       z     vdW  Elec       q    Type
REMARK                         _______ _______ _______ _____ _____    ______ ____
ROOT
ATOM      1  C   UNL     1       6.813   4.574  16.256  0.00  0.00    +0.000 C 
ENDROOT
BRANCH   1   2
ATOM      2  N   UNL     1       6.301   5.825  16.848  0.00  0.00    +0.000 NA
ATOM      3  C   UNL     1       6.915   6.156  18.153  0.00  0.00    +0.000 C 
ATOM      4  C   UNL     1       6.391   5.297  19.310  0.00  0.00    +0.000 C 
ATOM      5  O   UNL     1       4.980   5.460  19.472  0.00  0.00    +0.000 OA
ATOM      6  C   UNL     1       4.218   5.162  18.286  0.00  0.00    +0.000 C 
ATOM      7  C   UNL     1       4.828   5.850  17.029  0.00  0.00    +0.000 C 
BRANCH   6   8
ATOM      8  C   UNL     1       3.962   3.657  18.126  0.00  0.00    +0.000 C 
BRANCH   8   9
ATOM      9  N   UNL     1       2.678   3.274  18.700  0.00  0.00    +0.000 N 
ATOM     10  C   UNL     1       2.229   3.553  19.962  0.00  0.00    +0.000 A 
ATOM     11  C   UNL     1       0.938   3.089  20.020  0.00  0.00    +0.000 A 
ATOM     12  C   UNL     1       0.716   2.497  18.764  0.00  0.00    +0.000 A 
ATOM     13  N   UNL     1       1.787   2.580  17.965  0.00  0.00    +0.000 NA
ENDBRANCH   8   9
ENDBRANCH   6   8
ENDBRANCH   1   2
BRANCH   1  15
ATOM     14  N   UNL     1       6.463   3.799  13.923  0.00  0.00    +0.000 N 
ATOM     15  C   UNL     1       7.096   4.714  14.738  0.00  0.00    +0.000 C 
ATOM     16  O   UNL     1       7.871   5.562  14.297  0.00  0.00    +0.000 OA
ATOM     17  H   UNL     1       5.765   3.182  14.321  0.00  0.00    +0.000 HD
BRANCH  14  18
ATOM     18  C   UNL     1       6.648   3.776  12.473  0.00  0.00    +0.000 C 
BRANCH  18  19
ATOM     19  C   UNL     1       5.488   3.100  11.723  0.00  0.00    +0.000 C 
BRANCH  19  23
ATOM     20  C   UNL     1       6.103  -0.623  11.295  0.00  0.00    +0.000 C 
ATOM     21  C   UNL     1       6.321   0.854  11.088  0.00  0.00    +0.000 C 
ATOM     22  O   UNL     1       7.164   1.296  10.314  0.00  0.00    +0.000 OA
ATOM     23  N   UNL     1       5.487   1.651  11.842  0.00  0.00    +0.000 N 
ATOM     24  H   UNL     1       4.834   1.218  12.482  0.00  0.00    +0.000 HD
ENDBRANCH  19  23
ENDBRANCH  18  19
ENDBRANCH  14  18
ENDBRANCH   1  15
TORSDOF 7
ENDMDL
MODEL 3
REMARK VINA RESULT:      -6.7      2.631      6.784
REMARK  Name = 
REMARK  8 active torsions:
REMARK  status: ('A' for Active; 'I' for Inactive)
REMARK    1  A    between atoms: C_1  and  C_2
REMARK    2  A    between atoms: N_4  and  C_5
REMARK    3  A    between atoms: C_5  and  C_6
REMARK    4  A    between atoms: C_6  and  N_7
REMARK    5  A    between atoms: C_8  and  C_10
REMARK    6  A    between atoms: C_10  and  N_11
REMARK    7  A    between atoms: C_15  and  C_16
REMARK    8  A    between atoms: C_16  and  N_17
REMARK                            x       y       z     vdW  Elec       q    Type
REMARK                         _______ _______ _______ _____ _____    ______ ____
ROOT
ATOM      1  C   UNL     1       4.487   6.148  18.215  0.00  0.00    +0.000 C 
ENDROOT
BRANCH   1   2
ATOM      2  N   UNL     1       5.679   5.322  18.491  0.00  0.00    +0.000 NA
ATOM      3  C   UNL     1       6.936   6.100  18.553  0.00  0.00    +0.000 C 
ATOM      4  C   UNL     1       7.454   6.534  17.177  0.00  0.00    +0.000 C 
ATOM      5  O   UNL     1       7.718   5.402  16.347  0.00  0.00    +0.000 OA
ATOM      6  C   UNL     1       6.583   4.533  16.166  0.00  0.00    +0.000 C 
ATOM      7  C   UNL     1       5.885   4.216  17.522  0.00  0.00    +0.000 C 
BRANCH   6   8
ATOM      8  C   UNL     1       5.637   5.038  15.068  0.00  0.00    +0.000 C 
BRANCH   8   9
ATOM      9  N   UNL     1       5.943   4.422  13.781  0.00  0.00    +0.000 N 
ATOM     10  C   UNL     1       7.123   4.502  13.095  0.00  0.00    +0.000 A 
ATOM     11  C   UNL     1       6.984   3.688  11.998  0.00  0.00    +0.000 A 
ATOM     12  C   UNL     1       5.665   3.204  12.079  0.00  0.00    +0.000 A 
ATOM     13  N   UNL     1       5.016   3.674  13.151  0.00  0.00    +0.000 NA
ENDBRANCH   8   9
ENDBRANCH   6   8
ENDBRANCH   1   2
BRANCH   1  15
ATOM     14  N   UNL     1       3.171   5.459  20.206  0.00  0.00    +0.000 N 
ATOM     15  C   UNL     1       3.198   5.543  18.830  0.00  0.00    +0.000 C 
ATOM     16  O   UNL     1       2.278   5.125  18.128  0.00  0.00    +0.000 OA
ATOM     17  H   UNL     1       3.910   5.899  20.742  0.00  0.00    +0.000 HD
BRANCH  14  18
ATOM     18  C   UNL     1       2.044   4.886  20.939  0.00  0.00    +0.000 C 
BRANCH  18  19
ATOM     19  C   UNL     1       2.235   3.399  21.280  0.00  0.00    +0.000 C 
BRANCH  19  23
ATOM     20  C   UNL     1       3.565   1.358  18.366  0.00  0.00    +0.000 C 
ATOM     21  C   UNL     1       3.622   2.162  19.640  0.00  0.00    +0.000 C 
ATOM     22  O   UNL     1       4.677   2.445  20.197  0.00  0.00    +0.000 OA
ATOM     23  N   UNL     1       2.385   2.549  20.109  0.00  0.00    +0.000 N 
ATOM     24  H   UNL     1       1.553   2.256  19.614  0.00  0.00    +0.000 HD
ENDBRANCH  19  23
ENDBRANCH  18  19
ENDBRANCH  14  18
ENDBRANCH   1  15
TORSDOF 7
ENDMDL
MODEL 4
REMARK VINA RESULT:      -6.7      2.887      6.884
REMARK  Name = 
REMARK  8 active torsions:
REMARK  status: ('A' for Active; 'I' for Inactive)
REMARK    1  A    between atoms: C_1  and  C_2
REMARK    2  A    between atoms: N_4  and  C_5
REMARK    3  A    between atoms: C_5  and  C_6
REMARK    4  A    between atoms: C_6  and  N_7
REMARK    5  A    between atoms: C_8  and  C_10
REMARK    6  A    between atoms: C_10  and  N_11
REMARK    7  A    between atoms: C_15  and  C_16
REMARK    8  A    between atoms: C_16  and  N_17
REMARK                            x       y       z     vdW  Elec       q    Type
REMARK                         _______ _______ _______ _____ _____    ______ ____
ROOT
ATOM      1  C   UNL     1       4.508   6.327  18.300  0.00  0.00    +0.000 C 
ENDROOT
BRANCH   1   2
ATOM      2  N   UNL     1       5.280   5.124  18.668  0.00  0.00    +0.000 NA
ATOM      3  C   UNL     1       6.604   5.427  19.254  0.00  0.00    +0.000 C 
ATOM      4  C   UNL     1       7.642   5.876  18.219  0.00  0.00    +0.000 C 
ATOM      5  O   UNL     1       7.856   4.863  17.234  0.00  0.00    +0.000 OA
ATOM      6  C   UNL     1       6.657   4.454  16.548  0.00  0.00    +0.000 C 
ATOM      7  C   UNL     1       5.495   4.177  17.546  0.00  0.00    +0.000 C 
BRANCH   6   8
ATOM      8  C   UNL     1       6.295   5.405  15.399  0.00  0.00    +0.000 C 
BRANCH   8   9
ATOM      9  N   UNL     1       6.591   4.806  14.102  0.00  0.00    +0.000 N 
ATOM     10  C   UNL     1       5.969   3.726  13.538  0.00  0.00    +0.000 A 
ATOM     11  C   UNL     1       6.504   3.590  12.281  0.00  0.00    +0.000 A 
ATOM     12  C   UNL     1       7.482   4.599  12.199  0.00  0.00    +0.000 A 
ATOM     13  N   UNL     1       7.559   5.325  13.321  0.00  0.00    +0.000 NA
ENDBRANCH   8   9
ENDBRANCH   6   8
ENDBRANCH   1   2
BRANCH   1  15
ATOM     14  N   UNL     1       2.851   5.338  19.863  0.00  0.00    +0.000 N 
ATOM     15  C   UNL     1       3.110   6.357  18.971  0.00  0.00    +0.000 C 
ATOM     16  O   UNL     1       2.272   7.212  18.688  0.00  0.00    +0.000 OA
ATOM     17  H   UNL     1       3.602   4.713  20.132  0.00  0.00    +0.000 HD
BRANCH  14  18
ATOM     18  C   UNL     1       1.571   5.204  20.556  0.00  0.00    +0.000 C 
BRANCH  18  19
ATOM     19  C   UNL     1       1.091   3.748  20.668  0.00  0.00    +0.000 C 
BRANCH  19  23
ATOM     20  C   UNL     1       3.211   1.530  18.432  0.00  0.00    +0.000 C 
ATOM     21  C   UNL     1       2.845   2.313  19.666  0.00  0.00    +0.000 C 
ATOM     22  O   UNL     1       3.600   2.426  20.626  0.00  0.00    +0.000 OA
ATOM     23  N   UNL     1       1.593   2.888  19.610  0.00  0.00    +0.000 N 
ATOM     24  H   UNL     1       1.011   2.729  18.797  0.00  0.00    +0.000 HD
ENDBRANCH  19  23
ENDBRANCH  18  19
ENDBRANCH  14  18
ENDBRANCH   1  15
TORSDOF 7
ENDMDL
MODEL 5
REMARK VINA RESULT:      -6.6      2.926      6.865
REMARK  Name = 
REMARK  8 active torsions:
REMARK  status: ('A' for Active; 'I' for Inactive)
REMARK    1  A    between atoms: C_1  and  C_2
REMARK    2  A    between atoms: N_4  and  C_5
REMARK    3  A    between atoms: C_5  and  C_6
REMARK    4  A    between atoms: C_6  and  N_7
REMARK    5  A    between atoms: C_8  and  C_10
REMARK    6  A    between atoms: C_10  and  N_11
REMARK    7  A    between atoms: C_15  and  C_16
REMARK    8  A    between atoms: C_16  and  N_17
REMARK                            x       y       z     vdW  Elec       q    Type
REMARK                         _______ _______ _______ _____ _____    ______ ____
ROOT
ATOM      1  C   UNL     1       4.598   6.175  18.726  0.00  0.00    +0.000 C 
ENDROOT
BRANCH   1   2
ATOM      2  N   UNL     1       5.598   5.142  19.058  0.00  0.00    +0.000 NA
ATOM      3  C   UNL     1       6.960   5.683  19.267  0.00  0.00    +0.000 C 
ATOM      4  C   UNL     1       7.669   6.068  17.964  0.00  0.00    +0.000 C 
ATOM      5  O   UNL     1       7.809   4.937  17.102  0.00  0.00    +0.000 OA
ATOM      6  C   UNL     1       6.563   4.290  16.781  0.00  0.00    +0.000 C 
ATOM      7  C   UNL     1       5.699   4.053  18.055  0.00  0.00    +0.000 C 
BRANCH   6   8
ATOM      8  C   UNL     1       5.825   4.993  15.634  0.00  0.00    +0.000 C 
BRANCH   8   9
ATOM      9  N   UNL     1       6.474   4.740  14.353  0.00  0.00    +0.000 N 
ATOM     10  C   UNL     1       6.102   3.817  13.414  0.00  0.00    +0.000 A 
ATOM     11  C   UNL     1       6.933   4.010  12.338  0.00  0.00    +0.000 A 
ATOM     12  C   UNL     1       7.809   5.033  12.744  0.00  0.00    +0.000 A 
ATOM     13  N   UNL     1       7.551   5.461  13.985  0.00  0.00    +0.000 NA
ENDBRANCH   8   9
ENDBRANCH   6   8
ENDBRANCH   1   2
BRANCH   1  15
ATOM     14  N   UNL     1       2.689   4.929  17.740  0.00  0.00    +0.000 N 
ATOM     15  C   UNL     1       3.145   5.641  18.829  0.00  0.00    +0.000 C 
ATOM     16  O   UNL     1       2.434   5.878  19.804  0.00  0.00    +0.000 OA
ATOM     17  H   UNL     1       3.339   4.682  17.003  0.00  0.00    +0.000 HD
BRANCH  14  18
ATOM     18  C   UNL     1       1.334   4.386  17.665  0.00  0.00    +0.000 C 
BRANCH  18  19
ATOM     19  C   UNL     1       1.217   2.965  18.239  0.00  0.00    +0.000 C 
BRANCH  19  23
ATOM     20  C   UNL     1       1.642   2.551  21.990  0.00  0.00    +0.000 C 
ATOM     21  C   UNL     1       2.059   2.613  20.543  0.00  0.00    +0.000 C 
ATOM     22  O   UNL     1       3.208   2.392  20.176  0.00  0.00    +0.000 OA
ATOM     23  N   UNL     1       1.032   2.934  19.681  0.00  0.00    +0.000 N 
ATOM     24  H   UNL     1       0.114   3.133  20.057  0.00  0.00    +0.000 HD
ENDBRANCH  19  23
ENDBRANCH  18  19
ENDBRANCH  14  18
ENDBRANCH   1  15
TORSDOF 7
ENDMDL
MODEL 6
REMARK VINA RESULT:      -6.5      1.174      1.185
REMARK  Name = 
REMARK  8 active torsions:
REMARK  status: ('A' for Active; 'I' for Inactive)
REMARK    1  A    between atoms: C_1  and  C_2
REMARK    2  A    between atoms: N_4  and  C_5
REMARK    3  A    between atoms: C_5  and  C_6
REMARK    4  A    between atoms: C_6  and  N_7
REMARK    5  A    between atoms: C_8  and  C_10
REMARK    6  A    between atoms: C_10  and  N_11
REMARK    7  A    between atoms: C_15  and  C_16
REMARK    8  A    between atoms: C_16  and  N_17
REMARK                            x       y       z     vdW  Elec       q    Type
REMARK                         _______ _______ _______ _____ _____    ______ ____
ROOT
ATOM      1  C   UNL     1       6.291   4.505  16.118  0.00  0.00    +0.000 C 
ENDROOT
BRANCH   1   2
ATOM      2  N   UNL     1       6.126   5.847  16.711  0.00  0.00    +0.000 NA
ATOM      3  C   UNL     1       6.862   6.026  17.982  0.00  0.00    +0.000 C 
ATOM      4  C   UNL     1       6.199   5.328  19.175  0.00  0.00    +0.000 C 
ATOM      5  O   UNL     1       4.880   5.831  19.394  0.00  0.00    +0.000 OA
ATOM      6  C   UNL     1       4.014   5.720  18.248  0.00  0.00    +0.000 C 
ATOM      7  C   UNL     1       4.713   6.231  16.954  0.00  0.00    +0.000 C 
BRANCH   6   8
ATOM      8  C   UNL     1       3.393   4.322  18.126  0.00  0.00    +0.000 C 
BRANCH   8   9
ATOM      9  N   UNL     1       2.888   3.852  19.411  0.00  0.00    +0.000 N 
ATOM     10  C   UNL     1       3.382   2.818  20.156  0.00  0.00    +0.000 A 
ATOM     11  C   UNL     1       2.662   2.809  21.325  0.00  0.00    +0.000 A 
ATOM     12  C   UNL     1       1.717   3.840  21.168  0.00  0.00    +0.000 A 
ATOM     13  N   UNL     1       1.832   4.460  19.987  0.00  0.00    +0.000 NA
ENDBRANCH   8   9
ENDBRANCH   6   8
ENDBRANCH   1   2
BRANCH   1  15
ATOM     14  N   UNL     1       6.055   3.548  13.839  0.00  0.00    +0.000 N 
ATOM     15  C   UNL     1       6.593   4.566  14.599  0.00  0.00    +0.000 C 
ATOM     16  O   UNL     1       7.304   5.444  14.112  0.00  0.00    +0.000 OA
ATOM     17  H   UNL     1       5.403   2.903  14.268  0.00  0.00    +0.000 HD
BRANCH  14  18
ATOM     18  C   UNL     1       6.272   3.442  12.397  0.00  0.00    +0.000 C 
BRANCH  18  19
ATOM     19  C   UNL     1       5.066   2.860  11.642  0.00  0.00    +0.000 C 
BRANCH  19  23
ATOM     20  C   UNL     1       2.729   4.637   9.234  0.00  0.00    +0.000 C 
ATOM     21  C   UNL     1       3.198   3.552  10.169  0.00  0.00    +0.000 C 
ATOM     22  O   UNL     1       2.553   2.527  10.369  0.00  0.00    +0.000 OA
ATOM     23  N   UNL     1       4.409   3.819  10.769  0.00  0.00    +0.000 N 
ATOM     24  H   UNL     1       4.872   4.699  10.581  0.00  0.00    +0.000 HD
ENDBRANCH  19  23
ENDBRANCH  18  19
ENDBRANCH  14  18
ENDBRANCH   1  15
TORSDOF 7
ENDMDL
MODEL 7
REMARK VINA RESULT:      -6.5      4.750      8.027
REMARK  Name = 
REMARK  8 active torsions:
REMARK  status: ('A' for Active; 'I' for Inactive)
REMARK    1  A    between atoms: C_1  and  C_2
REMARK    2  A    between atoms: N_4  and  C_5
REMARK    3  A    between atoms: C_5  and  C_6
REMARK    4  A    between atoms: C_6  and  N_7
REMARK    5  A    between atoms: C_8  and  C_10
REMARK    6  A    between atoms: C_10  and  N_11
REMARK    7  A    between atoms: C_15  and  C_16
REMARK    8  A    between atoms: C_16  and  N_17
REMARK                            x       y       z     vdW  Elec       q    Type
REMARK                         _______ _______ _______ _____ _____    ______ ____
ROOT
ATOM      1  C   UNL     1       2.798   6.631  18.004  0.00  0.00    +0.000 C 
ENDROOT
BRANCH   1   2
ATOM      2  N   UNL     1       4.248   6.545  18.267  0.00  0.00    +0.000 NA
ATOM      3  C   UNL     1       5.071   6.533  17.038  0.00  0.00    +0.000 C 
ATOM      4  C   UNL     1       5.043   5.191  16.297  0.00  0.00    +0.000 C 
ATOM      5  O   UNL     1       5.535   4.137  17.127  0.00  0.00    +0.000 OA
ATOM      6  C   UNL     1       4.828   3.997  18.374  0.00  0.00    +0.000 C 
ATOM      7  C   UNL     1       4.646   5.371  19.083  0.00  0.00    +0.000 C 
BRANCH   6   8
ATOM      8  C   UNL     1       3.535   3.185  18.219  0.00  0.00    +0.000 C 
BRANCH   8   9
ATOM      9  N   UNL     1       2.791   3.130  19.472  0.00  0.00    +0.000 N 
ATOM     10  C   UNL     1       1.494   3.517  19.672  0.00  0.00    +0.000 A 
ATOM     11  C   UNL     1       1.192   3.187  20.970  0.00  0.00    +0.000 A 
ATOM     12  C   UNL     1       2.388   2.658  21.490  0.00  0.00    +0.000 A 
ATOM     13  N   UNL     1       3.375   2.649  20.587  0.00  0.00    +0.000 NA
ENDBRANCH   8   9
ENDBRANCH   6   8
ENDBRANCH   1   2
BRANCH   1  15
ATOM     14  N   UNL     1       1.734   8.289  19.516  0.00  0.00    +0.000 N 
ATOM     15  C   UNL     1       2.238   8.055  18.254  0.00  0.00    +0.000 C 
ATOM     16  O   UNL     1       2.207   8.907  17.366  0.00  0.00    +0.000 OA
ATOM     17  H   UNL     1       1.865   7.590  20.238  0.00  0.00    +0.000 HD
BRANCH  14  18
ATOM     18  C   UNL     1       1.142   9.568  19.903  0.00  0.00    +0.000 C 
BRANCH  18  19
ATOM     19  C   UNL     1      -0.141   9.415  20.738  0.00  0.00    +0.000 C 
BRANCH  19  23
ATOM     20  C   UNL     1      -1.266  12.281  22.961  0.00  0.00    +0.000 C 
ATOM     21  C   UNL     1      -0.617  10.967  22.611  0.00  0.00    +0.000 C 
ATOM     22  O   UNL     1      -0.117  10.230  23.455  0.00  0.00    +0.000 OA
ATOM     23  N   UNL     1      -0.644  10.674  21.264  0.00  0.00    +0.000 N 
ATOM     24  H   UNL     1      -1.048  11.342  20.620  0.00  0.00    +0.000 HD
ENDBRANCH  19  23
ENDBRANCH  18  19
ENDBRANCH  14  18
ENDBRANCH   1  15
TORSDOF 7
ENDMDL
MODEL 8
REMARK VINA RESULT:      -6.4      2.092      2.589
REMARK  Name = 
REMARK  8 active torsions:
REMARK  status: ('A' for Active; 'I' for Inactive)
REMARK    1  A    between atoms: C_1  and  C_2
REMARK    2  A    between atoms: N_4  and  C_5
REMARK    3  A    between atoms: C_5  and  C_6
REMARK    4  A    between atoms: C_6  and  N_7
REMARK    5  A    between atoms: C_8  and  C_10
REMARK    6  A    between atoms: C_10  and  N_11
REMARK    7  A    between atoms: C_15  and  C_16
REMARK    8  A    between atoms: C_16  and  N_17
REMARK                            x       y       z     vdW  Elec       q    Type
REMARK                         _______ _______ _______ _____ _____    ______ ____
ROOT
ATOM      1  C   UNL     1       4.756   4.769  16.367  0.00  0.00    +0.000 C 
ENDROOT
BRANCH   1   2
ATOM      2  N   UNL     1       4.977   5.891  17.299  0.00  0.00    +0.000 NA
ATOM      3  C   UNL     1       6.402   6.120  17.623  0.00  0.00    +0.000 C 
ATOM      4  C   UNL     1       6.980   5.088  18.599  0.00  0.00    +0.000 C 
ATOM      5  O   UNL     1       6.274   5.105  19.841  0.00  0.00    +0.000 OA
ATOM      6  C   UNL     1       4.856   4.882  19.710  0.00  0.00    +0.000 C 
ATOM      7  C   UNL     1       4.242   5.764  18.583  0.00  0.00    +0.000 C 
BRANCH   6   8
ATOM      8  C   UNL     1       4.513   3.390  19.607  0.00  0.00    +0.000 C 
BRANCH   8   9
ATOM      9  N   UNL     1       3.102   3.150  19.891  0.00  0.00    +0.000 N 
ATOM     10  C   UNL     1       2.448   3.408  21.064  0.00  0.00    +0.000 A 
ATOM     11  C   UNL     1       1.124   3.123  20.835  0.00  0.00    +0.000 A 
ATOM     12  C   UNL     1       1.088   2.645  19.512  0.00  0.00    +0.000 A 
ATOM     13  N   UNL     1       2.298   2.632  18.942  0.00  0.00    +0.000 NA
ENDBRANCH   8   9
ENDBRANCH   6   8
ENDBRANCH   1   2
BRANCH   1  15
ATOM     14  N   UNL     1       5.997   3.868  14.412  0.00  0.00    +0.000 N 
ATOM     15  C   UNL     1       5.457   4.993  15.001  0.00  0.00    +0.000 C 
ATOM     16  O   UNL     1       5.561   6.112  14.500  0.00  0.00    +0.000 OA
ATOM     17  H   UNL     1       5.806   2.959  14.816  0.00  0.00    +0.000 HD
BRANCH  14  18
ATOM     18  C   UNL     1       6.717   3.914  13.141  0.00  0.00    +0.000 C 
BRANCH  18  19
ATOM     19  C   UNL     1       5.863   3.468  11.943  0.00  0.00    +0.000 C 
BRANCH  19  23
ATOM     20  C   UNL     1       6.062  -0.254  11.212  0.00  0.00    +0.000 C 
ATOM     21  C   UNL     1       6.510   1.185  11.227  0.00  0.00    +0.000 C 
ATOM     22  O   UNL     1       7.550   1.559  10.694  0.00  0.00    +0.000 OA
ATOM     23  N   UNL     1       5.646   2.031  11.888  0.00  0.00    +0.000 N 
ATOM     24  H   UNL     1       4.820   1.649  12.330  0.00  0.00    +0.000 HD
ENDBRANCH  19  23
ENDBRANCH  18  19
ENDBRANCH  14  18
ENDBRANCH   1  15
TORSDOF 7
ENDMDL
MODEL 9
REMARK VINA RESULT:      -6.3      2.961      3.719
REMARK  Name = 
REMARK  8 active torsions:
REMARK  status: ('A' for Active; 'I' for Inactive)
REMARK    1  A    between atoms: C_1  and  C_2
REMARK    2  A    between atoms: N_4  and  C_5
REMARK    3  A    between atoms: C_5  and  C_6
REMARK    4  A    between atoms: C_6  and  N_7
REMARK    5  A    between atoms: C_8  and  C_10
REMARK    6  A    between atoms: C_10  and  N_11
REMARK    7  A    between atoms: C_15  and  C_16
REMARK    8  A    between atoms: C_16  and  N_17
REMARK                            x       y       z     vdW  Elec       q    Type
REMARK                         _______ _______ _______ _____ _____    ______ ____
ROOT
ATOM      1  C   UNL     1       5.437   5.829  17.006  0.00  0.00    +0.000 C 
ENDROOT
BRANCH   1   2
ATOM      2  N   UNL     1       5.164   4.914  18.132  0.00  0.00    +0.000 NA
ATOM      3  C   UNL     1       4.331   3.750  17.759  0.00  0.00    +0.000 C 
ATOM      4  C   UNL     1       2.849   4.095  17.572  0.00  0.00    +0.000 C 
ATOM      5  O   UNL     1       2.290   4.625  18.776  0.00  0.00    +0.000 OA
ATOM      6  C   UNL     1       2.981   5.786  19.278  0.00  0.00    +0.000 C 
ATOM      7  C   UNL     1       4.522   5.567  19.300  0.00  0.00    +0.000 C 
BRANCH   6   8
ATOM      8  C   UNL     1       2.531   7.075  18.576  0.00  0.00    +0.000 C 
BRANCH   8   9
ATOM      9  N   UNL     1       1.856   7.975  19.503  0.00  0.00    +0.000 N 
ATOM     10  C   UNL     1       1.377   9.227  19.228  0.00  0.00    +0.000 A 
ATOM     11  C   UNL     1       0.735   9.650  20.365  0.00  0.00    +0.000 A 
ATOM     12  C   UNL     1       0.928   8.608  21.291  0.00  0.00    +0.000 A 
ATOM     13  N   UNL     1       1.639   7.597  20.778  0.00  0.00    +0.000 NA
ENDBRANCH   8   9
ENDBRANCH   6   8
ENDBRANCH   1   2
BRANCH   1  15
ATOM     14  N   UNL     1       6.278   5.372  14.714  0.00  0.00    +0.000 N 
ATOM     15  C   UNL     1       6.545   5.288  16.064  0.00  0.00    +0.000 C 
ATOM     16  O   UNL     1       7.576   4.776  16.500  0.00  0.00    +0.000 OA
ATOM     17  H   UNL     1       5.460   5.883  14.402  0.00  0.00    +0.000 HD
BRANCH  14  18
ATOM     18  C   UNL     1       7.203   4.878  13.696  0.00  0.00    +0.000 C 
BRANCH  18  19
ATOM     19  C   UNL     1       6.714   3.597  13.001  0.00  0.00    +0.000 C 
BRANCH  19  23
ATOM     20  C   UNL     1       3.598   3.158  10.875  0.00  0.00    +0.000 C 
ATOM     21  C   UNL     1       4.906   2.775  11.520  0.00  0.00    +0.000 C 
ATOM     22  O   UNL     1       5.454   1.696  11.314  0.00  0.00    +0.000 OA
ATOM     23  N   UNL     1       5.423   3.745  12.351  0.00  0.00    +0.000 N 
ATOM     24  H   UNL     1       4.902   4.600  12.497  0.00  0.00    +0.000 HD
ENDBRANCH  19  23
ENDBRANCH  18  19
ENDBRANCH  14  18
ENDBRANCH   1  15
TORSDOF 7
ENDMDL
