MODEL 1
REMARK VINA RESULT:      -7.2      0.000      0.000
REMARK  Name = 
REMARK  7 active torsions:
REMARK  status: ('A' for Active; 'I' for Inactive)
REMARK    1  A    between atoms: C_1  and  C_2
REMARK    2  A    between atoms: C_7  and  N_8
REMARK    3  A    between atoms: C_9  and  C_11
REMARK    4  A    between atoms: C_14  and  S_15
REMARK    5  A    between atoms: S_15  and  N_18
REMARK    6  A    between atoms: N_18  and  C_19
REMARK    7  A    between atoms: N_18  and  C_20
REMARK                            x       y       z     vdW  Elec       q    Type
REMARK                         _______ _______ _______ _____ _____    ______ ____
ROOT
ATOM      1  C   UNL     1       2.352   7.479  18.861  0.00  0.00    +0.000 A 
ATOM      2  C   UNL     1       1.856   6.985  20.084  0.00  0.00    +0.000 A 
ATOM      3  C   UNL     1       2.127   5.680  20.499  0.00  0.00    +0.000 A 
ATOM      4  C   UNL     1       2.883   4.850  19.674  0.00  0.00    +0.000 A 
ATOM      5  C   UNL     1       3.414   5.336  18.471  0.00  0.00    +0.000 A 
ATOM      6  C   UNL     1       3.143   6.648  18.058  0.00  0.00    +0.000 A 
ENDROOT
BRANCH   1   8
ATOM      7  N   UNL     1       1.169   9.589  19.360  0.00  0.00    +0.000 N 
ATOM      8  C   UNL     1       1.913   8.844  18.451  0.00  0.00    +0.000 C 
ATOM      9  O   UNL     1       2.251   9.196  17.325  0.00  0.00    +0.000 OA
ATOM     10  H   UNL     1       0.896   9.137  20.219  0.00  0.00    +0.000 HD
BRANCH   7  17
ATOM     11  C   UNL     1      -1.539   9.896  18.188  0.00  0.00    +0.000 C 
ATOM     12  C   UNL     1      -0.635  11.047  18.539  0.00  0.00    +0.000 A 
ATOM     13  C   UNL     1      -1.098  12.343  18.220  0.00  0.00    +0.000 A 
ATOM     14  C   UNL     1      -0.358  13.475  18.547  0.00  0.00    +0.000 A 
ATOM     15  C   UNL     1       0.854  13.330  19.200  0.00  0.00    +0.000 A 
ATOM     16  C   UNL     1       1.343  12.053  19.486  0.00  0.00    +0.000 A 
ATOM     17  C   UNL     1       0.635  10.892  19.139  0.00  0.00    +0.000 A 
ENDBRANCH   7  17
ENDBRANCH   1   8
BRANCH   4  18
ATOM     18  S   UNL     1       3.221   3.172  20.180  0.00  0.00    +0.000 S 
ATOM     19  O   UNL     1       4.633   2.944  19.953  0.00  0.00    +0.000 OA
ATOM     20  O   UNL     1       2.634   2.984  21.487  0.00  0.00    +0.000 OA
BRANCH  18  21
ATOM     21  N   UNL     1       2.349   2.240  19.053  0.00  0.00    +0.000 NA
ATOM     22  C   UNL     1       0.924   2.561  18.867  0.00  0.00    +0.000 C 
ATOM     23  C   UNL     1       3.038   1.897  17.798  0.00  0.00    +0.000 C 
ENDBRANCH  18  21
ENDBRANCH   4  18
TORSDOF 4
ENDMDL
MODEL 2
REMARK VINA RESULT:      -7.2      3.308      4.319
REMARK  Name = 
REMARK  7 active torsions:
REMARK  status: ('A' for Active; 'I' for Inactive)
REMARK    1  A    between atoms: C_1  and  C_2
REMARK    2  A    between atoms: C_7  and  N_8
REMARK    3  A    between atoms: C_9  and  C_11
REMARK    4  A    between atoms: C_14  and  S_15
REMARK    5  A    between atoms: S_15  and  N_18
REMARK    6  A    between atoms: N_18  and  C_19
REMARK    7  A    between atoms: N_18  and  C_20
REMARK                            x       y       z     vdW  Elec       q    Type
REMARK                         _______ _______ _______ _____ _____    ______ ____
ROOT
ATOM      1  C   UNL     1       2.699   6.651  19.201  0.00  0.00    +0.000 A 
ATOM      2  C   UNL     1       2.997   7.453  18.081  0.00  0.00    +0.000 A 
ATOM      3  C   UNL     1       3.949   7.055  17.141  0.00  0.00    +0.000 A 
ATOM      4  C   UNL     1       4.628   5.853  17.330  0.00  0.00    +0.000 A 
ATOM      5  C   UNL     1       4.318   5.026  18.420  0.00  0.00    +0.000 A 
ATOM      6  C   UNL     1       3.360   5.427  19.362  0.00  0.00    +0.000 A 
ENDROOT
BRANCH   1   8
ATOM      7  N   UNL     1       1.470   8.574  20.145  0.00  0.00    +0.000 N 
ATOM      8  C   UNL     1       1.755   7.214  20.209  0.00  0.00    +0.000 C 
ATOM      9  O   UNL     1       1.305   6.414  21.023  0.00  0.00    +0.000 OA
ATOM     10  H   UNL     1       1.978   9.125  19.471  0.00  0.00    +0.000 HD
BRANCH   7  17
ATOM     11  C   UNL     1      -0.384  10.628  19.077  0.00  0.00    +0.000 C 
ATOM     12  C   UNL     1      -0.230  10.309  20.539  0.00  0.00    +0.000 A 
ATOM     13  C   UNL     1      -0.974  11.094  21.447  0.00  0.00    +0.000 A 
ATOM     14  C   UNL     1      -0.937  10.848  22.816  0.00  0.00    +0.000 A 
ATOM     15  C   UNL     1      -0.157   9.810  23.299  0.00  0.00    +0.000 A 
ATOM     16  C   UNL     1       0.614   9.050  22.417  0.00  0.00    +0.000 A 
ATOM     17  C   UNL     1       0.623   9.297  21.035  0.00  0.00    +0.000 A 
ENDBRANCH   7  17
ENDBRANCH   1   8
BRANCH   4  18
ATOM     18  S   UNL     1       5.862   5.340  16.148  0.00  0.00    +0.000 S 
ATOM     19  O   UNL     1       5.727   3.905  16.000  0.00  0.00    +0.000 OA
ATOM     20  O   UNL     1       5.767   6.222  15.008  0.00  0.00    +0.000 OA
BRANCH  18  21
ATOM     21  N   UNL     1       7.329   5.650  16.955  0.00  0.00    +0.000 NA
ATOM     22  C   UNL     1       7.542   7.011  17.475  0.00  0.00    +0.000 C 
ATOM     23  C   UNL     1       7.830   4.597  17.854  0.00  0.00    +0.000 C 
ENDBRANCH  18  21
ENDBRANCH   4  18
TORSDOF 4
ENDMDL
MODEL 3
REMARK VINA RESULT:      -7.2      3.564      7.934
REMARK  Name = 
REMARK  7 active torsions:
REMARK  status: ('A' for Active; 'I' for Inactive)
REMARK    1  A    between atoms: C_1  and  C_2
REMARK    2  A    between atoms: C_7  and  N_8
REMARK    3  A    between atoms: C_9  and  C_11
REMARK    4  A    between atoms: C_14  and  S_15
REMARK    5  A    between atoms: S_15  and  N_18
REMARK    6  A    between atoms: N_18  and  C_19
REMARK    7  A    between atoms: N_18  and  C_20
REMARK                            x       y       z     vdW  Elec       q    Type
REMARK                         _______ _______ _______ _____ _____    ______ ____
ROOT
ATOM      1  C   UNL     1       2.271   7.795  18.585  0.00  0.00    +0.000 A 
ATOM      2  C   UNL     1       1.954   7.698  19.955  0.00  0.00    +0.000 A 
ATOM      3  C   UNL     1       1.295   8.734  20.620  0.00  0.00    +0.000 A 
ATOM      4  C   UNL     1       0.967   9.890  19.915  0.00  0.00    +0.000 A 
ATOM      5  C   UNL     1       1.242   9.989  18.543  0.00  0.00    +0.000 A 
ATOM      6  C   UNL     1       1.903   8.946  17.878  0.00  0.00    +0.000 A 
ENDROOT
BRANCH   1   8
ATOM      7  N   UNL     1       4.345   6.996  17.510  0.00  0.00    +0.000 N 
ATOM      8  C   UNL     1       3.078   6.690  17.994  0.00  0.00    +0.000 C 
ATOM      9  O   UNL     1       2.543   5.586  17.986  0.00  0.00    +0.000 OA
ATOM     10  H   UNL     1       4.622   7.965  17.510  0.00  0.00    +0.000 HD
BRANCH   7  17
ATOM     11  C   UNL     1       6.252   5.435  19.161  0.00  0.00    +0.000 C 
ATOM     12  C   UNL     1       6.189   5.373  17.660  0.00  0.00    +0.000 A 
ATOM     13  C   UNL     1       7.152   4.567  17.013  0.00  0.00    +0.000 A 
ATOM     14  C   UNL     1       7.149   4.406  15.630  0.00  0.00    +0.000 A 
ATOM     15  C   UNL     1       6.182   5.046  14.874  0.00  0.00    +0.000 A 
ATOM     16  C   UNL     1       5.248   5.878  15.496  0.00  0.00    +0.000 A 
ATOM     17  C   UNL     1       5.247   6.086  16.884  0.00  0.00    +0.000 A 
ENDBRANCH   7  17
ENDBRANCH   1   8
BRANCH   4  18
ATOM     18  S   UNL     1       0.142  11.232  20.754  0.00  0.00    +0.000 S 
ATOM     19  O   UNL     1      -0.864  10.634  21.609  0.00  0.00    +0.000 OA
ATOM     20  O   UNL     1       1.162  12.100  21.295  0.00  0.00    +0.000 OA
BRANCH  18  21
ATOM     21  N   UNL     1      -0.658  12.049  19.493  0.00  0.00    +0.000 NA
ATOM     22  C   UNL     1      -2.110  11.843  19.366  0.00  0.00    +0.000 C 
ATOM     23  C   UNL     1      -0.241  13.437  19.229  0.00  0.00    +0.000 C 
ENDBRANCH  18  21
ENDBRANCH   4  18
TORSDOF 4
ENDMDL
MODEL 4
REMARK VINA RESULT:      -7.2      1.757      2.206
REMARK  Name = 
REMARK  7 active torsions:
REMARK  status: ('A' for Active; 'I' for Inactive)
REMARK    1  A    between atoms: C_1  and  C_2
REMARK    2  A    between atoms: C_7  and  N_8
REMARK    3  A    between atoms: C_9  and  C_11
REMARK    4  A    between atoms: C_14  and  S_15
REMARK    5  A    between atoms: S_15  and  N_18
REMARK    6  A    between atoms: N_18  and  C_19
REMARK    7  A    between atoms: N_18  and  C_20
REMARK                            x       y       z     vdW  Elec       q    Type
REMARK                         _______ _______ _______ _____ _____    ______ ____
ROOT
ATOM      1  C   UNL     1       2.338   7.972  18.608  0.00  0.00    +0.000 A 
ATOM      2  C   UNL     1       3.229   7.782  17.532  0.00  0.00    +0.000 A 
ATOM      3  C   UNL     1       4.032   6.643  17.452  0.00  0.00    +0.000 A 
ATOM      4  C   UNL     1       3.962   5.692  18.468  0.00  0.00    +0.000 A 
ATOM      5  C   UNL     1       3.055   5.848  19.527  0.00  0.00    +0.000 A 
ATOM      6  C   UNL     1       2.249   6.992  19.604  0.00  0.00    +0.000 A 
ENDROOT
BRANCH   1   8
ATOM      7  N   UNL     1       0.493   9.357  19.489  0.00  0.00    +0.000 N 
ATOM      8  C   UNL     1       1.610   9.273  18.665  0.00  0.00    +0.000 C 
ATOM      9  O   UNL     1       2.069  10.171  17.967  0.00  0.00    +0.000 OA
ATOM     10  H   UNL     1       0.185   8.512  19.944  0.00  0.00    +0.000 HD
BRANCH   7  17
ATOM     11  C   UNL     1      -1.597   9.952  17.470  0.00  0.00    +0.000 C 
ATOM     12  C   UNL     1      -1.313  10.814  18.670  0.00  0.00    +0.000 A 
ATOM     13  C   UNL     1      -2.055  12.011  18.787  0.00  0.00    +0.000 A 
ATOM     14  C   UNL     1      -1.900  12.852  19.884  0.00  0.00    +0.000 A 
ATOM     15  C   UNL     1      -1.005  12.509  20.883  0.00  0.00    +0.000 A 
ATOM     16  C   UNL     1      -0.237  11.349  20.762  0.00  0.00    +0.000 A 
ATOM     17  C   UNL     1      -0.346  10.498  19.651  0.00  0.00    +0.000 A 
ENDBRANCH   7  17
ENDBRANCH   1   8
BRANCH   4  18
ATOM     18  S   UNL     1       4.997   4.240  18.392  0.00  0.00    +0.000 S 
ATOM     19  O   UNL     1       5.270   3.995  16.990  0.00  0.00    +0.000 OA
ATOM     20  O   UNL     1       6.070   4.419  19.342  0.00  0.00    +0.000 OA
BRANCH  18  21
ATOM     21  N   UNL     1       3.974   3.001  18.953  0.00  0.00    +0.000 NA
ATOM     22  C   UNL     1       3.298   2.170  17.942  0.00  0.00    +0.000 C 
ATOM     23  C   UNL     1       4.435   2.234  20.123  0.00  0.00    +0.000 C 
ENDBRANCH  18  21
ENDBRANCH   4  18
TORSDOF 4
ENDMDL
MODEL 5
REMARK VINA RESULT:      -7.2      2.126      2.742
REMARK  Name = 
REMARK  7 active torsions:
REMARK  status: ('A' for Active; 'I' for Inactive)
REMARK    1  A    between atoms: C_1  and  C_2
REMARK    2  A    between atoms: C_7  and  N_8
REMARK    3  A    between atoms: C_9  and  C_11
REMARK    4  A    between atoms: C_14  and  S_15
REMARK    5  A    between atoms: S_15  and  N_18
REMARK    6  A    between atoms: N_18  and  C_19
REMARK    7  A    between atoms: N_18  and  C_20
REMARK                            x       y       z     vdW  Elec       q    Type
REMARK                         _______ _______ _______ _____ _____    ______ ____
ROOT
ATOM      1  C   UNL     1       2.455   7.950  18.375  0.00  0.00    +0.000 A 
ATOM      2  C   UNL     1       3.419   7.772  17.363  0.00  0.00    +0.000 A 
ATOM      3  C   UNL     1       4.188   6.608  17.295  0.00  0.00    +0.000 A 
ATOM      4  C   UNL     1       4.009   5.620  18.260  0.00  0.00    +0.000 A 
ATOM      5  C   UNL     1       3.029   5.766  19.253  0.00  0.00    +0.000 A 
ATOM      6  C   UNL     1       2.257   6.934  19.318  0.00  0.00    +0.000 A 
ENDROOT
BRANCH   1   8
ATOM      7  N   UNL     1       0.751   9.436  19.369  0.00  0.00    +0.000 N 
ATOM      8  C   UNL     1       1.768   9.272  18.434  0.00  0.00    +0.000 C 
ATOM      9  O   UNL     1       2.166  10.115  17.637  0.00  0.00    +0.000 OA
ATOM     10  H   UNL     1       0.476   8.628  19.905  0.00  0.00    +0.000 HD
BRANCH   7  17
ATOM     11  C   UNL     1      -1.540   9.972  17.564  0.00  0.00    +0.000 C 
ATOM     12  C   UNL     1      -1.104  10.894  18.669  0.00  0.00    +0.000 A 
ATOM     13  C   UNL     1      -1.800  12.117  18.794  0.00  0.00    +0.000 A 
ATOM     14  C   UNL     1      -1.503  13.017  19.813  0.00  0.00    +0.000 A 
ATOM     15  C   UNL     1      -0.508  12.707  20.725  0.00  0.00    +0.000 A 
ATOM     16  C   UNL     1       0.215  11.519  20.590  0.00  0.00    +0.000 A 
ATOM     17  C   UNL     1      -0.039  10.609  19.553  0.00  0.00    +0.000 A 
ENDBRANCH   7  17
ENDBRANCH   1   8
BRANCH   4  18
ATOM     18  S   UNL     1       4.998   4.136  18.199  0.00  0.00    +0.000 S 
ATOM     19  O   UNL     1       5.685   4.039  19.472  0.00  0.00    +0.000 OA
ATOM     20  O   UNL     1       4.150   3.066  17.724  0.00  0.00    +0.000 OA
BRANCH  18  21
ATOM     21  N   UNL     1       6.156   4.486  17.002  0.00  0.00    +0.000 NA
ATOM     22  C   UNL     1       7.561   4.595  17.429  0.00  0.00    +0.000 C 
ATOM     23  C   UNL     1       5.992   3.817  15.700  0.00  0.00    +0.000 C 
ENDBRANCH  18  21
ENDBRANCH   4  18
TORSDOF 4
ENDMDL
MODEL 6
REMARK VINA RESULT:      -7.1      3.565      8.080
REMARK  Name = 
REMARK  7 active torsions:
REMARK  status: ('A' for Active; 'I' for Inactive)
REMARK    1  A    between atoms: C_1  and  C_2
REMARK    2  A    between atoms: C_7  and  N_8
REMARK    3  A    between atoms: C_9  and  C_11
REMARK    4  A    between atoms: C_14  and  S_15
REMARK    5  A    between atoms: S_15  and  N_18
REMARK    6  A    between atoms: N_18  and  C_19
REMARK    7  A    between atoms: N_18  and  C_20
REMARK                            x       y       z     vdW  Elec       q    Type
REMARK                         _______ _______ _______ _____ _____    ______ ____
ROOT
ATOM      1  C   UNL     1       2.353   7.781  18.658  0.00  0.00    +0.000 A 
ATOM      2  C   UNL     1       1.959   8.838  17.814  0.00  0.00    +0.000 A 
ATOM      3  C   UNL     1       1.133   9.864  18.278  0.00  0.00    +0.000 A 
ATOM      4  C   UNL     1       0.677   9.824  19.594  0.00  0.00    +0.000 A 
ATOM      5  C   UNL     1       1.089   8.798  20.458  0.00  0.00    +0.000 A 
ATOM      6  C   UNL     1       1.919   7.771  19.990  0.00  0.00    +0.000 A 
ENDROOT
BRANCH   1   8
ATOM      7  N   UNL     1       4.397   6.973  17.532  0.00  0.00    +0.000 N 
ATOM      8  C   UNL     1       3.137   6.673  18.040  0.00  0.00    +0.000 C 
ATOM      9  O   UNL     1       2.592   5.574  18.033  0.00  0.00    +0.000 OA
ATOM     10  H   UNL     1       4.682   7.939  17.536  0.00  0.00    +0.000 HD
BRANCH   7  17
ATOM     11  C   UNL     1       6.346   5.405  19.126  0.00  0.00    +0.000 C 
ATOM     12  C   UNL     1       6.240   5.344  17.627  0.00  0.00    +0.000 A 
ATOM     13  C   UNL     1       7.180   4.535  16.951  0.00  0.00    +0.000 A 
ATOM     14  C   UNL     1       7.136   4.376  15.569  0.00  0.00    +0.000 A 
ATOM     15  C   UNL     1       6.149   5.020  14.842  0.00  0.00    +0.000 A 
ATOM     16  C   UNL     1       5.237   5.854  15.492  0.00  0.00    +0.000 A 
ATOM     17  C   UNL     1       5.277   6.061  16.880  0.00  0.00    +0.000 A 
ENDBRANCH   7  17
ENDBRANCH   1   8
BRANCH   4  18
ATOM     18  S   UNL     1      -0.395  11.117  20.197  0.00  0.00    +0.000 S 
ATOM     19  O   UNL     1      -1.603  11.063  19.398  0.00  0.00    +0.000 OA
ATOM     20  O   UNL     1      -0.446  11.005  21.636  0.00  0.00    +0.000 OA
BRANCH  18  21
ATOM     21  N   UNL     1       0.442  12.541  19.790  0.00  0.00    +0.000 NA
ATOM     22  C   UNL     1      -0.157  13.409  18.763  0.00  0.00    +0.000 C 
ATOM     23  C   UNL     1       1.062  13.289  20.896  0.00  0.00    +0.000 C 
ENDBRANCH  18  21
ENDBRANCH   4  18
TORSDOF 4
ENDMDL
MODEL 7
REMARK VINA RESULT:      -7.1      3.268      4.100
REMARK  Name = 
REMARK  7 active torsions:
REMARK  status: ('A' for Active; 'I' for Inactive)
REMARK    1  A    between atoms: C_1  and  C_2
REMARK    2  A    between atoms: C_7  and  N_8
REMARK    3  A    between atoms: C_9  and  C_11
REMARK    4  A    between atoms: C_14  and  S_15
REMARK    5  A    between atoms: S_15  and  N_18
REMARK    6  A    between atoms: N_18  and  C_19
REMARK    7  A    between atoms: N_18  and  C_20
REMARK                            x       y       z     vdW  Elec       q    Type
REMARK                         _______ _______ _______ _____ _____    ______ ____
ROOT
ATOM      1  C   UNL     1       3.346   6.365  19.192  0.00  0.00    +0.000 A 
ATOM      2  C   UNL     1       3.655   6.993  17.969  0.00  0.00    +0.000 A 
ATOM      3  C   UNL     1       4.775   6.615  17.226  0.00  0.00    +0.000 A 
ATOM      4  C   UNL     1       5.609   5.613  17.719  0.00  0.00    +0.000 A 
ATOM      5  C   UNL     1       5.296   4.953  18.917  0.00  0.00    +0.000 A 
ATOM      6  C   UNL     1       4.169   5.334  19.660  0.00  0.00    +0.000 A 
ENDROOT
BRANCH   1   8
ATOM      7  N   UNL     1       2.059   8.299  20.031  0.00  0.00    +0.000 N 
ATOM      8  C   UNL     1       2.198   6.917  19.968  0.00  0.00    +0.000 C 
ATOM      9  O   UNL     1       1.464   6.087  20.495  0.00  0.00    +0.000 OA
ATOM     10  H   UNL     1       2.787   8.859  19.615  0.00  0.00    +0.000 HD
BRANCH   7  17
ATOM     11  C   UNL     1       0.152  10.034  18.563  0.00  0.00    +0.000 C 
ATOM     12  C   UNL     1       0.168   9.874  20.059  0.00  0.00    +0.000 A 
ATOM     13  C   UNL     1      -0.746  10.659  20.795  0.00  0.00    +0.000 A 
ATOM     14  C   UNL     1      -0.842  10.550  22.179  0.00  0.00    +0.000 A 
ATOM     15  C   UNL     1      -0.028   9.651  22.848  0.00  0.00    +0.000 A 
ATOM     16  C   UNL     1       0.908   8.896  22.137  0.00  0.00    +0.000 A 
ATOM     17  C   UNL     1       1.051   9.010  20.746  0.00  0.00    +0.000 A 
ENDBRANCH   7  17
ENDBRANCH   1   8
BRANCH   4  18
ATOM     18  S   UNL     1       7.056   5.133  16.792  0.00  0.00    +0.000 S 
ATOM     19  O   UNL     1       7.545   6.327  16.133  0.00  0.00    +0.000 OA
ATOM     20  O   UNL     1       7.904   4.365  17.675  0.00  0.00    +0.000 OA
BRANCH  18  21
ATOM     21  N   UNL     1       6.428   4.094  15.599  0.00  0.00    +0.000 NA
ATOM     22  C   UNL     1       5.121   3.470  15.863  0.00  0.00    +0.000 C 
ATOM     23  C   UNL     1       6.605   4.506  14.196  0.00  0.00    +0.000 C 
ENDBRANCH  18  21
ENDBRANCH   4  18
TORSDOF 4
ENDMDL
MODEL 8
REMARK VINA RESULT:      -7.1      1.704      1.951
REMARK  Name = 
REMARK  7 active torsions:
REMARK  status: ('A' for Active; 'I' for Inactive)
REMARK    1  A    between atoms: C_1  and  C_2
REMARK    2  A    between atoms: C_7  and  N_8
REMARK    3  A    between atoms: C_9  and  C_11
REMARK    4  A    between atoms: C_14  and  S_15
REMARK    5  A    between atoms: S_15  and  N_18
REMARK    6  A    between atoms: N_18  and  C_19
REMARK    7  A    between atoms: N_18  and  C_20
REMARK                            x       y       z     vdW  Elec       q    Type
REMARK                         _______ _______ _______ _____ _____    ______ ____
ROOT
ATOM      1  C   UNL     1       2.561   8.089  18.361  0.00  0.00    +0.000 A 
ATOM      2  C   UNL     1       2.335   7.116  19.355  0.00  0.00    +0.000 A 
ATOM      3  C   UNL     1       3.005   5.892  19.333  0.00  0.00    +0.000 A 
ATOM      4  C   UNL     1       3.894   5.625  18.294  0.00  0.00    +0.000 A 
ATOM      5  C   UNL     1       4.158   6.596  17.317  0.00  0.00    +0.000 A 
ATOM      6  C   UNL     1       3.486   7.825  17.343  0.00  0.00    +0.000 A 
ENDROOT
BRANCH   1   8
ATOM      7  N   UNL     1       0.648   9.339  19.298  0.00  0.00    +0.000 N 
ATOM      8  C   UNL     1       1.713   9.316  18.404  0.00  0.00    +0.000 C 
ATOM      9  O   UNL     1       2.036  10.213  17.633  0.00  0.00    +0.000 OA
ATOM     10  H   UNL     1       0.455   8.495  19.814  0.00  0.00    +0.000 HD
BRANCH   7  17
ATOM     11  C   UNL     1      -1.506   9.730  17.297  0.00  0.00    +0.000 C 
ATOM     12  C   UNL     1      -1.289  10.623  18.488  0.00  0.00    +0.000 A 
ATOM     13  C   UNL     1      -2.132  11.750  18.605  0.00  0.00    +0.000 A 
ATOM     14  C   UNL     1      -2.043  12.610  19.695  0.00  0.00    +0.000 A 
ATOM     15  C   UNL     1      -1.111  12.356  20.687  0.00  0.00    +0.000 A 
ATOM     16  C   UNL     1      -0.243  11.267  20.565  0.00  0.00    +0.000 A 
ATOM     17  C   UNL     1      -0.288  10.402  19.461  0.00  0.00    +0.000 A 
ENDBRANCH   7  17
ENDBRANCH   1   8
BRANCH   4  18
ATOM     18  S   UNL     1       4.743   4.056  18.239  0.00  0.00    +0.000 S 
ATOM     19  O   UNL     1       4.911   3.721  16.840  0.00  0.00    +0.000 OA
ATOM     20  O   UNL     1       5.879   4.144  19.129  0.00  0.00    +0.000 OA
BRANCH  18  21
ATOM     21  N   UNL     1       3.611   2.975  18.907  0.00  0.00    +0.000 NA
ATOM     22  C   UNL     1       2.950   2.033  17.988  0.00  0.00    +0.000 C 
ATOM     23  C   UNL     1       3.947   2.378  20.210  0.00  0.00    +0.000 C 
ENDBRANCH  18  21
ENDBRANCH   4  18
TORSDOF 4
ENDMDL
MODEL 9
REMARK VINA RESULT:      -7.1      1.971      2.625
REMARK  Name = 
REMARK  7 active torsions:
REMARK  status: ('A' for Active; 'I' for Inactive)
REMARK    1  A    between atoms: C_1  and  C_2
REMARK    2  A    between atoms: C_7  and  N_8
REMARK    3  A    between atoms: C_9  and  C_11
REMARK    4  A    between atoms: C_14  and  S_15
REMARK    5  A    between atoms: S_15  and  N_18
REMARK    6  A    between atoms: N_18  and  C_19
REMARK    7  A    between atoms: N_18  and  C_20
REMARK                            x       y       z     vdW  Elec       q    Type
REMARK                         _______ _______ _______ _____ _____    ______ ____
ROOT
ATOM      1  C   UNL     1       2.205   7.551  19.247  0.00  0.00    +0.000 A 
ATOM      2  C   UNL     1       2.965   7.510  18.061  0.00  0.00    +0.000 A 
ATOM      3  C   UNL     1       3.733   6.391  17.732  0.00  0.00    +0.000 A 
ATOM      4  C   UNL     1       3.760   5.308  18.608  0.00  0.00    +0.000 A 
ATOM      5  C   UNL     1       2.982   5.317  19.776  0.00  0.00    +0.000 A 
ATOM      6  C   UNL     1       2.211   6.441  20.101  0.00  0.00    +0.000 A 
ENDROOT
BRANCH   1   8
ATOM      7  N   UNL     1       1.369   9.767  18.547  0.00  0.00    +0.000 N 
ATOM      8  C   UNL     1       1.513   8.832  19.567  0.00  0.00    +0.000 C 
ATOM      9  O   UNL     1       1.124   8.952  20.724  0.00  0.00    +0.000 OA
ATOM     10  H   UNL     1       1.812   9.564  17.664  0.00  0.00    +0.000 HD
BRANCH   7  17
ATOM     11  C   UNL     1      -1.525  10.103  17.993  0.00  0.00    +0.000 C 
ATOM     12  C   UNL     1      -0.599  11.231  18.360  0.00  0.00    +0.000 A 
ATOM     13  C   UNL     1      -1.150  12.532  18.370  0.00  0.00    +0.000 A 
ATOM     14  C   UNL     1      -0.389  13.636  18.742  0.00  0.00    +0.000 A 
ATOM     15  C   UNL     1       0.933  13.456  19.112  0.00  0.00    +0.000 A 
ATOM     16  C   UNL     1       1.502  12.181  19.070  0.00  0.00    +0.000 A 
ATOM     17  C   UNL     1       0.769  11.054  18.667  0.00  0.00    +0.000 A 
ENDBRANCH   7  17
ENDBRANCH   1   8
BRANCH   4  18
ATOM     18  S   UNL     1       4.753   3.878  18.214  0.00  0.00    +0.000 S 
ATOM     19  O   UNL     1       5.423   3.485  19.437  0.00  0.00    +0.000 OA
ATOM     20  O   UNL     1       3.913   2.951  17.490  0.00  0.00    +0.000 OA
BRANCH  18  21
ATOM     21  N   UNL     1       5.926   4.498  17.148  0.00  0.00    +0.000 NA
ATOM     22  C   UNL     1       7.283   4.704  17.679  0.00  0.00    +0.000 C 
ATOM     23  C   UNL     1       5.912   3.982  15.768  0.00  0.00    +0.000 C 
ENDBRANCH  18  21
ENDBRANCH   4  18
TORSDOF 4
ENDMDL
