MODEL 1
REMARK VINA RESULT:      -7.9      0.000      0.000
REMARK  Name = 
REMARK  10 active torsions:
REMARK  status: ('A' for Active; 'I' for Inactive)
REMARK    1  A    between atoms: C_1  and  C_2
REMARK    2  A    between atoms: C_2  and  N_3
REMARK    3  A    between atoms: N_3  and  C_4
REMARK    4  A    between atoms: C_4  and  C_5
REMARK    5  A    between atoms: N_7  and  C_8
REMARK    6  A    between atoms: C_16  and  C_18
REMARK    7  A    between atoms: C_18  and  N_19
REMARK    8  A    between atoms: N_19  and  C_20
REMARK    9  A    between atoms: N_19  and  S_21
REMARK   10  A    between atoms: S_21  and  C_24
REMARK                            x       y       z     vdW  Elec       q    Type
REMARK                         _______ _______ _______ _____ _____    ______ ____
ROOT
ATOM      1  N   UNL     1       3.091   3.809  19.218  0.00  0.00    +0.000 N 
ATOM      2  C   UNL     1       4.106   3.625  18.277  0.00  0.00    +0.000 C 
ATOM      3  O   UNL     1       3.996   2.788  17.375  0.00  0.00    +0.000 OA
ENDROOT
BRANCH   1   5
ATOM      4  C   UNL     1       1.332   2.263  20.097  0.00  0.00    +0.000 C 
ATOM      5  C   UNL     1       1.811   3.143  18.956  0.00  0.00    +0.000 C 
ENDBRANCH   1   5
BRANCH   1   6
ATOM      6  C   UNL     1       3.111   4.832  20.270  0.00  0.00    +0.000 C 
BRANCH   6   7
ATOM      7  C   UNL     1       2.114   6.000  20.248  0.00  0.00    +0.000 C 
ATOM      8  O   UNL     1       0.927   5.771  20.496  0.00  0.00    +0.000 OA
ATOM      9  N   UNL     1       2.589   7.237  19.850  0.00  0.00    +0.000 N 
ATOM     10  H   UNL     1       3.351   7.216  19.181  0.00  0.00    +0.000 HD
BRANCH   9  11
ATOM     11  C   UNL     1       1.698   8.342  19.785  0.00  0.00    +0.000 A 
ATOM     12  C   UNL     1       1.034   8.841  20.914  0.00  0.00    +0.000 A 
ATOM     13  F   UNL     1       1.365   8.410  22.140  0.00  0.00    +0.000 F 
ATOM     14  C   UNL     1       0.067   9.835  20.805  0.00  0.00    +0.000 A 
ATOM     15  C   UNL     1      -0.260  10.351  19.548  0.00  0.00    +0.000 A 
ATOM     16  C   UNL     1       0.430   9.902  18.422  0.00  0.00    +0.000 A 
ATOM     17  C   UNL     1       1.418   8.925  18.550  0.00  0.00    +0.000 A 
ATOM     18  F   UNL     1       2.056   8.489  17.450  0.00  0.00    +0.000 F 
ENDBRANCH   9  11
ENDBRANCH   6   7
ENDBRANCH   1   6
BRANCH   2  19
ATOM     19  C   UNL     1       5.364   4.490  18.335  0.00  0.00    +0.000 C 
BRANCH  19  20
ATOM     20  N   UNL     1       5.544   5.388  17.157  0.00  0.00    +0.000 NA
ATOM     21  C   UNL     1       5.044   6.764  17.429  0.00  0.00    +0.000 C 
BRANCH  20  22
ATOM     22  S   UNL     1       7.166   5.420  16.563  0.00  0.00    +0.000 S 
ATOM     23  O   UNL     1       7.580   6.799  16.487  0.00  0.00    +0.000 OA
ATOM     24  O   UNL     1       7.914   4.444  17.329  0.00  0.00    +0.000 OA
BRANCH  22  25
ATOM     25  C   UNL     1       7.028   4.825  14.891  0.00  0.00    +0.000 A 
ATOM     26  C   UNL     1       6.073   3.842  14.595  0.00  0.00    +0.000 A 
ATOM     27  C   UNL     1       5.915   3.413  13.276  0.00  0.00    +0.000 A 
ATOM     28  C   UNL     1       6.687   3.983  12.268  0.00  0.00    +0.000 A 
ATOM     29  F   UNL     1       6.518   3.581  11.002  0.00  0.00    +0.000 F 
ATOM     30  C   UNL     1       7.623   4.973  12.552  0.00  0.00    +0.000 A 
ATOM     31  C   UNL     1       7.800   5.398  13.871  0.00  0.00    +0.000 A 
ENDBRANCH  22  25
ENDBRANCH  20  22
ENDBRANCH  19  20
ENDBRANCH   2  19
TORSDOF 8
ENDMDL
MODEL 2
REMARK VINA RESULT:      -7.8      1.058      1.155
REMARK  Name = 
REMARK  10 active torsions:
REMARK  status: ('A' for Active; 'I' for Inactive)
REMARK    1  A    between atoms: C_1  and  C_2
REMARK    2  A    between atoms: C_2  and  N_3
REMARK    3  A    between atoms: N_3  and  C_4
REMARK    4  A    between atoms: C_4  and  C_5
REMARK    5  A    between atoms: N_7  and  C_8
REMARK    6  A    between atoms: C_16  and  C_18
REMARK    7  A    between atoms: C_18  and  N_19
REMARK    8  A    between atoms: N_19  and  C_20
REMARK    9  A    between atoms: N_19  and  S_21
REMARK   10  A    between atoms: S_21  and  C_24
REMARK                            x       y       z     vdW  Elec       q    Type
REMARK                         _______ _______ _______ _____ _____    ______ ____
ROOT
ATOM      1  N   UNL     1       2.723   3.015  20.219  0.00  0.00    +0.000 N 
ATOM      2  C   UNL     1       3.643   2.608  19.250  0.00  0.00    +0.000 C 
ATOM      3  O   UNL     1       3.467   1.575  18.596  0.00  0.00    +0.000 OA
ENDROOT
BRANCH   1   5
ATOM      4  C   UNL     1       0.621   2.436  18.995  0.00  0.00    +0.000 C 
ATOM      5  C   UNL     1       1.443   2.301  20.263  0.00  0.00    +0.000 C 
ENDBRANCH   1   5
BRANCH   1   6
ATOM      6  C   UNL     1       2.820   4.265  20.982  0.00  0.00    +0.000 C 
BRANCH   6   7
ATOM      7  C   UNL     1       2.023   5.507  20.556  0.00  0.00    +0.000 C 
ATOM      8  O   UNL     1       0.798   5.414  20.439  0.00  0.00    +0.000 OA
ATOM      9  N   UNL     1       2.740   6.644  20.229  0.00  0.00    +0.000 N 
ATOM     10  H   UNL     1       3.660   6.481  19.835  0.00  0.00    +0.000 HD
BRANCH   9  11
ATOM     11  C   UNL     1       2.049   7.810  19.801  0.00  0.00    +0.000 A 
ATOM     12  C   UNL     1       1.223   8.552  20.657  0.00  0.00    +0.000 A 
ATOM     13  F   UNL     1       1.207   8.295  21.973  0.00  0.00    +0.000 F 
ATOM     14  C   UNL     1       0.453   9.609  20.183  0.00  0.00    +0.000 A 
ATOM     15  C   UNL     1       0.493   9.944  18.827  0.00  0.00    +0.000 A 
ATOM     16  C   UNL     1       1.349   9.248  17.974  0.00  0.00    +0.000 A 
ATOM     17  C   UNL     1       2.138   8.209  18.468  0.00  0.00    +0.000 A 
ATOM     18  F   UNL     1       2.940   7.536  17.625  0.00  0.00    +0.000 F 
ENDBRANCH   9  11
ENDBRANCH   6   7
ENDBRANCH   1   6
BRANCH   2  19
ATOM     19  C   UNL     1       4.876   3.465  18.963  0.00  0.00    +0.000 C 
BRANCH  19  20
ATOM     20  N   UNL     1       4.933   4.007  17.573  0.00  0.00    +0.000 NA
ATOM     21  C   UNL     1       3.707   4.779  17.229  0.00  0.00    +0.000 C 
BRANCH  20  22
ATOM     22  S   UNL     1       6.360   4.930  17.259  0.00  0.00    +0.000 S 
ATOM     23  O   UNL     1       6.028   6.324  17.426  0.00  0.00    +0.000 OA
ATOM     24  O   UNL     1       7.435   4.311  18.007  0.00  0.00    +0.000 OA
BRANCH  22  25
ATOM     25  C   UNL     1       6.669   4.673  15.525  0.00  0.00    +0.000 A 
ATOM     26  C   UNL     1       5.878   3.754  14.822  0.00  0.00    +0.000 A 
ATOM     27  C   UNL     1       6.073   3.590  13.449  0.00  0.00    +0.000 A 
ATOM     28  C   UNL     1       7.029   4.357  12.791  0.00  0.00    +0.000 A 
ATOM     29  F   UNL     1       7.198   4.209  11.471  0.00  0.00    +0.000 F 
ATOM     30  C   UNL     1       7.805   5.285  13.480  0.00  0.00    +0.000 A 
ATOM     31  C   UNL     1       7.629   5.445  14.857  0.00  0.00    +0.000 A 
ENDBRANCH  22  25
ENDBRANCH  20  22
ENDBRANCH  19  20
ENDBRANCH   2  19
TORSDOF 8
ENDMDL
MODEL 3
REMARK VINA RESULT:      -7.5      0.468      1.573
REMARK  Name = 
REMARK  10 active torsions:
REMARK  status: ('A' for Active; 'I' for Inactive)
REMARK    1  A    between atoms: C_1  and  C_2
REMARK    2  A    between atoms: C_2  and  N_3
REMARK    3  A    between atoms: N_3  and  C_4
REMARK    4  A    between atoms: C_4  and  C_5
REMARK    5  A    between atoms: N_7  and  C_8
REMARK    6  A    between atoms: C_16  and  C_18
REMARK    7  A    between atoms: C_18  and  N_19
REMARK    8  A    between atoms: N_19  and  C_20
REMARK    9  A    between atoms: N_19  and  S_21
REMARK   10  A    between atoms: S_21  and  C_24
REMARK                            x       y       z     vdW  Elec       q    Type
REMARK                         _______ _______ _______ _____ _____    ______ ____
ROOT
ATOM      1  N   UNL     1       2.943   3.901  19.352  0.00  0.00    +0.000 N 
ATOM      2  C   UNL     1       3.806   4.100  18.272  0.00  0.00    +0.000 C 
ATOM      3  O   UNL     1       3.807   3.329  17.306  0.00  0.00    +0.000 OA
ENDROOT
BRANCH   1   5
ATOM      4  C   UNL     1       1.167   2.547  20.477  0.00  0.00    +0.000 C 
ATOM      5  C   UNL     1       1.892   2.892  19.189  0.00  0.00    +0.000 C 
ENDBRANCH   1   5
BRANCH   1   6
ATOM      6  C   UNL     1       2.827   4.811  20.498  0.00  0.00    +0.000 C 
BRANCH   6   7
ATOM      7  C   UNL     1       1.916   6.045  20.430  0.00  0.00    +0.000 C 
ATOM      8  O   UNL     1       0.701   5.895  20.592  0.00  0.00    +0.000 OA
ATOM      9  N   UNL     1       2.499   7.252  20.089  0.00  0.00    +0.000 N 
ATOM     10  H   UNL     1       3.302   7.189  19.474  0.00  0.00    +0.000 HD
BRANCH   9  11
ATOM     11  C   UNL     1       1.692   8.417  19.985  0.00  0.00    +0.000 A 
ATOM     12  C   UNL     1       1.386   9.011  18.752  0.00  0.00    +0.000 A 
ATOM     13  F   UNL     1       1.687   8.386  17.605  0.00  0.00    +0.000 F 
ATOM     14  C   UNL     1       0.708  10.224  18.682  0.00  0.00    +0.000 A 
ATOM     15  C   UNL     1       0.324  10.874  19.859  0.00  0.00    +0.000 A 
ATOM     16  C   UNL     1       0.576  10.269  21.090  0.00  0.00    +0.000 A 
ATOM     17  C   UNL     1       1.231   9.038  21.144  0.00  0.00    +0.000 A 
ATOM     18  F   UNL     1       1.484   8.482  22.342  0.00  0.00    +0.000 F 
ENDBRANCH   9  11
ENDBRANCH   6   7
ENDBRANCH   1   6
BRANCH   2  19
ATOM     19  C   UNL     1       4.746   5.304  18.259  0.00  0.00    +0.000 C 
BRANCH  19  20
ATOM     20  N   UNL     1       5.190   5.719  16.895  0.00  0.00    +0.000 NA
ATOM     21  C   UNL     1       4.817   7.129  16.597  0.00  0.00    +0.000 C 
BRANCH  20  22
ATOM     22  S   UNL     1       6.873   5.446  16.613  0.00  0.00    +0.000 S 
ATOM     23  O   UNL     1       7.539   6.724  16.658  0.00  0.00    +0.000 OA
ATOM     24  O   UNL     1       7.272   4.351  17.474  0.00  0.00    +0.000 OA
BRANCH  22  25
ATOM     25  C   UNL     1       6.944   4.881  14.926  0.00  0.00    +0.000 A 
ATOM     26  C   UNL     1       6.038   3.900  14.499  0.00  0.00    +0.000 A 
ATOM     27  C   UNL     1       6.046   3.494  13.163  0.00  0.00    +0.000 A 
ATOM     28  C   UNL     1       6.931   4.085  12.268  0.00  0.00    +0.000 A 
ATOM     29  F   UNL     1       6.921   3.705  10.983  0.00  0.00    +0.000 F 
ATOM     30  C   UNL     1       7.820   5.074  12.681  0.00  0.00    +0.000 A 
ATOM     31  C   UNL     1       7.832   5.475  14.020  0.00  0.00    +0.000 A 
ENDBRANCH  22  25
ENDBRANCH  20  22
ENDBRANCH  19  20
ENDBRANCH   2  19
TORSDOF 8
ENDMDL
MODEL 4
REMARK VINA RESULT:      -7.4      3.000      4.411
REMARK  Name = 
REMARK  10 active torsions:
REMARK  status: ('A' for Active; 'I' for Inactive)
REMARK    1  A    between atoms: C_1  and  C_2
REMARK    2  A    between atoms: C_2  and  N_3
REMARK    3  A    between atoms: N_3  and  C_4
REMARK    4  A    between atoms: C_4  and  C_5
REMARK    5  A    between atoms: N_7  and  C_8
REMARK    6  A    between atoms: C_16  and  C_18
REMARK    7  A    between atoms: C_18  and  N_19
REMARK    8  A    between atoms: N_19  and  C_20
REMARK    9  A    between atoms: N_19  and  S_21
REMARK   10  A    between atoms: S_21  and  C_24
REMARK                            x       y       z     vdW  Elec       q    Type
REMARK                         _______ _______ _______ _____ _____    ______ ____
ROOT
ATOM      1  N   UNL     1       2.110   6.892  19.245  0.00  0.00    +0.000 N 
ATOM      2  C   UNL     1       2.056   5.604  18.707  0.00  0.00    +0.000 C 
ATOM      3  O   UNL     1       2.292   5.401  17.512  0.00  0.00    +0.000 OA
ENDROOT
BRANCH   1   5
ATOM      4  C   UNL     1       1.639   8.849  17.760  0.00  0.00    +0.000 C 
ATOM      5  C   UNL     1       2.679   7.944  18.396  0.00  0.00    +0.000 C 
ENDBRANCH   1   5
BRANCH   1   6
ATOM      6  C   UNL     1       1.920   7.206  20.666  0.00  0.00    +0.000 C 
BRANCH   6   7
ATOM      7  C   UNL     1       0.810   8.168  21.115  0.00  0.00    +0.000 C 
ATOM      8  O   UNL     1      -0.344   7.740  21.205  0.00  0.00    +0.000 OA
ATOM      9  N   UNL     1       1.151   9.496  21.297  0.00  0.00    +0.000 N 
ATOM     10  H   UNL     1       1.902   9.838  20.707  0.00  0.00    +0.000 HD
BRANCH   9  11
ATOM     11  C   UNL     1       0.153  10.430  21.684  0.00  0.00    +0.000 A 
ATOM     12  C   UNL     1      -0.487  10.375  22.929  0.00  0.00    +0.000 A 
ATOM     13  F   UNL     1      -0.041   9.546  23.884  0.00  0.00    +0.000 F 
ATOM     14  C   UNL     1      -1.554  11.215  23.233  0.00  0.00    +0.000 A 
ATOM     15  C   UNL     1      -2.006  12.135  22.283  0.00  0.00    +0.000 A 
ATOM     16  C   UNL     1      -1.345  12.237  21.059  0.00  0.00    +0.000 A 
ATOM     17  C   UNL     1      -0.258  11.408  20.778  0.00  0.00    +0.000 A 
ATOM     18  F   UNL     1       0.351  11.506  19.585  0.00  0.00    +0.000 F 
ENDBRANCH   9  11
ENDBRANCH   6   7
ENDBRANCH   1   6
BRANCH   2  19
ATOM     19  C   UNL     1       1.732   4.415  19.610  0.00  0.00    +0.000 C 
BRANCH  19  20
ATOM     20  N   UNL     1       2.905   3.883  20.366  0.00  0.00    +0.000 NA
ATOM     21  C   UNL     1       2.489   3.196  21.620  0.00  0.00    +0.000 C 
BRANCH  20  22
ATOM     22  S   UNL     1       3.930   2.872  19.411  0.00  0.00    +0.000 S 
ATOM     23  O   UNL     1       4.755   2.106  20.312  0.00  0.00    +0.000 OA
ATOM     24  O   UNL     1       3.088   2.232  18.422  0.00  0.00    +0.000 OA
BRANCH  22  25
ATOM     25  C   UNL     1       5.004   4.016  18.570  0.00  0.00    +0.000 A 
ATOM     26  C   UNL     1       5.706   4.969  19.321  0.00  0.00    +0.000 A 
ATOM     27  C   UNL     1       6.597   5.830  18.678  0.00  0.00    +0.000 A 
ATOM     28  C   UNL     1       6.797   5.717  17.306  0.00  0.00    +0.000 A 
ATOM     29  F   UNL     1       7.667   6.533  16.697  0.00  0.00    +0.000 F 
ATOM     30  C   UNL     1       6.118   4.760  16.556  0.00  0.00    +0.000 A 
ATOM     31  C   UNL     1       5.212   3.904  17.188  0.00  0.00    +0.000 A 
ENDBRANCH  22  25
ENDBRANCH  20  22
ENDBRANCH  19  20
ENDBRANCH   2  19
TORSDOF 8
ENDMDL
MODEL 5
REMARK VINA RESULT:      -7.4      3.003      4.650
REMARK  Name = 
REMARK  10 active torsions:
REMARK  status: ('A' for Active; 'I' for Inactive)
REMARK    1  A    between atoms: C_1  and  C_2
REMARK    2  A    between atoms: C_2  and  N_3
REMARK    3  A    between atoms: N_3  and  C_4
REMARK    4  A    between atoms: C_4  and  C_5
REMARK    5  A    between atoms: N_7  and  C_8
REMARK    6  A    between atoms: C_16  and  C_18
REMARK    7  A    between atoms: C_18  and  N_19
REMARK    8  A    between atoms: N_19  and  C_20
REMARK    9  A    between atoms: N_19  and  S_21
REMARK   10  A    between atoms: S_21  and  C_24
REMARK                            x       y       z     vdW  Elec       q    Type
REMARK                         _______ _______ _______ _____ _____    ______ ____
ROOT
ATOM      1  N   UNL     1       2.095   6.853  19.265  0.00  0.00    +0.000 N 
ATOM      2  C   UNL     1       2.078   5.564  18.729  0.00  0.00    +0.000 C 
ATOM      3  O   UNL     1       2.351   5.363  17.541  0.00  0.00    +0.000 OA
ENDROOT
BRANCH   1   5
ATOM      4  C   UNL     1       1.635   8.770  17.726  0.00  0.00    +0.000 C 
ATOM      5  C   UNL     1       2.671   7.914  18.432  0.00  0.00    +0.000 C 
ENDBRANCH   1   5
BRANCH   1   6
ATOM      6  C   UNL     1       1.858   7.166  20.680  0.00  0.00    +0.000 C 
BRANCH   6   7
ATOM      7  C   UNL     1       0.686   8.064  21.099  0.00  0.00    +0.000 C 
ATOM      8  O   UNL     1      -0.425   7.551  21.264  0.00  0.00    +0.000 OA
ATOM      9  N   UNL     1       0.918   9.426  21.171  0.00  0.00    +0.000 N 
ATOM     10  H   UNL     1       1.617   9.783  20.529  0.00  0.00    +0.000 HD
BRANCH   9  11
ATOM     11  C   UNL     1      -0.144  10.301  21.526  0.00  0.00    +0.000 A 
ATOM     12  C   UNL     1      -0.782  11.127  20.590  0.00  0.00    +0.000 A 
ATOM     13  F   UNL     1      -0.540  10.979  19.279  0.00  0.00    +0.000 F 
ATOM     14  C   UNL     1      -1.725  12.071  20.982  0.00  0.00    +0.000 A 
ATOM     15  C   UNL     1      -2.047  12.211  22.335  0.00  0.00    +0.000 A 
ATOM     16  C   UNL     1      -1.459  11.361  23.271  0.00  0.00    +0.000 A 
ATOM     17  C   UNL     1      -0.536  10.398  22.860  0.00  0.00    +0.000 A 
ATOM     18  F   UNL     1       0.037   9.603  23.780  0.00  0.00    +0.000 F 
ENDBRANCH   9  11
ENDBRANCH   6   7
ENDBRANCH   1   6
BRANCH   2  19
ATOM     19  C   UNL     1       1.748   4.371  19.624  0.00  0.00    +0.000 C 
BRANCH  19  20
ATOM     20  N   UNL     1       2.912   3.843  20.394  0.00  0.00    +0.000 NA
ATOM     21  C   UNL     1       2.483   3.153  21.642  0.00  0.00    +0.000 C 
BRANCH  20  22
ATOM     22  S   UNL     1       3.954   2.837  19.452  0.00  0.00    +0.000 S 
ATOM     23  O   UNL     1       4.778   2.081  20.363  0.00  0.00    +0.000 OA
ATOM     24  O   UNL     1       3.125   2.185  18.459  0.00  0.00    +0.000 OA
BRANCH  22  25
ATOM     25  C   UNL     1       5.024   3.986  18.613  0.00  0.00    +0.000 A 
ATOM     26  C   UNL     1       5.719   4.942  19.367  0.00  0.00    +0.000 A 
ATOM     27  C   UNL     1       6.608   5.808  18.726  0.00  0.00    +0.000 A 
ATOM     28  C   UNL     1       6.812   5.695  17.354  0.00  0.00    +0.000 A 
ATOM     29  F   UNL     1       7.680   6.516  16.748  0.00  0.00    +0.000 F 
ATOM     30  C   UNL     1       6.140   4.736  16.603  0.00  0.00    +0.000 A 
ATOM     31  C   UNL     1       5.236   3.875  17.232  0.00  0.00    +0.000 A 
ENDBRANCH  22  25
ENDBRANCH  20  22
ENDBRANCH  19  20
ENDBRANCH   2  19
TORSDOF 8
ENDMDL
MODEL 6
REMARK VINA RESULT:      -7.3      3.448      8.058
REMARK  Name = 
REMARK  10 active torsions:
REMARK  status: ('A' for Active; 'I' for Inactive)
REMARK    1  A    between atoms: C_1  and  C_2
REMARK    2  A    between atoms: C_2  and  N_3
REMARK    3  A    between atoms: N_3  and  C_4
REMARK    4  A    between atoms: C_4  and  C_5
REMARK    5  A    between atoms: N_7  and  C_8
REMARK    6  A    between atoms: C_16  and  C_18
REMARK    7  A    between atoms: C_18  and  N_19
REMARK    8  A    between atoms: N_19  and  C_20
REMARK    9  A    between atoms: N_19  and  S_21
REMARK   10  A    between atoms: S_21  and  C_24
REMARK                            x       y       z     vdW  Elec       q    Type
REMARK                         _______ _______ _______ _____ _____    ______ ____
ROOT
ATOM      1  N   UNL     1       7.064   6.690  18.206  0.00  0.00    +0.000 N 
ATOM      2  C   UNL     1       6.759   5.792  19.231  0.00  0.00    +0.000 C 
ATOM      3  O   UNL     1       7.600   5.486  20.082  0.00  0.00    +0.000 OA
ENDROOT
BRANCH   1   5
ATOM      4  C   UNL     1       8.209   8.905  18.012  0.00  0.00    +0.000 C 
ATOM      5  C   UNL     1       8.329   7.423  18.317  0.00  0.00    +0.000 C 
ENDBRANCH   1   5
BRANCH   1   6
ATOM      6  C   UNL     1       6.101   7.163  17.204  0.00  0.00    +0.000 C 
BRANCH   6   7
ATOM      7  C   UNL     1       6.034   6.517  15.813  0.00  0.00    +0.000 C 
ATOM      8  O   UNL     1       5.116   6.839  15.053  0.00  0.00    +0.000 OA
ATOM      9  N   UNL     1       6.956   5.527  15.524  0.00  0.00    +0.000 N 
ATOM     10  H   UNL     1       7.268   4.977  16.317  0.00  0.00    +0.000 HD
BRANCH   9  11
ATOM     11  C   UNL     1       6.916   4.878  14.261  0.00  0.00    +0.000 A 
ATOM     12  C   UNL     1       7.760   5.241  13.202  0.00  0.00    +0.000 A 
ATOM     13  F   UNL     1       8.775   6.092  13.406  0.00  0.00    +0.000 F 
ATOM     14  C   UNL     1       7.612   4.684  11.935  0.00  0.00    +0.000 A 
ATOM     15  C   UNL     1       6.602   3.746  11.702  0.00  0.00    +0.000 A 
ATOM     16  C   UNL     1       5.789   3.338  12.759  0.00  0.00    +0.000 A 
ATOM     17  C   UNL     1       5.967   3.882  14.031  0.00  0.00    +0.000 A 
ATOM     18  F   UNL     1       5.159   3.492  15.031  0.00  0.00    +0.000 F 
ENDBRANCH   9  11
ENDBRANCH   6   7
ENDBRANCH   1   6
BRANCH   2  19
ATOM     19  C   UNL     1       5.355   5.197  19.329  0.00  0.00    +0.000 C 
BRANCH  19  20
ATOM     20  N   UNL     1       4.865   4.572  18.065  0.00  0.00    +0.000 NA
ATOM     21  C   UNL     1       5.298   3.153  17.946  0.00  0.00    +0.000 C 
BRANCH  20  22
ATOM     22  S   UNL     1       3.159   4.725  17.846  0.00  0.00    +0.000 S 
ATOM     23  O   UNL     1       2.825   6.124  17.945  0.00  0.00    +0.000 OA
ATOM     24  O   UNL     1       2.813   3.943  16.677  0.00  0.00    +0.000 OA
BRANCH  22  25
ATOM     25  C   UNL     1       2.464   3.922  19.276  0.00  0.00    +0.000 A 
ATOM     26  C   UNL     1       2.630   4.514  20.535  0.00  0.00    +0.000 A 
ATOM     27  C   UNL     1       2.038   3.925  21.654  0.00  0.00    +0.000 A 
ATOM     28  C   UNL     1       1.271   2.774  21.503  0.00  0.00    +0.000 A 
ATOM     29  F   UNL     1       0.689   2.224  22.577  0.00  0.00    +0.000 F 
ATOM     30  C   UNL     1       1.086   2.192  20.252  0.00  0.00    +0.000 A 
ATOM     31  C   UNL     1       1.688   2.764  19.128  0.00  0.00    +0.000 A 
ENDBRANCH  22  25
ENDBRANCH  20  22
ENDBRANCH  19  20
ENDBRANCH   2  19
TORSDOF 8
ENDMDL
MODEL 7
REMARK VINA RESULT:      -7.3      2.628      3.213
REMARK  Name = 
REMARK  10 active torsions:
REMARK  status: ('A' for Active; 'I' for Inactive)
REMARK    1  A    between atoms: C_1  and  C_2
REMARK    2  A    between atoms: C_2  and  N_3
REMARK    3  A    between atoms: N_3  and  C_4
REMARK    4  A    between atoms: C_4  and  C_5
REMARK    5  A    between atoms: N_7  and  C_8
REMARK    6  A    between atoms: C_16  and  C_18
REMARK    7  A    between atoms: C_18  and  N_19
REMARK    8  A    between atoms: N_19  and  C_20
REMARK    9  A    between atoms: N_19  and  S_21
REMARK   10  A    between atoms: S_21  and  C_24
REMARK                            x       y       z     vdW  Elec       q    Type
REMARK                         _______ _______ _______ _____ _____    ______ ____
ROOT
ATOM      1  N   UNL     1       2.845   3.128  20.010  0.00  0.00    +0.000 N 
ATOM      2  C   UNL     1       3.508   2.621  18.891  0.00  0.00    +0.000 C 
ATOM      3  O   UNL     1       3.184   1.537  18.394  0.00  0.00    +0.000 OA
ENDROOT
BRANCH   1   5
ATOM      4  C   UNL     1       1.397   2.424  21.924  0.00  0.00    +0.000 C 
ATOM      5  C   UNL     1       1.614   2.446  20.421  0.00  0.00    +0.000 C 
ENDBRANCH   1   5
BRANCH   1   6
ATOM      6  C   UNL     1       3.118   4.439  20.612  0.00  0.00    +0.000 C 
BRANCH   6   7
ATOM      7  C   UNL     1       2.189   5.633  20.346  0.00  0.00    +0.000 C 
ATOM      8  O   UNL     1       0.974   5.434  20.272  0.00  0.00    +0.000 OA
ATOM      9  N   UNL     1       2.781   6.860  20.101  0.00  0.00    +0.000 N 
ATOM     10  H   UNL     1       3.690   6.823  19.654  0.00  0.00    +0.000 HD
BRANCH   9  11
ATOM     11  C   UNL     1       1.965   7.989  19.820  0.00  0.00    +0.000 A 
ATOM     12  C   UNL     1       1.138   8.578  20.786  0.00  0.00    +0.000 A 
ATOM     13  F   UNL     1       1.231   8.212  22.073  0.00  0.00    +0.000 F 
ATOM     14  C   UNL     1       0.249   9.595  20.455  0.00  0.00    +0.000 A 
ATOM     15  C   UNL     1       0.168  10.044  19.133  0.00  0.00    +0.000 A 
ATOM     16  C   UNL     1       1.022   9.503  18.172  0.00  0.00    +0.000 A 
ATOM     17  C   UNL     1       1.930   8.503  18.525  0.00  0.00    +0.000 A 
ATOM     18  F   UNL     1       2.728   7.980  17.579  0.00  0.00    +0.000 F 
ENDBRANCH   9  11
ENDBRANCH   6   7
ENDBRANCH   1   6
BRANCH   2  19
ATOM     19  C   UNL     1       4.635   3.425  18.243  0.00  0.00    +0.000 C 
BRANCH  19  20
ATOM     20  N   UNL     1       4.270   4.043  16.934  0.00  0.00    +0.000 NA
ATOM     21  C   UNL     1       3.368   5.214  17.107  0.00  0.00    +0.000 C 
BRANCH  20  22
ATOM     22  S   UNL     1       5.643   4.450  15.967  0.00  0.00    +0.000 S 
ATOM     23  O   UNL     1       6.451   3.264  15.828  0.00  0.00    +0.000 OA
ATOM     24  O   UNL     1       5.145   5.169  14.812  0.00  0.00    +0.000 OA
BRANCH  22  25
ATOM     25  C   UNL     1       6.562   5.591  16.977  0.00  0.00    +0.000 A 
ATOM     26  C   UNL     1       7.322   5.094  18.045  0.00  0.00    +0.000 A 
ATOM     27  C   UNL     1       8.094   5.974  18.806  0.00  0.00    +0.000 A 
ATOM     28  C   UNL     1       8.122   7.326  18.481  0.00  0.00    +0.000 A 
ATOM     29  F   UNL     1       8.880   8.162  19.203  0.00  0.00    +0.000 F 
ATOM     30  C   UNL     1       7.385   7.824  17.410  0.00  0.00    +0.000 A 
ATOM     31  C   UNL     1       6.596   6.954  16.652  0.00  0.00    +0.000 A 
ENDBRANCH  22  25
ENDBRANCH  20  22
ENDBRANCH  19  20
ENDBRANCH   2  19
TORSDOF 8
ENDMDL
MODEL 8
REMARK VINA RESULT:      -7.2      1.466      1.802
REMARK  Name = 
REMARK  10 active torsions:
REMARK  status: ('A' for Active; 'I' for Inactive)
REMARK    1  A    between atoms: C_1  and  C_2
REMARK    2  A    between atoms: C_2  and  N_3
REMARK    3  A    between atoms: N_3  and  C_4
REMARK    4  A    between atoms: C_4  and  C_5
REMARK    5  A    between atoms: N_7  and  C_8
REMARK    6  A    between atoms: C_16  and  C_18
REMARK    7  A    between atoms: C_18  and  N_19
REMARK    8  A    between atoms: N_19  and  C_20
REMARK    9  A    between atoms: N_19  and  S_21
REMARK   10  A    between atoms: S_21  and  C_24
REMARK                            x       y       z     vdW  Elec       q    Type
REMARK                         _______ _______ _______ _____ _____    ______ ____
ROOT
ATOM      1  N   UNL     1       3.163   3.070  19.262  0.00  0.00    +0.000 N 
ATOM      2  C   UNL     1       4.551   2.933  19.196  0.00  0.00    +0.000 C 
ATOM      3  O   UNL     1       5.186   2.407  20.116  0.00  0.00    +0.000 OA
ENDROOT
BRANCH   1   5
ATOM      4  C   UNL     1       1.448   3.208  21.077  0.00  0.00    +0.000 C 
ATOM      5  C   UNL     1       2.475   2.362  20.347  0.00  0.00    +0.000 C 
ENDBRANCH   1   5
BRANCH   1   6
ATOM      6  C   UNL     1       2.331   3.612  18.181  0.00  0.00    +0.000 C 
BRANCH   6   7
ATOM      7  C   UNL     1       1.894   5.084  18.190  0.00  0.00    +0.000 C 
ATOM      8  O   UNL     1       0.998   5.441  17.420  0.00  0.00    +0.000 OA
ATOM      9  N   UNL     1       2.604   5.956  18.996  0.00  0.00    +0.000 N 
ATOM     10  H   UNL     1       3.581   5.723  19.134  0.00  0.00    +0.000 HD
BRANCH   9  11
ATOM     11  C   UNL     1       2.258   7.334  19.015  0.00  0.00    +0.000 A 
ATOM     12  C   UNL     1       1.515   7.907  20.057  0.00  0.00    +0.000 A 
ATOM     13  F   UNL     1       1.266   7.211  21.176  0.00  0.00    +0.000 F 
ATOM     14  C   UNL     1       1.072   9.224  19.990  0.00  0.00    +0.000 A 
ATOM     15  C   UNL     1       1.366   9.999  18.864  0.00  0.00    +0.000 A 
ATOM     16  C   UNL     1       2.148   9.458  17.844  0.00  0.00    +0.000 A 
ATOM     17  C   UNL     1       2.610   8.145  17.938  0.00  0.00    +0.000 A 
ATOM     18  F   UNL     1       3.344   7.635  16.934  0.00  0.00    +0.000 F 
ENDBRANCH   9  11
ENDBRANCH   6   7
ENDBRANCH   1   6
BRANCH   2  19
ATOM     19  C   UNL     1       5.305   3.411  17.955  0.00  0.00    +0.000 C 
BRANCH  19  20
ATOM     20  N   UNL     1       5.654   4.862  17.972  0.00  0.00    +0.000 NA
ATOM     21  C   UNL     1       5.856   5.366  19.358  0.00  0.00    +0.000 C 
BRANCH  20  22
ATOM     22  S   UNL     1       7.001   5.252  16.963  0.00  0.00    +0.000 S 
ATOM     23  O   UNL     1       7.127   6.688  16.932  0.00  0.00    +0.000 OA
ATOM     24  O   UNL     1       8.099   4.403  17.380  0.00  0.00    +0.000 OA
BRANCH  22  25
ATOM     25  C   UNL     1       6.489   4.738  15.338  0.00  0.00    +0.000 A 
ATOM     26  C   UNL     1       7.437   4.702  14.306  0.00  0.00    +0.000 A 
ATOM     27  C   UNL     1       7.059   4.243  13.042  0.00  0.00    +0.000 A 
ATOM     28  C   UNL     1       5.756   3.804  12.829  0.00  0.00    +0.000 A 
ATOM     29  F   UNL     1       5.404   3.347  11.620  0.00  0.00    +0.000 F 
ATOM     30  C   UNL     1       4.815   3.820  13.854  0.00  0.00    +0.000 A 
ATOM     31  C   UNL     1       5.178   4.292  15.118  0.00  0.00    +0.000 A 
ENDBRANCH  22  25
ENDBRANCH  20  22
ENDBRANCH  19  20
ENDBRANCH   2  19
TORSDOF 8
ENDMDL
MODEL 9
REMARK VINA RESULT:      -7.1      1.551      1.752
REMARK  Name = 
REMARK  10 active torsions:
REMARK  status: ('A' for Active; 'I' for Inactive)
REMARK    1  A    between atoms: C_1  and  C_2
REMARK    2  A    between atoms: C_2  and  N_3
REMARK    3  A    between atoms: N_3  and  C_4
REMARK    4  A    between atoms: C_4  and  C_5
REMARK    5  A    between atoms: N_7  and  C_8
REMARK    6  A    between atoms: C_16  and  C_18
REMARK    7  A    between atoms: C_18  and  N_19
REMARK    8  A    between atoms: N_19  and  C_20
REMARK    9  A    between atoms: N_19  and  S_21
REMARK   10  A    between atoms: S_21  and  C_24
REMARK                            x       y       z     vdW  Elec       q    Type
REMARK                         _______ _______ _______ _____ _____    ______ ____
ROOT
ATOM      1  N   UNL     1       2.719   5.367  18.874  0.00  0.00    +0.000 N 
ATOM      2  C   UNL     1       4.068   5.021  18.974  0.00  0.00    +0.000 C 
ATOM      3  O   UNL     1       4.417   3.955  19.492  0.00  0.00    +0.000 OA
ENDROOT
BRANCH   1   5
ATOM      4  C   UNL     1       1.178   4.419  20.600  0.00  0.00    +0.000 C 
ATOM      5  C   UNL     1       1.738   4.325  19.193  0.00  0.00    +0.000 C 
ENDBRANCH   1   5
BRANCH   1   6
ATOM      6  C   UNL     1       2.220   6.575  18.205  0.00  0.00    +0.000 C 
BRANCH   6   7
ATOM      7  C   UNL     1       1.936   7.854  19.005  0.00  0.00    +0.000 C 
ATOM      8  O   UNL     1       2.200   7.871  20.211  0.00  0.00    +0.000 OA
ATOM      9  N   UNL     1       1.301   8.892  18.347  0.00  0.00    +0.000 N 
ATOM     10  H   UNL     1       0.668   8.614  17.605  0.00  0.00    +0.000 HD
BRANCH   9  11
ATOM     11  C   UNL     1       0.990  10.085  19.052  0.00  0.00    +0.000 A 
ATOM     12  C   UNL     1      -0.009  10.139  20.035  0.00  0.00    +0.000 A 
ATOM     13  F   UNL     1      -0.580   9.011  20.483  0.00  0.00    +0.000 F 
ATOM     14  C   UNL     1      -0.388  11.344  20.616  0.00  0.00    +0.000 A 
ATOM     15  C   UNL     1       0.229  12.533  20.216  0.00  0.00    +0.000 A 
ATOM     16  C   UNL     1       1.260  12.488  19.278  0.00  0.00    +0.000 A 
ATOM     17  C   UNL     1       1.651  11.268  18.724  0.00  0.00    +0.000 A 
ATOM     18  F   UNL     1       2.631  11.249  17.805  0.00  0.00    +0.000 F 
ENDBRANCH   9  11
ENDBRANCH   6   7
ENDBRANCH   1   6
BRANCH   2  19
ATOM     19  C   UNL     1       5.138   5.953  18.407  0.00  0.00    +0.000 C 
BRANCH  19  20
ATOM     20  N   UNL     1       5.388   5.780  16.946  0.00  0.00    +0.000 NA
ATOM     21  C   UNL     1       4.839   6.915  16.153  0.00  0.00    +0.000 C 
BRANCH  20  22
ATOM     22  S   UNL     1       7.050   5.500  16.566  0.00  0.00    +0.000 S 
ATOM     23  O   UNL     1       7.713   6.780  16.524  0.00  0.00    +0.000 OA
ATOM     24  O   UNL     1       7.507   4.436  17.436  0.00  0.00    +0.000 OA
BRANCH  22  25
ATOM     25  C   UNL     1       7.015   4.878  14.898  0.00  0.00    +0.000 A 
ATOM     26  C   UNL     1       6.099   3.869  14.568  0.00  0.00    +0.000 A 
ATOM     27  C   UNL     1       6.021   3.417  13.249  0.00  0.00    +0.000 A 
ATOM     28  C   UNL     1       6.833   3.989  12.275  0.00  0.00    +0.000 A 
ATOM     29  F   UNL     1       6.742   3.565  11.008  0.00  0.00    +0.000 F 
ATOM     30  C   UNL     1       7.732   5.004  12.592  0.00  0.00    +0.000 A 
ATOM     31  C   UNL     1       7.829   5.453  13.913  0.00  0.00    +0.000 A 
ENDBRANCH  22  25
ENDBRANCH  20  22
ENDBRANCH  19  20
ENDBRANCH   2  19
TORSDOF 8
ENDMDL
