MODEL 1
REMARK VINA RESULT:      -5.4      0.000      0.000
REMARK  Name = 
REMARK  13 active torsions:
REMARK  status: ('A' for Active; 'I' for Inactive)
REMARK    1  A    between atoms: C_1  and  C_2
REMARK    2  A    between atoms: C_3  and  C_4
REMARK    3  A    between atoms: C_4  and  N_5
REMARK    4  A    between atoms: N_5  and  C_6
REMARK    5  A    between atoms: N_5  and  C_7
REMARK    6  A    between atoms: N_5  and  C_8
REMARK    7  A    between atoms: C_8  and  C_9
REMARK    8  A    between atoms: C_9  and  C_10
REMARK    9  A    between atoms: C_10  and  C_11
REMARK   10  A    between atoms: C_11  and  C_12
REMARK   11  A    between atoms: C_12  and  C_13
REMARK   12  A    between atoms: C_13  and  C_14
REMARK   13  A    between atoms: C_14  and  C_15
REMARK                            x       y       z     vdW  Elec       q    Type
REMARK                         _______ _______ _______ _____ _____    ______ ____
ROOT
ATOM      1  C   UNL     1       5.010   3.986  16.883  0.00  0.00    +0.000 C 
ENDROOT
BRANCH   1   2
ATOM      2  N   UNL     1       5.948   5.006  17.575  0.00  0.00    +0.000 N 
ATOM      3  C   UNL     1       7.406   4.591  17.395  0.00  0.00    +0.000 C 
ATOM      4  C   UNL     1       5.603   5.116  19.058  0.00  0.00    +0.000 C 
BRANCH   2   5
ATOM      5  C   UNL     1       5.725   6.384  16.900  0.00  0.00    +0.000 C 
BRANCH   5   8
ATOM      6  C   UNL     1       2.084   7.976  18.052  0.00  0.00    +0.000 C 
ATOM      7  C   UNL     1       3.396   7.452  17.659  0.00  0.00    +0.000 C 
ATOM      8  C   UNL     1       4.460   6.997  17.325  0.00  0.00    +0.000 C 
ENDBRANCH   5   8
ENDBRANCH   2   5
ENDBRANCH   1   2
BRANCH   1   9
ATOM      9  C   UNL     1       3.946   3.437  17.831  0.00  0.00    +0.000 C 
BRANCH   9  10
ATOM     10  C   UNL     1       2.574   3.343  17.173  0.00  0.00    +0.000 C 
BRANCH  10  11
ATOM     11  C   UNL     1       1.568   4.127  18.013  0.00  0.00    +0.000 C 
BRANCH  11  12
ATOM     12  C   UNL     1       0.872   3.231  19.026  0.00  0.00    +0.000 C 
BRANCH  12  13
ATOM     13  C   UNL     1       0.926   3.861  20.414  0.00  0.00    +0.000 C 
BRANCH  13  14
ATOM     14  C   UNL     1       1.372   2.841  21.455  0.00  0.00    +0.000 C 
ATOM     15  C   UNL     1       2.868   2.598  21.372  0.00  0.00    +0.000 C 
ENDBRANCH  13  14
ENDBRANCH  12  13
ENDBRANCH  11  12
ENDBRANCH  10  11
ENDBRANCH   9  10
ENDBRANCH   1   9
TORSDOF 9
ENDMDL
MODEL 2
REMARK VINA RESULT:      -5.3      1.928      3.175
REMARK  Name = 
REMARK  13 active torsions:
REMARK  status: ('A' for Active; 'I' for Inactive)
REMARK    1  A    between atoms: C_1  and  C_2
REMARK    2  A    between atoms: C_3  and  C_4
REMARK    3  A    between atoms: C_4  and  N_5
REMARK    4  A    between atoms: N_5  and  C_6
REMARK    5  A    between atoms: N_5  and  C_7
REMARK    6  A    between atoms: N_5  and  C_8
REMARK    7  A    between atoms: C_8  and  C_9
REMARK    8  A    between atoms: C_9  and  C_10
REMARK    9  A    between atoms: C_10  and  C_11
REMARK   10  A    between atoms: C_11  and  C_12
REMARK   11  A    between atoms: C_12  and  C_13
REMARK   12  A    between atoms: C_13  and  C_14
REMARK   13  A    between atoms: C_14  and  C_15
REMARK                            x       y       z     vdW  Elec       q    Type
REMARK                         _______ _______ _______ _____ _____    ______ ____
ROOT
ATOM      1  C   UNL     1       4.656   4.048  16.421  0.00  0.00    +0.000 C 
ENDROOT
BRANCH   1   2
ATOM      2  N   UNL     1       5.864   5.005  16.578  0.00  0.00    +0.000 N 
ATOM      3  C   UNL     1       6.423   4.924  17.996  0.00  0.00    +0.000 C 
ATOM      4  C   UNL     1       5.449   6.436  16.246  0.00  0.00    +0.000 C 
BRANCH   2   5
ATOM      5  C   UNL     1       6.957   4.550  15.576  0.00  0.00    +0.000 C 
BRANCH   5   8
ATOM      6  C   UNL     1       5.232   3.313  12.024  0.00  0.00    +0.000 C 
ATOM      7  C   UNL     1       5.866   3.709  13.285  0.00  0.00    +0.000 C 
ATOM      8  C   UNL     1       6.371   4.060  14.321  0.00  0.00    +0.000 C 
ENDBRANCH   5   8
ENDBRANCH   2   5
ENDBRANCH   1   2
BRANCH   1   9
ATOM      9  C   UNL     1       3.889   3.862  17.729  0.00  0.00    +0.000 C 
BRANCH   9  10
ATOM     10  C   UNL     1       2.751   4.864  17.884  0.00  0.00    +0.000 C 
BRANCH  10  11
ATOM     11  C   UNL     1       1.423   4.144  17.659  0.00  0.00    +0.000 C 
BRANCH  11  12
ATOM     12  C   UNL     1       1.169   3.100  18.736  0.00  0.00    +0.000 C 
BRANCH  12  13
ATOM     13  C   UNL     1       0.917   3.777  20.079  0.00  0.00    +0.000 C 
BRANCH  13  14
ATOM     14  C   UNL     1       1.340   2.871  21.229  0.00  0.00    +0.000 C 
ATOM     15  C   UNL     1       2.853   2.793  21.332  0.00  0.00    +0.000 C 
ENDBRANCH  13  14
ENDBRANCH  12  13
ENDBRANCH  11  12
ENDBRANCH  10  11
ENDBRANCH   9  10
ENDBRANCH   1   9
TORSDOF 9
ENDMDL
MODEL 3
REMARK VINA RESULT:      -5.2      1.618      3.029
REMARK  Name = 
REMARK  13 active torsions:
REMARK  status: ('A' for Active; 'I' for Inactive)
REMARK    1  A    between atoms: C_1  and  C_2
REMARK    2  A    between atoms: C_3  and  C_4
REMARK    3  A    between atoms: C_4  and  N_5
REMARK    4  A    between atoms: N_5  and  C_6
REMARK    5  A    between atoms: N_5  and  C_7
REMARK    6  A    between atoms: N_5  and  C_8
REMARK    7  A    between atoms: C_8  and  C_9
REMARK    8  A    between atoms: C_9  and  C_10
REMARK    9  A    between atoms: C_10  and  C_11
REMARK   10  A    between atoms: C_11  and  C_12
REMARK   11  A    between atoms: C_12  and  C_13
REMARK   12  A    between atoms: C_13  and  C_14
REMARK   13  A    between atoms: C_14  and  C_15
REMARK                            x       y       z     vdW  Elec       q    Type
REMARK                         _______ _______ _______ _____ _____    ______ ____
ROOT
ATOM      1  C   UNL     1       5.594   4.863  18.686  0.00  0.00    +0.000 C 
ENDROOT
BRANCH   1   2
ATOM      2  N   UNL     1       6.878   5.532  18.137  0.00  0.00    +0.000 N 
ATOM      3  C   UNL     1       7.806   5.918  19.286  0.00  0.00    +0.000 C 
ATOM      4  C   UNL     1       6.519   6.759  17.303  0.00  0.00    +0.000 C 
BRANCH   2   5
ATOM      5  C   UNL     1       7.596   4.497  17.231  0.00  0.00    +0.000 C 
BRANCH   5   8
ATOM      6  C   UNL     1       5.740   3.942  13.575  0.00  0.00    +0.000 C 
ATOM      7  C   UNL     1       6.386   4.186  14.869  0.00  0.00    +0.000 C 
ATOM      8  C   UNL     1       6.926   4.357  15.932  0.00  0.00    +0.000 C 
ENDBRANCH   5   8
ENDBRANCH   2   5
ENDBRANCH   1   2
BRANCH   1   9
ATOM      9  C   UNL     1       4.322   5.531  18.165  0.00  0.00    +0.000 C 
BRANCH   9  10
ATOM     10  C   UNL     1       3.351   4.530  17.549  0.00  0.00    +0.000 C 
BRANCH  10  11
ATOM     11  C   UNL     1       1.980   4.707  18.200  0.00  0.00    +0.000 C 
BRANCH  11  12
ATOM     12  C   UNL     1       2.040   5.685  19.363  0.00  0.00    +0.000 C 
BRANCH  12  13
ATOM     13  C   UNL     1       1.615   4.996  20.656  0.00  0.00    +0.000 C 
BRANCH  13  14
ATOM     14  C   UNL     1       1.113   3.585  20.376  0.00  0.00    +0.000 C 
ATOM     15  C   UNL     1       1.461   2.648  21.518  0.00  0.00    +0.000 C 
ENDBRANCH  13  14
ENDBRANCH  12  13
ENDBRANCH  11  12
ENDBRANCH  10  11
ENDBRANCH   9  10
ENDBRANCH   1   9
TORSDOF 9
ENDMDL
MODEL 4
REMARK VINA RESULT:      -5.2      1.861      2.991
REMARK  Name = 
REMARK  13 active torsions:
REMARK  status: ('A' for Active; 'I' for Inactive)
REMARK    1  A    between atoms: C_1  and  C_2
REMARK    2  A    between atoms: C_3  and  C_4
REMARK    3  A    between atoms: C_4  and  N_5
REMARK    4  A    between atoms: N_5  and  C_6
REMARK    5  A    between atoms: N_5  and  C_7
REMARK    6  A    between atoms: N_5  and  C_8
REMARK    7  A    between atoms: C_8  and  C_9
REMARK    8  A    between atoms: C_9  and  C_10
REMARK    9  A    between atoms: C_10  and  C_11
REMARK   10  A    between atoms: C_11  and  C_12
REMARK   11  A    between atoms: C_12  and  C_13
REMARK   12  A    between atoms: C_13  and  C_14
REMARK   13  A    between atoms: C_14  and  C_15
REMARK                            x       y       z     vdW  Elec       q    Type
REMARK                         _______ _______ _______ _____ _____    ______ ____
ROOT
ATOM      1  C   UNL     1       4.891   3.562  16.798  0.00  0.00    +0.000 C 
ENDROOT
BRANCH   1   2
ATOM      2  N   UNL     1       5.730   4.860  16.887  0.00  0.00    +0.000 N 
ATOM      3  C   UNL     1       7.200   4.525  17.125  0.00  0.00    +0.000 C 
ATOM      4  C   UNL     1       5.198   5.756  18.002  0.00  0.00    +0.000 C 
BRANCH   2   5
ATOM      5  C   UNL     1       5.592   5.602  15.532  0.00  0.00    +0.000 C 
BRANCH   5   8
ATOM      6  C   UNL     1       6.156   3.145  12.251  0.00  0.00    +0.000 C 
ATOM      7  C   UNL     1       5.933   3.979  13.436  0.00  0.00    +0.000 C 
ATOM      8  C   UNL     1       5.762   4.689  14.395  0.00  0.00    +0.000 C 
ENDBRANCH   5   8
ENDBRANCH   2   5
ENDBRANCH   1   2
BRANCH   1   9
ATOM      9  C   UNL     1       3.938   3.403  17.982  0.00  0.00    +0.000 C 
BRANCH   9  10
ATOM     10  C   UNL     1       2.648   2.687  17.597  0.00  0.00    +0.000 C 
BRANCH  10  11
ATOM     11  C   UNL     1       1.459   3.551  18.013  0.00  0.00    +0.000 C 
BRANCH  11  12
ATOM     12  C   UNL     1       0.791   3.008  19.267  0.00  0.00    +0.000 C 
BRANCH  12  13
ATOM     13  C   UNL     1       0.827   4.052  20.379  0.00  0.00    +0.000 C 
BRANCH  13  14
ATOM     14  C   UNL     1       2.176   4.040  21.088  0.00  0.00    +0.000 C 
ATOM     15  C   UNL     1       2.463   2.676  21.687  0.00  0.00    +0.000 C 
ENDBRANCH  13  14
ENDBRANCH  12  13
ENDBRANCH  11  12
ENDBRANCH  10  11
ENDBRANCH   9  10
ENDBRANCH   1   9
TORSDOF 9
ENDMDL
MODEL 5
REMARK VINA RESULT:      -5.1      1.853      3.258
REMARK  Name = 
REMARK  13 active torsions:
REMARK  status: ('A' for Active; 'I' for Inactive)
REMARK    1  A    between atoms: C_1  and  C_2
REMARK    2  A    between atoms: C_3  and  C_4
REMARK    3  A    between atoms: C_4  and  N_5
REMARK    4  A    between atoms: N_5  and  C_6
REMARK    5  A    between atoms: N_5  and  C_7
REMARK    6  A    between atoms: N_5  and  C_8
REMARK    7  A    between atoms: C_8  and  C_9
REMARK    8  A    between atoms: C_9  and  C_10
REMARK    9  A    between atoms: C_10  and  C_11
REMARK   10  A    between atoms: C_11  and  C_12
REMARK   11  A    between atoms: C_12  and  C_13
REMARK   12  A    between atoms: C_13  and  C_14
REMARK   13  A    between atoms: C_14  and  C_15
REMARK                            x       y       z     vdW  Elec       q    Type
REMARK                         _______ _______ _______ _____ _____    ______ ____
ROOT
ATOM      1  C   UNL     1       4.053   3.983  16.874  0.00  0.00    +0.000 C 
ENDROOT
BRANCH   1   2
ATOM      2  N   UNL     1       5.234   4.922  17.222  0.00  0.00    +0.000 N 
ATOM      3  C   UNL     1       5.458   4.952  18.732  0.00  0.00    +0.000 C 
ATOM      4  C   UNL     1       4.963   6.328  16.694  0.00  0.00    +0.000 C 
BRANCH   2   5
ATOM      5  C   UNL     1       6.503   4.358  16.533  0.00  0.00    +0.000 C 
BRANCH   5   8
ATOM      6  C   UNL     1       5.875   3.529  12.528  0.00  0.00    +0.000 C 
ATOM      7  C   UNL     1       6.097   3.870  13.937  0.00  0.00    +0.000 C 
ATOM      8  C   UNL     1       6.281   4.120  15.101  0.00  0.00    +0.000 C 
ENDBRANCH   5   8
ENDBRANCH   2   5
ENDBRANCH   1   2
BRANCH   1   9
ATOM      9  C   UNL     1       4.118   2.660  17.634  0.00  0.00    +0.000 C 
BRANCH   9  10
ATOM     10  C   UNL     1       2.735   2.089  17.926  0.00  0.00    +0.000 C 
BRANCH  10  11
ATOM     11  C   UNL     1       1.768   3.243  18.184  0.00  0.00    +0.000 C 
BRANCH  11  12
ATOM     12  C   UNL     1       0.798   2.912  19.309  0.00  0.00    +0.000 C 
BRANCH  12  13
ATOM     13  C   UNL     1       0.852   3.990  20.386  0.00  0.00    +0.000 C 
BRANCH  13  14
ATOM     14  C   UNL     1       2.187   4.722  20.352  0.00  0.00    +0.000 C 
ATOM     15  C   UNL     1       1.982   6.225  20.277  0.00  0.00    +0.000 C 
ENDBRANCH  13  14
ENDBRANCH  12  13
ENDBRANCH  11  12
ENDBRANCH  10  11
ENDBRANCH   9  10
ENDBRANCH   1   9
TORSDOF 9
ENDMDL
MODEL 6
REMARK VINA RESULT:      -5.0      1.777      3.301
REMARK  Name = 
REMARK  13 active torsions:
REMARK  status: ('A' for Active; 'I' for Inactive)
REMARK    1  A    between atoms: C_1  and  C_2
REMARK    2  A    between atoms: C_3  and  C_4
REMARK    3  A    between atoms: C_4  and  N_5
REMARK    4  A    between atoms: N_5  and  C_6
REMARK    5  A    between atoms: N_5  and  C_7
REMARK    6  A    between atoms: N_5  and  C_8
REMARK    7  A    between atoms: C_8  and  C_9
REMARK    8  A    between atoms: C_9  and  C_10
REMARK    9  A    between atoms: C_10  and  C_11
REMARK   10  A    between atoms: C_11  and  C_12
REMARK   11  A    between atoms: C_12  and  C_13
REMARK   12  A    between atoms: C_13  and  C_14
REMARK   13  A    between atoms: C_14  and  C_15
REMARK                            x       y       z     vdW  Elec       q    Type
REMARK                         _______ _______ _______ _____ _____    ______ ____
ROOT
ATOM      1  C   UNL     1       4.907   5.107  17.668  0.00  0.00    +0.000 C 
ENDROOT
BRANCH   1   2
ATOM      2  N   UNL     1       6.378   5.552  17.860  0.00  0.00    +0.000 N 
ATOM      3  C   UNL     1       6.750   5.525  19.341  0.00  0.00    +0.000 C 
ATOM      4  C   UNL     1       6.586   6.949  17.282  0.00  0.00    +0.000 C 
BRANCH   2   5
ATOM      5  C   UNL     1       7.277   4.548  17.094  0.00  0.00    +0.000 C 
BRANCH   5   8
ATOM      6  C   UNL     1       5.929   3.795  13.255  0.00  0.00    +0.000 C 
ATOM      7  C   UNL     1       6.409   4.109  14.604  0.00  0.00    +0.000 C 
ATOM      8  C   UNL     1       6.804   4.337  15.720  0.00  0.00    +0.000 C 
ENDBRANCH   5   8
ENDBRANCH   2   5
ENDBRANCH   1   2
BRANCH   1   9
ATOM      9  C   UNL     1       3.957   6.293  17.513  0.00  0.00    +0.000 C 
BRANCH   9  10
ATOM     10  C   UNL     1       2.676   6.120  18.322  0.00  0.00    +0.000 C 
BRANCH  10  11
ATOM     11  C   UNL     1       3.038   5.636  19.725  0.00  0.00    +0.000 C 
BRANCH  11  12
ATOM     12  C   UNL     1       1.795   5.418  20.574  0.00  0.00    +0.000 C 
BRANCH  12  13
ATOM     13  C   UNL     1       1.648   3.941  20.926  0.00  0.00    +0.000 C 
BRANCH  13  14
ATOM     14  C   UNL     1       0.863   3.204  19.848  0.00  0.00    +0.000 C 
ATOM     15  C   UNL     1       1.664   2.041  19.291  0.00  0.00    +0.000 C 
ENDBRANCH  13  14
ENDBRANCH  12  13
ENDBRANCH  11  12
ENDBRANCH  10  11
ENDBRANCH   9  10
ENDBRANCH   1   9
TORSDOF 9
ENDMDL
MODEL 7
REMARK VINA RESULT:      -5.0      1.782      3.008
REMARK  Name = 
REMARK  13 active torsions:
REMARK  status: ('A' for Active; 'I' for Inactive)
REMARK    1  A    between atoms: C_1  and  C_2
REMARK    2  A    between atoms: C_3  and  C_4
REMARK    3  A    between atoms: C_4  and  N_5
REMARK    4  A    between atoms: N_5  and  C_6
REMARK    5  A    between atoms: N_5  and  C_7
REMARK    6  A    between atoms: N_5  and  C_8
REMARK    7  A    between atoms: C_8  and  C_9
REMARK    8  A    between atoms: C_9  and  C_10
REMARK    9  A    between atoms: C_10  and  C_11
REMARK   10  A    between atoms: C_11  and  C_12
REMARK   11  A    between atoms: C_12  and  C_13
REMARK   12  A    between atoms: C_13  and  C_14
REMARK   13  A    between atoms: C_14  and  C_15
REMARK                            x       y       z     vdW  Elec       q    Type
REMARK                         _______ _______ _______ _____ _____    ______ ____
ROOT
ATOM      1  C   UNL     1       5.724   5.527  19.003  0.00  0.00    +0.000 C 
ENDROOT
BRANCH   1   2
ATOM      2  N   UNL     1       6.200   5.148  17.579  0.00  0.00    +0.000 N 
ATOM      3  C   UNL     1       5.238   4.143  16.950  0.00  0.00    +0.000 C 
ATOM      4  C   UNL     1       7.613   4.574  17.632  0.00  0.00    +0.000 C 
BRANCH   2   5
ATOM      5  C   UNL     1       6.210   6.442  16.726  0.00  0.00    +0.000 C 
BRANCH   5   8
ATOM      6  C   UNL     1       8.596   9.419  18.331  0.00  0.00    +0.000 C 
ATOM      7  C   UNL     1       7.787   8.333  17.766  0.00  0.00    +0.000 C 
ATOM      8  C   UNL     1       7.100   7.461  17.298  0.00  0.00    +0.000 C 
ENDBRANCH   5   8
ENDBRANCH   2   5
ENDBRANCH   1   2
BRANCH   1   9
ATOM      9  C   UNL     1       4.389   4.877  19.363  0.00  0.00    +0.000 C 
BRANCH   9  10
ATOM     10  C   UNL     1       3.284   5.902  19.586  0.00  0.00    +0.000 C 
BRANCH  10  11
ATOM     11  C   UNL     1       1.942   5.273  19.214  0.00  0.00    +0.000 C 
BRANCH  11  12
ATOM     12  C   UNL     1       1.326   4.542  20.397  0.00  0.00    +0.000 C 
BRANCH  12  13
ATOM     13  C   UNL     1       1.263   3.044  20.116  0.00  0.00    +0.000 C 
BRANCH  13  14
ATOM     14  C   UNL     1       1.105   2.780  18.624  0.00  0.00    +0.000 C 
ATOM     15  C   UNL     1       2.269   1.965  18.090  0.00  0.00    +0.000 C 
ENDBRANCH  13  14
ENDBRANCH  12  13
ENDBRANCH  11  12
ENDBRANCH  10  11
ENDBRANCH   9  10
ENDBRANCH   1   9
TORSDOF 9
ENDMDL
MODEL 8
REMARK VINA RESULT:      -5.0      1.776      3.214
REMARK  Name = 
REMARK  13 active torsions:
REMARK  status: ('A' for Active; 'I' for Inactive)
REMARK    1  A    between atoms: C_1  and  C_2
REMARK    2  A    between atoms: C_3  and  C_4
REMARK    3  A    between atoms: C_4  and  N_5
REMARK    4  A    between atoms: N_5  and  C_6
REMARK    5  A    between atoms: N_5  and  C_7
REMARK    6  A    between atoms: N_5  and  C_8
REMARK    7  A    between atoms: C_8  and  C_9
REMARK    8  A    between atoms: C_9  and  C_10
REMARK    9  A    between atoms: C_10  and  C_11
REMARK   10  A    between atoms: C_11  and  C_12
REMARK   11  A    between atoms: C_12  and  C_13
REMARK   12  A    between atoms: C_13  and  C_14
REMARK   13  A    between atoms: C_14  and  C_15
REMARK                            x       y       z     vdW  Elec       q    Type
REMARK                         _______ _______ _______ _____ _____    ______ ____
ROOT
ATOM      1  C   UNL     1       4.803   6.074  18.065  0.00  0.00    +0.000 C 
ENDROOT
BRANCH   1   2
ATOM      2  N   UNL     1       5.536   5.410  16.874  0.00  0.00    +0.000 N 
ATOM      3  C   UNL     1       5.235   6.164  15.581  0.00  0.00    +0.000 C 
ATOM      4  C   UNL     1       5.121   3.947  16.749  0.00  0.00    +0.000 C 
BRANCH   2   5
ATOM      5  C   UNL     1       7.059   5.482  17.159  0.00  0.00    +0.000 C 
BRANCH   5   8
ATOM      6  C   UNL     1       8.306   9.319  18.078  0.00  0.00    +0.000 C 
ATOM      7  C   UNL     1       7.860   7.973  17.706  0.00  0.00    +0.000 C 
ATOM      8  C   UNL     1       7.495   6.858  17.430  0.00  0.00    +0.000 C 
ENDBRANCH   5   8
ENDBRANCH   2   5
ENDBRANCH   1   2
BRANCH   1   9
ATOM      9  C   UNL     1       3.658   6.978  17.613  0.00  0.00    +0.000 C 
BRANCH   9  10
ATOM     10  C   UNL     1       2.346   6.649  18.316  0.00  0.00    +0.000 C 
BRANCH  10  11
ATOM     11  C   UNL     1       2.589   6.606  19.823  0.00  0.00    +0.000 C 
BRANCH  11  12
ATOM     12  C   UNL     1       1.721   5.553  20.495  0.00  0.00    +0.000 C 
BRANCH  12  13
ATOM     13  C   UNL     1       2.220   4.155  20.144  0.00  0.00    +0.000 C 
BRANCH  13  14
ATOM     14  C   UNL     1       1.069   3.156  20.135  0.00  0.00    +0.000 C 
ATOM     15  C   UNL     1       0.879   2.557  18.754  0.00  0.00    +0.000 C 
ENDBRANCH  13  14
ENDBRANCH  12  13
ENDBRANCH  11  12
ENDBRANCH  10  11
ENDBRANCH   9  10
ENDBRANCH   1   9
TORSDOF 9
ENDMDL
MODEL 9
REMARK VINA RESULT:      -5.0      2.013      3.618
REMARK  Name = 
REMARK  13 active torsions:
REMARK  status: ('A' for Active; 'I' for Inactive)
REMARK    1  A    between atoms: C_1  and  C_2
REMARK    2  A    between atoms: C_3  and  C_4
REMARK    3  A    between atoms: C_4  and  N_5
REMARK    4  A    between atoms: N_5  and  C_6
REMARK    5  A    between atoms: N_5  and  C_7
REMARK    6  A    between atoms: N_5  and  C_8
REMARK    7  A    between atoms: C_8  and  C_9
REMARK    8  A    between atoms: C_9  and  C_10
REMARK    9  A    between atoms: C_10  and  C_11
REMARK   10  A    between atoms: C_11  and  C_12
REMARK   11  A    between atoms: C_12  and  C_13
REMARK   12  A    between atoms: C_13  and  C_14
REMARK   13  A    between atoms: C_14  and  C_15
REMARK                            x       y       z     vdW  Elec       q    Type
REMARK                         _______ _______ _______ _____ _____    ______ ____
ROOT
ATOM      1  C   UNL     1       4.830   5.305  18.310  0.00  0.00    +0.000 C 
ENDROOT
BRANCH   1   2
ATOM      2  N   UNL     1       5.604   5.287  16.969  0.00  0.00    +0.000 N 
ATOM      3  C   UNL     1       7.108   5.349  17.226  0.00  0.00    +0.000 C 
ATOM      4  C   UNL     1       5.163   6.453  16.090  0.00  0.00    +0.000 C 
BRANCH   2   5
ATOM      5  C   UNL     1       5.268   3.955  16.250  0.00  0.00    +0.000 C 
BRANCH   5   8
ATOM      6  C   UNL     1       6.665   3.794  12.358  0.00  0.00    +0.000 C 
ATOM      7  C   UNL     1       6.156   3.897  13.730  0.00  0.00    +0.000 C 
ATOM      8  C   UNL     1       5.747   3.953  14.862  0.00  0.00    +0.000 C 
ENDBRANCH   5   8
ENDBRANCH   2   5
ENDBRANCH   1   2
BRANCH   1   9
ATOM      9  C   UNL     1       3.446   5.937  18.174  0.00  0.00    +0.000 C 
BRANCH   9  10
ATOM     10  C   UNL     1       2.799   6.216  19.525  0.00  0.00    +0.000 C 
BRANCH  10  11
ATOM     11  C   UNL     1       2.696   4.907  20.305  0.00  0.00    +0.000 C 
BRANCH  11  12
ATOM     12  C   UNL     1       1.247   4.486  20.494  0.00  0.00    +0.000 C 
BRANCH  12  13
ATOM     13  C   UNL     1       1.001   3.129  19.842  0.00  0.00    +0.000 C 
BRANCH  13  14
ATOM     14  C   UNL     1       2.312   2.511  19.371  0.00  0.00    +0.000 C 
ATOM     15  C   UNL     1       2.293   2.275  17.872  0.00  0.00    +0.000 C 
ENDBRANCH  13  14
ENDBRANCH  12  13
ENDBRANCH  11  12
ENDBRANCH  10  11
ENDBRANCH   9  10
ENDBRANCH   1   9
TORSDOF 9
ENDMDL
