MODEL 1
REMARK VINA RESULT:      -7.9      0.000      0.000
REMARK  Name = 
REMARK  5 active torsions:
REMARK  status: ('A' for Active; 'I' for Inactive)
REMARK    1  A    between atoms: C_2  and  C_20
REMARK    2  A    between atoms: N_3  and  C_4
REMARK    3  A    between atoms: C_4  and  N_6
REMARK    4  A    between atoms: N_6  and  C_7
REMARK    5  A    between atoms: C_10  and  N_11
REMARK                            x       y       z     vdW  Elec       q    Type
REMARK                         _______ _______ _______ _____ _____    ______ ____
ROOT
ATOM      1  N   UNL     1       2.908   4.687  19.607  0.00  0.00    +0.000 N 
ATOM      2  H   UNL     1       3.354   4.240  20.402  0.00  0.00    +0.000 HD
ENDROOT
BRANCH   1   3
ATOM      3  C   UNL     1       2.418   5.998  19.776  0.00  0.00    +0.000 A 
ATOM      4  C   UNL     1       1.764   6.380  20.943  0.00  0.00    +0.000 A 
ATOM      5  C   UNL     1       1.151   7.626  21.038  0.00  0.00    +0.000 A 
ATOM      6  C   UNL     1       1.206   8.570  20.001  0.00  0.00    +0.000 A 
ATOM      7  C   UNL     1       1.999   8.205  18.879  0.00  0.00    +0.000 A 
ATOM      8 CL   UNL     1       2.378   9.306  17.592  0.00  0.00    +0.000 Cl
ATOM      9  C   UNL     1       2.593   6.937  18.770  0.00  0.00    +0.000 A 
BRANCH   6  10
ATOM     10  N   UNL     1       0.528   9.764  20.154  0.00  0.00    +0.000 N 
ATOM     11  C   UNL     1      -0.644  10.164  19.358  0.00  0.00    +0.000 C 
ATOM     12  C   UNL     1      -0.405  11.584  18.820  0.00  0.00    +0.000 C 
ATOM     13  O   UNL     1      -0.167  12.513  19.899  0.00  0.00    +0.000 OA
ATOM     14  C   UNL     1       0.978  12.109  20.671  0.00  0.00    +0.000 C 
ATOM     15  C   UNL     1       0.798  10.700  21.258  0.00  0.00    +0.000 C 
ENDBRANCH   6  10
ENDBRANCH   1   3
BRANCH   1  16
ATOM     16  C   UNL     1       2.724   3.888  18.490  0.00  0.00    +0.000 C 
ATOM     17  S   UNL     1       1.514   2.747  18.498  0.00  0.00    +0.000 S 
BRANCH  16  20
ATOM     18  O   UNL     1       5.729   4.134  18.575  0.00  0.00    +0.000 OA
ATOM     19  C   UNL     1       5.051   4.242  17.561  0.00  0.00    +0.000 C 
ATOM     20  N   UNL     1       3.671   4.110  17.493  0.00  0.00    +0.000 N 
ATOM     21  H   UNL     1       3.243   4.231  16.588  0.00  0.00    +0.000 HD
BRANCH  19  22
ATOM     22  C   UNL     1       5.744   4.464  16.264  0.00  0.00    +0.000 A 
ATOM     23  C   UNL     1       6.879   5.266  16.263  0.00  0.00    +0.000 A 
ATOM     24  N   UNL     1       7.629   5.518  15.160  0.00  0.00    +0.000 NA
ATOM     25  C   UNL     1       7.240   4.925  14.009  0.00  0.00    +0.000 A 
ATOM     26  C   UNL     1       6.134   4.097  13.915  0.00  0.00    +0.000 A 
ATOM     27 BR   UNL     1       5.681   3.274  12.278  0.00  0.00    +0.000 Br
ATOM     28  C   UNL     1       5.368   3.864  15.056  0.00  0.00    +0.000 A 
ENDBRANCH  19  22
ENDBRANCH  16  20
ENDBRANCH   1  16
TORSDOF 5
ENDMDL
MODEL 2
REMARK VINA RESULT:      -7.9      1.389      2.006
REMARK  Name = 
REMARK  5 active torsions:
REMARK  status: ('A' for Active; 'I' for Inactive)
REMARK    1  A    between atoms: C_2  and  C_20
REMARK    2  A    between atoms: N_3  and  C_4
REMARK    3  A    between atoms: C_4  and  N_6
REMARK    4  A    between atoms: N_6  and  C_7
REMARK    5  A    between atoms: C_10  and  N_11
REMARK                            x       y       z     vdW  Elec       q    Type
REMARK                         _______ _______ _______ _____ _____    ______ ____
ROOT
ATOM      1  N   UNL     1       3.033   6.185  19.288  0.00  0.00    +0.000 N 
ATOM      2  H   UNL     1       3.730   6.046  20.014  0.00  0.00    +0.000 HD
ENDROOT
BRANCH   1   3
ATOM      3  C   UNL     1       2.286   7.380  19.309  0.00  0.00    +0.000 A 
ATOM      4  C   UNL     1       2.175   8.182  18.177  0.00  0.00    +0.000 A 
ATOM      5  C   UNL     1       1.567   9.432  18.249  0.00  0.00    +0.000 A 
ATOM      6  C   UNL     1       0.993   9.919  19.434  0.00  0.00    +0.000 A 
ATOM      7  C   UNL     1       0.999   9.020  20.535  0.00  0.00    +0.000 A 
ATOM      8 CL   UNL     1       0.152   9.336  22.016  0.00  0.00    +0.000 Cl
ATOM      9  C   UNL     1       1.638   7.771  20.471  0.00  0.00    +0.000 A 
BRANCH   6  10
ATOM     10  N   UNL     1       0.454  11.191  19.436  0.00  0.00    +0.000 N 
ATOM     11  C   UNL     1       1.207  12.414  19.757  0.00  0.00    +0.000 C 
ATOM     12  C   UNL     1       0.409  13.216  20.799  0.00  0.00    +0.000 C 
ATOM     13  O   UNL     1      -0.911  13.531  20.310  0.00  0.00    +0.000 OA
ATOM     14  C   UNL     1      -1.635  12.329  19.995  0.00  0.00    +0.000 C 
ATOM     15  C   UNL     1      -0.902  11.484  18.940  0.00  0.00    +0.000 C 
ENDBRANCH   6  10
ENDBRANCH   1   3
BRANCH   1  16
ATOM     16  C   UNL     1       2.819   5.107  18.443  0.00  0.00    +0.000 C 
ATOM     17  S   UNL     1       1.610   4.022  18.800  0.00  0.00    +0.000 S 
BRANCH  16  20
ATOM     18  O   UNL     1       5.811   4.735  18.407  0.00  0.00    +0.000 OA
ATOM     19  C   UNL     1       5.118   4.886  17.410  0.00  0.00    +0.000 C 
ATOM     20  N   UNL     1       3.738   5.036  17.400  0.00  0.00    +0.000 N 
ATOM     21  H   UNL     1       3.298   5.159  16.500  0.00  0.00    +0.000 HD
BRANCH  19  22
ATOM     22  C   UNL     1       5.774   4.839  16.076  0.00  0.00    +0.000 A 
ATOM     23  C   UNL     1       7.009   5.463  15.937  0.00  0.00    +0.000 A 
ATOM     24  N   UNL     1       7.733   5.463  14.790  0.00  0.00    +0.000 NA
ATOM     25  C   UNL     1       7.212   4.791  13.738  0.00  0.00    +0.000 A 
ATOM     26  C   UNL     1       5.998   4.126  13.786  0.00  0.00    +0.000 A 
ATOM     27 BR   UNL     1       5.360   3.176  12.285  0.00  0.00    +0.000 Br
ATOM     28  C   UNL     1       5.262   4.152  14.969  0.00  0.00    +0.000 A 
ENDBRANCH  19  22
ENDBRANCH  16  20
ENDBRANCH   1  16
TORSDOF 5
ENDMDL
MODEL 3
REMARK VINA RESULT:      -7.8      1.324      1.614
REMARK  Name = 
REMARK  5 active torsions:
REMARK  status: ('A' for Active; 'I' for Inactive)
REMARK    1  A    between atoms: C_2  and  C_20
REMARK    2  A    between atoms: N_3  and  C_4
REMARK    3  A    between atoms: C_4  and  N_6
REMARK    4  A    between atoms: N_6  and  C_7
REMARK    5  A    between atoms: C_10  and  N_11
REMARK                            x       y       z     vdW  Elec       q    Type
REMARK                         _______ _______ _______ _____ _____    ______ ____
ROOT
ATOM      1  N   UNL     1       2.259   5.762  20.812  0.00  0.00    +0.000 N 
ATOM      2  H   UNL     1       2.523   5.525  21.763  0.00  0.00    +0.000 HD
ENDROOT
BRANCH   1   3
ATOM      3  C   UNL     1       1.825   7.078  20.555  0.00  0.00    +0.000 A 
ATOM      4  C   UNL     1       1.100   7.797  21.501  0.00  0.00    +0.000 A 
ATOM      5  C   UNL     1       0.546   9.033  21.182  0.00  0.00    +0.000 A 
ATOM      6  C   UNL     1       0.732   9.637  19.928  0.00  0.00    +0.000 A 
ATOM      7  C   UNL     1       1.592   8.944  19.034  0.00  0.00    +0.000 A 
ATOM      8 CL   UNL     1       2.129   9.618  17.528  0.00  0.00    +0.000 Cl
ATOM      9  C   UNL     1       2.127   7.683  19.345  0.00  0.00    +0.000 A 
BRANCH   6  10
ATOM     10  N   UNL     1       0.106  10.842  19.673  0.00  0.00    +0.000 N 
ATOM     11  C   UNL     1      -1.315  10.983  19.318  0.00  0.00    +0.000 C 
ATOM     12  C   UNL     1      -1.417  11.870  18.066  0.00  0.00    +0.000 C 
ATOM     13  O   UNL     1      -0.807  13.157  18.292  0.00  0.00    +0.000 OA
ATOM     14  C   UNL     1       0.580  13.006  18.643  0.00  0.00    +0.000 C 
ATOM     15  C   UNL     1       0.756  12.144  19.903  0.00  0.00    +0.000 C 
ENDBRANCH   6  10
ENDBRANCH   1   3
BRANCH   1  16
ATOM     16  C   UNL     1       2.236   4.709  19.911  0.00  0.00    +0.000 C 
ATOM     17  S   UNL     1       1.047   3.553  20.043  0.00  0.00    +0.000 S 
BRANCH  16  20
ATOM     18  O   UNL     1       4.716   3.005  19.707  0.00  0.00    +0.000 OA
ATOM     19  C   UNL     1       4.452   3.940  18.962  0.00  0.00    +0.000 C 
ATOM     20  N   UNL     1       3.307   4.723  19.022  0.00  0.00    +0.000 N 
ATOM     21  H   UNL     1       3.225   5.466  18.345  0.00  0.00    +0.000 HD
BRANCH  19  22
ATOM     22  C   UNL     1       5.385   4.242  17.844  0.00  0.00    +0.000 A 
ATOM     23  C   UNL     1       6.639   4.751  18.164  0.00  0.00    +0.000 A 
ATOM     24  N   UNL     1       7.599   5.033  17.248  0.00  0.00    +0.000 NA
ATOM     25  C   UNL     1       7.303   4.774  15.954  0.00  0.00    +0.000 A 
ATOM     26  C   UNL     1       6.089   4.252  15.540  0.00  0.00    +0.000 A 
ATOM     27 BR   UNL     1       5.769   3.882  13.717  0.00  0.00    +0.000 Br
ATOM     28  C   UNL     1       5.110   3.985  16.496  0.00  0.00    +0.000 A 
ENDBRANCH  19  22
ENDBRANCH  16  20
ENDBRANCH   1  16
TORSDOF 5
ENDMDL
MODEL 4
REMARK VINA RESULT:      -7.7      1.687      2.080
REMARK  Name = 
REMARK  5 active torsions:
REMARK  status: ('A' for Active; 'I' for Inactive)
REMARK    1  A    between atoms: C_2  and  C_20
REMARK    2  A    between atoms: N_3  and  C_4
REMARK    3  A    between atoms: C_4  and  N_6
REMARK    4  A    between atoms: N_6  and  C_7
REMARK    5  A    between atoms: C_10  and  N_11
REMARK                            x       y       z     vdW  Elec       q    Type
REMARK                         _______ _______ _______ _____ _____    ______ ____
ROOT
ATOM      1  N   UNL     1       2.542   6.010  20.355  0.00  0.00    +0.000 N 
ATOM      2  H   UNL     1       3.056   5.868  21.219  0.00  0.00    +0.000 HD
ENDROOT
BRANCH   1   3
ATOM      3  C   UNL     1       1.906   7.253  20.160  0.00  0.00    +0.000 A 
ATOM      4  C   UNL     1       1.996   7.927  18.946  0.00  0.00    +0.000 A 
ATOM      5  C   UNL     1       1.496   9.220  18.813  0.00  0.00    +0.000 A 
ATOM      6  C   UNL     1       0.837   9.880  19.861  0.00  0.00    +0.000 A 
ATOM      7  C   UNL     1       0.638   9.114  21.042  0.00  0.00    +0.000 A 
ATOM      8 CL   UNL     1      -0.340   9.659  22.368  0.00  0.00    +0.000 Cl
ATOM      9  C   UNL     1       1.168   7.821  21.187  0.00  0.00    +0.000 A 
BRANCH   6  10
ATOM     10  N   UNL     1       0.416  11.181  19.665  0.00  0.00    +0.000 N 
ATOM     11  C   UNL     1      -0.989  11.583  19.487  0.00  0.00    +0.000 C 
ATOM     12  C   UNL     1      -1.083  12.480  18.242  0.00  0.00    +0.000 C 
ATOM     13  O   UNL     1      -0.224  13.633  18.368  0.00  0.00    +0.000 OA
ATOM     14  C   UNL     1       1.145  13.227  18.546  0.00  0.00    +0.000 C 
ATOM     15  C   UNL     1       1.317  12.340  19.790  0.00  0.00    +0.000 C 
ENDBRANCH   6  10
ENDBRANCH   1   3
BRANCH   1  16
ATOM     16  C   UNL     1       2.424   4.899  19.534  0.00  0.00    +0.000 C 
ATOM     17  S   UNL     1       1.199   3.809  19.811  0.00  0.00    +0.000 S 
BRANCH  16  20
ATOM     18  O   UNL     1       5.393   5.404  19.704  0.00  0.00    +0.000 OA
ATOM     19  C   UNL     1       4.803   5.065  18.687  0.00  0.00    +0.000 C 
ATOM     20  N   UNL     1       3.443   4.805  18.589  0.00  0.00    +0.000 N 
ATOM     21  H   UNL     1       3.092   4.539  17.681  0.00  0.00    +0.000 HD
BRANCH  19  22
ATOM     22  C   UNL     1       5.596   4.836  17.450  0.00  0.00    +0.000 A 
ATOM     23  C   UNL     1       6.982   4.864  17.552  0.00  0.00    +0.000 A 
ATOM     24  N   UNL     1       7.824   4.633  16.513  0.00  0.00    +0.000 NA
ATOM     25  C   UNL     1       7.257   4.337  15.321  0.00  0.00    +0.000 A 
ATOM     26  C   UNL     1       5.887   4.269  15.126  0.00  0.00    +0.000 A 
ATOM     27 BR   UNL     1       5.176   3.810  13.440  0.00  0.00    +0.000 Br
ATOM     28  C   UNL     1       5.040   4.526  16.202  0.00  0.00    +0.000 A 
ENDBRANCH  19  22
ENDBRANCH  16  20
ENDBRANCH   1  16
TORSDOF 5
ENDMDL
MODEL 5
REMARK VINA RESULT:      -7.6      1.327      1.847
REMARK  Name = 
REMARK  5 active torsions:
REMARK  status: ('A' for Active; 'I' for Inactive)
REMARK    1  A    between atoms: C_2  and  C_20
REMARK    2  A    between atoms: N_3  and  C_4
REMARK    3  A    between atoms: C_4  and  N_6
REMARK    4  A    between atoms: N_6  and  C_7
REMARK    5  A    between atoms: C_10  and  N_11
REMARK                            x       y       z     vdW  Elec       q    Type
REMARK                         _______ _______ _______ _____ _____    ______ ____
ROOT
ATOM      1  N   UNL     1       2.252   5.781  20.767  0.00  0.00    +0.000 N 
ATOM      2  H   UNL     1       2.544   5.560  21.714  0.00  0.00    +0.000 HD
ENDROOT
BRANCH   1   3
ATOM      3  C   UNL     1       1.786   7.086  20.506  0.00  0.00    +0.000 A 
ATOM      4  C   UNL     1       0.964   7.753  21.410  0.00  0.00    +0.000 A 
ATOM      5  C   UNL     1       0.387   8.975  21.076  0.00  0.00    +0.000 A 
ATOM      6  C   UNL     1       0.642   9.616  19.853  0.00  0.00    +0.000 A 
ATOM      7  C   UNL     1       1.593   8.978  19.012  0.00  0.00    +0.000 A 
ATOM      8 CL   UNL     1       2.214   9.708  17.565  0.00  0.00    +0.000 Cl
ATOM      9  C   UNL     1       2.153   7.731  19.335  0.00  0.00    +0.000 A 
BRANCH   6  10
ATOM     10  N   UNL     1      -0.010  10.802  19.577  0.00  0.00    +0.000 N 
ATOM     11  C   UNL     1       0.399  12.117  20.096  0.00  0.00    +0.000 C 
ATOM     12  C   UNL     1      -0.835  12.805  20.704  0.00  0.00    +0.000 C 
ATOM     13  O   UNL     1      -1.889  12.935  19.728  0.00  0.00    +0.000 OA
ATOM     14  C   UNL     1      -2.277  11.645  19.226  0.00  0.00    +0.000 C 
ATOM     15  C   UNL     1      -1.092  10.906  18.582  0.00  0.00    +0.000 C 
ENDBRANCH   6  10
ENDBRANCH   1   3
BRANCH   1  16
ATOM     16  C   UNL     1       2.228   4.718  19.878  0.00  0.00    +0.000 C 
ATOM     17  S   UNL     1       1.045   3.558  20.031  0.00  0.00    +0.000 S 
BRANCH  16  20
ATOM     18  O   UNL     1       4.768   3.098  19.744  0.00  0.00    +0.000 OA
ATOM     19  C   UNL     1       4.466   3.984  18.955  0.00  0.00    +0.000 C 
ATOM     20  N   UNL     1       3.294   4.726  18.983  0.00  0.00    +0.000 N 
ATOM     21  H   UNL     1       3.181   5.430  18.269  0.00  0.00    +0.000 HD
BRANCH  19  22
ATOM     22  C   UNL     1       5.382   4.263  17.817  0.00  0.00    +0.000 A 
ATOM     23  C   UNL     1       6.649   4.754  18.108  0.00  0.00    +0.000 A 
ATOM     24  N   UNL     1       7.596   5.014  17.171  0.00  0.00    +0.000 NA
ATOM     25  C   UNL     1       7.271   4.751  15.885  0.00  0.00    +0.000 A 
ATOM     26  C   UNL     1       6.041   4.245  15.499  0.00  0.00    +0.000 A 
ATOM     27 BR   UNL     1       5.679   3.867  13.686  0.00  0.00    +0.000 Br
ATOM     28  C   UNL     1       5.076   4.001  16.476  0.00  0.00    +0.000 A 
ENDBRANCH  19  22
ENDBRANCH  16  20
ENDBRANCH   1  16
TORSDOF 5
ENDMDL
MODEL 6
REMARK VINA RESULT:      -7.3      2.050      2.501
REMARK  Name = 
REMARK  5 active torsions:
REMARK  status: ('A' for Active; 'I' for Inactive)
REMARK    1  A    between atoms: C_2  and  C_20
REMARK    2  A    between atoms: N_3  and  C_4
REMARK    3  A    between atoms: C_4  and  N_6
REMARK    4  A    between atoms: N_6  and  C_7
REMARK    5  A    between atoms: C_10  and  N_11
REMARK                            x       y       z     vdW  Elec       q    Type
REMARK                         _______ _______ _______ _____ _____    ______ ____
ROOT
ATOM      1  N   UNL     1       1.967   5.973  21.081  0.00  0.00    +0.000 N 
ATOM      2  H   UNL     1       2.062   5.727  22.062  0.00  0.00    +0.000 HD
ENDROOT
BRANCH   1   3
ATOM      3  C   UNL     1       1.625   7.303  20.763  0.00  0.00    +0.000 A 
ATOM      4  C   UNL     1       0.980   8.122  21.685  0.00  0.00    +0.000 A 
ATOM      5  C   UNL     1       0.510   9.378  21.311  0.00  0.00    +0.000 A 
ATOM      6  C   UNL     1       0.708   9.900  20.023  0.00  0.00    +0.000 A 
ATOM      7  C   UNL     1       1.492   9.099  19.149  0.00  0.00    +0.000 A 
ATOM      8 CL   UNL     1       2.039   9.651  17.597  0.00  0.00    +0.000 Cl
ATOM      9  C   UNL     1       1.940   7.819  19.516  0.00  0.00    +0.000 A 
BRANCH   6  10
ATOM     10  N   UNL     1       0.167  11.134  19.717  0.00  0.00    +0.000 N 
ATOM     11  C   UNL     1      -1.253  11.366  19.405  0.00  0.00    +0.000 C 
ATOM     12  C   UNL     1      -1.337  12.183  18.105  0.00  0.00    +0.000 C 
ATOM     13  O   UNL     1      -0.621  13.429  18.230  0.00  0.00    +0.000 OA
ATOM     14  C   UNL     1       0.763  13.190  18.539  0.00  0.00    +0.000 C 
ATOM     15  C   UNL     1       0.923  12.392  19.843  0.00  0.00    +0.000 C 
ENDBRANCH   6  10
ENDBRANCH   1   3
BRANCH   1  16
ATOM     16  C   UNL     1       2.060   4.921  20.183  0.00  0.00    +0.000 C 
ATOM     17  S   UNL     1       0.970   3.668  20.284  0.00  0.00    +0.000 S 
BRANCH  16  20
ATOM     18  O   UNL     1       2.503   3.984  17.351  0.00  0.00    +0.000 OA
ATOM     19  C   UNL     1       3.340   4.565  18.030  0.00  0.00    +0.000 C 
ATOM     20  N   UNL     1       3.152   5.026  19.326  0.00  0.00    +0.000 N 
ATOM     21  H   UNL     1       3.935   5.483  19.767  0.00  0.00    +0.000 HD
BRANCH  19  22
ATOM     22  C   UNL     1       4.657   4.881  17.416  0.00  0.00    +0.000 A 
ATOM     23  C   UNL     1       5.100   4.072  16.376  0.00  0.00    +0.000 A 
ATOM     24  N   UNL     1       6.261   4.270  15.702  0.00  0.00    +0.000 NA
ATOM     25  C   UNL     1       7.004   5.339  16.068  0.00  0.00    +0.000 A 
ATOM     26  C   UNL     1       6.638   6.211  17.080  0.00  0.00    +0.000 A 
ATOM     27 BR   UNL     1       7.713   7.703  17.503  0.00  0.00    +0.000 Br
ATOM     28  C   UNL     1       5.450   5.980  17.771  0.00  0.00    +0.000 A 
ENDBRANCH  19  22
ENDBRANCH  16  20
ENDBRANCH   1  16
TORSDOF 5
ENDMDL
MODEL 7
REMARK VINA RESULT:      -7.3      1.183      1.242
REMARK  Name = 
REMARK  5 active torsions:
REMARK  status: ('A' for Active; 'I' for Inactive)
REMARK    1  A    between atoms: C_2  and  C_20
REMARK    2  A    between atoms: N_3  and  C_4
REMARK    3  A    between atoms: C_4  and  N_6
REMARK    4  A    between atoms: N_6  and  C_7
REMARK    5  A    between atoms: C_10  and  N_11
REMARK                            x       y       z     vdW  Elec       q    Type
REMARK                         _______ _______ _______ _____ _____    ______ ____
ROOT
ATOM      1  N   UNL     1       2.838   6.046  20.080  0.00  0.00    +0.000 N 
ATOM      2  H   UNL     1       3.477   5.862  20.847  0.00  0.00    +0.000 HD
ENDROOT
BRANCH   1   3
ATOM      3  C   UNL     1       2.117   7.257  20.096  0.00  0.00    +0.000 A 
ATOM      4  C   UNL     1       1.286   7.588  21.162  0.00  0.00    +0.000 A 
ATOM      5  C   UNL     1       0.463   8.710  21.099  0.00  0.00    +0.000 A 
ATOM      6  C   UNL     1       0.468   9.583  19.999  0.00  0.00    +0.000 A 
ATOM      7  C   UNL     1       1.428   9.295  18.991  0.00  0.00    +0.000 A 
ATOM      8 CL   UNL     1       1.751  10.365  17.663  0.00  0.00    +0.000 Cl
ATOM      9  C   UNL     1       2.237   8.148  19.040  0.00  0.00    +0.000 A 
BRANCH   6  10
ATOM     10  N   UNL     1      -0.414  10.644  19.992  0.00  0.00    +0.000 N 
ATOM     11  C   UNL     1      -1.439  10.868  18.958  0.00  0.00    +0.000 C 
ATOM     12  C   UNL     1      -1.329  12.323  18.472  0.00  0.00    +0.000 C 
ATOM     13  O   UNL     1      -1.485  13.248  19.568  0.00  0.00    +0.000 OA
ATOM     14  C   UNL     1      -0.482  13.017  20.573  0.00  0.00    +0.000 C 
ATOM     15  C   UNL     1      -0.547  11.582  21.120  0.00  0.00    +0.000 C 
ENDBRANCH   6  10
ENDBRANCH   1   3
BRANCH   1  16
ATOM     16  C   UNL     1       2.663   5.008  19.178  0.00  0.00    +0.000 C 
ATOM     17  S   UNL     1       1.460   3.891  19.449  0.00  0.00    +0.000 S 
BRANCH  16  20
ATOM     18  O   UNL     1       4.049   2.758  17.724  0.00  0.00    +0.000 OA
ATOM     19  C   UNL     1       4.253   3.948  17.519  0.00  0.00    +0.000 C 
ATOM     20  N   UNL     1       3.612   5.000  18.159  0.00  0.00    +0.000 N 
ATOM     21  H   UNL     1       3.886   5.933  17.892  0.00  0.00    +0.000 HD
BRANCH  19  22
ATOM     22  C   UNL     1       5.214   4.330  16.451  0.00  0.00    +0.000 A 
ATOM     23  C   UNL     1       6.241   5.206  16.784  0.00  0.00    +0.000 A 
ATOM     24  N   UNL     1       7.207   5.605  15.919  0.00  0.00    +0.000 NA
ATOM     25  C   UNL     1       7.160   5.089  14.670  0.00  0.00    +0.000 A 
ATOM     26  C   UNL     1       6.187   4.198  14.250  0.00  0.00    +0.000 A 
ATOM     27 BR   UNL     1       6.215   3.492  12.500  0.00  0.00    +0.000 Br
ATOM     28  C   UNL     1       5.193   3.813  15.150  0.00  0.00    +0.000 A 
ENDBRANCH  19  22
ENDBRANCH  16  20
ENDBRANCH   1  16
TORSDOF 5
ENDMDL
MODEL 8
REMARK VINA RESULT:      -7.3      4.420      9.118
REMARK  Name = 
REMARK  5 active torsions:
REMARK  status: ('A' for Active; 'I' for Inactive)
REMARK    1  A    between atoms: C_2  and  C_20
REMARK    2  A    between atoms: N_3  and  C_4
REMARK    3  A    between atoms: C_4  and  N_6
REMARK    4  A    between atoms: N_6  and  C_7
REMARK    5  A    between atoms: C_10  and  N_11
REMARK                            x       y       z     vdW  Elec       q    Type
REMARK                         _______ _______ _______ _____ _____    ______ ____
ROOT
ATOM      1  N   UNL     1       1.395   9.483  19.490  0.00  0.00    +0.000 N 
ATOM      2  H   UNL     1       1.807  10.280  19.014  0.00  0.00    +0.000 HD
ENDROOT
BRANCH   1   3
ATOM      3  C   UNL     1       1.972   8.215  19.277  0.00  0.00    +0.000 A 
ATOM      4  C   UNL     1       2.698   7.937  18.123  0.00  0.00    +0.000 A 
ATOM      5  C   UNL     1       3.131   6.642  17.852  0.00  0.00    +0.000 A 
ATOM      6  C   UNL     1       2.911   5.576  18.738  0.00  0.00    +0.000 A 
ATOM      7  C   UNL     1       2.291   5.920  19.970  0.00  0.00    +0.000 A 
ATOM      8 CL   UNL     1       2.127   4.803  21.289  0.00  0.00    +0.000 Cl
ATOM      9  C   UNL     1       1.827   7.220  20.232  0.00  0.00    +0.000 A 
BRANCH   6  10
ATOM     10  N   UNL     1       3.328   4.312  18.372  0.00  0.00    +0.000 N 
ATOM     11  C   UNL     1       2.737   3.524  17.277  0.00  0.00    +0.000 C 
ATOM     12  C   UNL     1       2.417   2.118  17.808  0.00  0.00    +0.000 C 
ATOM     13  O   UNL     1       3.602   1.478  18.328  0.00  0.00    +0.000 OA
ATOM     14  C   UNL     1       4.172   2.258  19.393  0.00  0.00    +0.000 C 
ATOM     15  C   UNL     1       4.537   3.677  18.925  0.00  0.00    +0.000 C 
ENDBRANCH   6  10
ENDBRANCH   1   3
BRANCH   1  16
ATOM     16  C   UNL     1       0.226   9.737  20.190  0.00  0.00    +0.000 C 
ATOM     17  S   UNL     1       0.194   9.490  21.835  0.00  0.00    +0.000 S 
BRANCH  16  20
ATOM     18  O   UNL     1      -0.793  12.433  19.302  0.00  0.00    +0.000 OA
ATOM     19  C   UNL     1      -1.299  11.362  18.993  0.00  0.00    +0.000 C 
ATOM     20  N   UNL     1      -0.836  10.109  19.370  0.00  0.00    +0.000 N 
ATOM     21  H   UNL     1      -1.359   9.311  19.045  0.00  0.00    +0.000 HD
BRANCH  19  22
ATOM     22  C   UNL     1      -2.472  11.369  18.078  0.00  0.00    +0.000 A 
ATOM     23  C   UNL     1      -2.249  11.096  16.733  0.00  0.00    +0.000 A 
ATOM     24  N   UNL     1      -3.231  11.031  15.799  0.00  0.00    +0.000 NA
ATOM     25  C   UNL     1      -4.498  11.226  16.231  0.00  0.00    +0.000 A 
ATOM     26  C   UNL     1      -4.821  11.487  17.552  0.00  0.00    +0.000 A 
ATOM     27 BR   UNL     1      -6.619  11.707  18.081  0.00  0.00    +0.000 Br
ATOM     28  C   UNL     1      -3.795  11.566  18.493  0.00  0.00    +0.000 A 
ENDBRANCH  19  22
ENDBRANCH  16  20
ENDBRANCH   1  16
TORSDOF 5
ENDMDL
MODEL 9
REMARK VINA RESULT:      -7.3      1.759      2.373
REMARK  Name = 
REMARK  5 active torsions:
REMARK  status: ('A' for Active; 'I' for Inactive)
REMARK    1  A    between atoms: C_2  and  C_20
REMARK    2  A    between atoms: N_3  and  C_4
REMARK    3  A    between atoms: C_4  and  N_6
REMARK    4  A    between atoms: N_6  and  C_7
REMARK    5  A    between atoms: C_10  and  N_11
REMARK                            x       y       z     vdW  Elec       q    Type
REMARK                         _______ _______ _______ _____ _____    ______ ____
ROOT
ATOM      1  N   UNL     1       2.546   6.131  20.493  0.00  0.00    +0.000 N 
ATOM      2  H   UNL     1       3.061   6.040  21.364  0.00  0.00    +0.000 HD
ENDROOT
BRANCH   1   3
ATOM      3  C   UNL     1       1.905   7.359  20.229  0.00  0.00    +0.000 A 
ATOM      4  C   UNL     1       1.997   7.967  18.982  0.00  0.00    +0.000 A 
ATOM      5  C   UNL     1       1.491   9.248  18.777  0.00  0.00    +0.000 A 
ATOM      6  C   UNL     1       0.824   9.961  19.787  0.00  0.00    +0.000 A 
ATOM      7  C   UNL     1       0.624   9.258  21.006  0.00  0.00    +0.000 A 
ATOM      8 CL   UNL     1      -0.362   9.868  22.297  0.00  0.00    +0.000 Cl
ATOM      9  C   UNL     1       1.160   7.977  21.222  0.00  0.00    +0.000 A 
BRANCH   6  10
ATOM     10  N   UNL     1       0.397  11.247  19.519  0.00  0.00    +0.000 N 
ATOM     11  C   UNL     1       1.053  12.464  20.024  0.00  0.00    +0.000 C 
ATOM     12  C   UNL     1      -0.019  13.367  20.655  0.00  0.00    +0.000 C 
ATOM     13  O   UNL     1      -1.051  13.691  19.699  0.00  0.00    +0.000 OA
ATOM     14  C   UNL     1      -1.681  12.494  19.210  0.00  0.00    +0.000 C 
ATOM     15  C   UNL     1      -0.666  11.549  18.546  0.00  0.00    +0.000 C 
ENDBRANCH   6  10
ENDBRANCH   1   3
BRANCH   1  16
ATOM     16  C   UNL     1       2.434   4.976  19.735  0.00  0.00    +0.000 C 
ATOM     17  S   UNL     1       1.232   3.883  20.093  0.00  0.00    +0.000 S 
BRANCH  16  20
ATOM     18  O   UNL     1       2.489   3.647  17.028  0.00  0.00    +0.000 OA
ATOM     19  C   UNL     1       3.444   4.209  17.546  0.00  0.00    +0.000 C 
ATOM     20  N   UNL     1       3.437   4.847  18.779  0.00  0.00    +0.000 N 
ATOM     21  H   UNL     1       4.304   5.265  19.083  0.00  0.00    +0.000 HD
BRANCH  19  22
ATOM     22  C   UNL     1       4.717   4.294  16.781  0.00  0.00    +0.000 A 
ATOM     23  C   UNL     1       5.886   4.543  17.492  0.00  0.00    +0.000 A 
ATOM     24  N   UNL     1       7.118   4.605  16.927  0.00  0.00    +0.000 NA
ATOM     25  C   UNL     1       7.191   4.387  15.594  0.00  0.00    +0.000 A 
ATOM     26  C   UNL     1       6.085   4.115  14.805  0.00  0.00    +0.000 A 
ATOM     27 BR   UNL     1       6.276   3.783  12.958  0.00  0.00    +0.000 Br
ATOM     28  C   UNL     1       4.826   4.072  15.403  0.00  0.00    +0.000 A 
ENDBRANCH  19  22
ENDBRANCH  16  20
ENDBRANCH   1  16
TORSDOF 5
ENDMDL
