MODEL 1
REMARK VINA RESULT:      -6.9      0.000      0.000
REMARK  Name = 
REMARK  8 active torsions:
REMARK  status: ('A' for Active; 'I' for Inactive)
REMARK    1  A    between atoms: C_1  and  C_2
REMARK    2  A    between atoms: C_2  and  O_4
REMARK    3  A    between atoms: O_4  and  C_5
REMARK    4  A    between atoms: C_5  and  C_6
REMARK    5  A    between atoms: CA_7  and  C_8
REMARK    6  A    between atoms: CA_14  and  N_15
REMARK    7  A    between atoms: C_16  and  C_18
REMARK    8  A    between atoms: C_18  and  C_19
REMARK                            x       y       z     vdW  Elec       q    Type
REMARK                         _______ _______ _______ _____ _____    ______ ____
ROOT
ATOM      1  C   UNL     1       2.105   5.988  20.240  0.00  0.00    +0.000 C 
ATOM      2  CA  UNL     1       2.402   4.661  20.239  0.00  0.00    +0.000 C 
ATOM      3  N   UNL     1       3.380   4.215  19.394  0.00  0.00    +0.000 N 
ATOM      4  C   UNL     1       3.625   3.086  18.693  0.00  0.00    +0.000 C 
ATOM      5  O   UNL     1       3.028   2.050  18.524  0.00  0.00    +0.000 OA
ATOM      6  CA  UNL     1       4.898   3.742  18.088  0.00  0.00    +0.000 C 
ATOM      7  C   UNL     1       4.382   5.043  18.765  0.00  0.00    +0.000 C 
ATOM      8  S   UNL     1       3.475   6.256  17.770  0.00  0.00    +0.000 S 
ATOM      9  C   UNL     1       2.680   6.988  19.239  0.00  0.00    +0.000 C 
ENDROOT
BRANCH   6  10
ATOM     10  N   UNL     1       5.054   3.713  16.604  0.00  0.00    +0.000 N 
ATOM     11  C   UNL     1       6.268   4.037  16.032  0.00  0.00    +0.000 C 
ATOM     12  O   UNL     1       7.208   4.451  16.709  0.00  0.00    +0.000 OA
ATOM     13  H   UNL     1       4.304   3.320  16.044  0.00  0.00    +0.000 HD
BRANCH  11  14
ATOM     14  C   UNL     1       6.359   3.869  14.534  0.00  0.00    +0.000 C 
BRANCH  14  15
ATOM     15  C   UNL     1       7.274   4.863  13.955  0.00  0.00    +0.000 C 
ATOM     16  N   UNL     1       8.020   5.615  13.489  0.00  0.00    +0.000 NA
ENDBRANCH  14  15
ENDBRANCH  11  14
ENDBRANCH   6  10
BRANCH   2  17
ATOM     17  C   UNL     1       1.812   3.627  21.245  0.00  0.00    +0.000 C 
ATOM     18  O   UNL     1       0.831   2.934  20.826  0.00  0.00    +0.000 OA
ATOM     19  OXT UNL     1       2.528   3.214  22.203  0.00  0.00    +0.000 OA
ENDBRANCH   2  17
BRANCH   1  20
ATOM     20  C   UNL     1       1.150   6.672  21.200  0.00  0.00    +0.000 C 
BRANCH  20  21
ATOM     21  O   UNL     1       1.233   8.097  21.026  0.00  0.00    +0.000 OA
BRANCH  21  23
ATOM     22  C   UNL     1      -0.011   9.949  20.352  0.00  0.00    +0.000 C 
ATOM     23  C   UNL     1       0.121   8.820  21.333  0.00  0.00    +0.000 C 
ATOM     24  O   UNL     1      -0.668   8.610  22.250  0.00  0.00    +0.000 OA
ENDBRANCH  21  23
ENDBRANCH  20  21
ENDBRANCH   1  20
TORSDOF 7
ENDMDL
MODEL 2
REMARK VINA RESULT:      -6.7      1.123      1.362
REMARK  Name = 
REMARK  8 active torsions:
REMARK  status: ('A' for Active; 'I' for Inactive)
REMARK    1  A    between atoms: C_1  and  C_2
REMARK    2  A    between atoms: C_2  and  O_4
REMARK    3  A    between atoms: O_4  and  C_5
REMARK    4  A    between atoms: C_5  and  C_6
REMARK    5  A    between atoms: CA_7  and  C_8
REMARK    6  A    between atoms: CA_14  and  N_15
REMARK    7  A    between atoms: C_16  and  C_18
REMARK    8  A    between atoms: C_18  and  C_19
REMARK                            x       y       z     vdW  Elec       q    Type
REMARK                         _______ _______ _______ _____ _____    ______ ____
ROOT
ATOM      1  C   UNL     1       2.232   6.095  20.121  0.00  0.00    +0.000 C 
ATOM      2  CA  UNL     1       2.573   4.780  20.063  0.00  0.00    +0.000 C 
ATOM      3  N   UNL     1       3.663   4.423  19.317  0.00  0.00    +0.000 N 
ATOM      4  C   UNL     1       4.032   3.357  18.574  0.00  0.00    +0.000 C 
ATOM      5  O   UNL     1       3.496   2.321  18.258  0.00  0.00    +0.000 OA
ATOM      6  CA  UNL     1       5.346   4.088  18.183  0.00  0.00    +0.000 C 
ATOM      7  C   UNL     1       4.706   5.321  18.880  0.00  0.00    +0.000 C 
ATOM      8  S   UNL     1       3.887   6.582  17.868  0.00  0.00    +0.000 S 
ATOM      9  C   UNL     1       2.893   7.182  19.274  0.00  0.00    +0.000 C 
ENDROOT
BRANCH   6  10
ATOM     10  N   UNL     1       5.686   4.175  16.732  0.00  0.00    +0.000 N 
ATOM     11  C   UNL     1       6.947   4.579  16.342  0.00  0.00    +0.000 C 
ATOM     12  O   UNL     1       7.778   4.970  17.159  0.00  0.00    +0.000 OA
ATOM     13  H   UNL     1       5.027   3.801  16.056  0.00  0.00    +0.000 HD
BRANCH  11  14
ATOM     14  C   UNL     1       7.229   4.525  14.859  0.00  0.00    +0.000 C 
BRANCH  14  15
ATOM     15  C   UNL     1       6.027   4.114  14.118  0.00  0.00    +0.000 C 
ATOM     16  N   UNL     1       5.102   3.800  13.499  0.00  0.00    +0.000 NA
ENDBRANCH  14  15
ENDBRANCH  11  14
ENDBRANCH   6  10
BRANCH   2  17
ATOM     17  C   UNL     1       1.899   3.658  20.910  0.00  0.00    +0.000 C 
ATOM     18  O   UNL     1       2.289   3.557  22.117  0.00  0.00    +0.000 OA
ATOM     19  OXT UNL     1       0.770   3.208  20.559  0.00  0.00    +0.000 OA
ENDBRANCH   2  17
BRANCH   1  20
ATOM     20  C   UNL     1       1.143   6.680  20.999  0.00  0.00    +0.000 C 
BRANCH  20  21
ATOM     21  O   UNL     1       1.112   8.110  20.837  0.00  0.00    +0.000 OA
BRANCH  21  23
ATOM     22  C   UNL     1      -0.490   8.974  22.292  0.00  0.00    +0.000 C 
ATOM     23  C   UNL     1       0.971   8.853  21.969  0.00  0.00    +0.000 C 
ATOM     24  O   UNL     1       1.867   9.354  22.642  0.00  0.00    +0.000 OA
ENDBRANCH  21  23
ENDBRANCH  20  21
ENDBRANCH   1  20
TORSDOF 7
ENDMDL
MODEL 3
REMARK VINA RESULT:      -6.6      0.705      1.046
REMARK  Name = 
REMARK  8 active torsions:
REMARK  status: ('A' for Active; 'I' for Inactive)
REMARK    1  A    between atoms: C_1  and  C_2
REMARK    2  A    between atoms: C_2  and  O_4
REMARK    3  A    between atoms: O_4  and  C_5
REMARK    4  A    between atoms: C_5  and  C_6
REMARK    5  A    between atoms: CA_7  and  C_8
REMARK    6  A    between atoms: CA_14  and  N_15
REMARK    7  A    between atoms: C_16  and  C_18
REMARK    8  A    between atoms: C_18  and  C_19
REMARK                            x       y       z     vdW  Elec       q    Type
REMARK                         _______ _______ _______ _____ _____    ______ ____
ROOT
ATOM      1  C   UNL     1       2.280   6.227  20.001  0.00  0.00    +0.000 C 
ATOM      2  CA  UNL     1       2.554   4.898  19.908  0.00  0.00    +0.000 C 
ATOM      3  N   UNL     1       3.524   4.495  19.031  0.00  0.00    +0.000 N 
ATOM      4  C   UNL     1       3.748   3.413  18.253  0.00  0.00    +0.000 C 
ATOM      5  O   UNL     1       3.133   2.401  18.015  0.00  0.00    +0.000 OA
ATOM      6  CA  UNL     1       5.031   4.088  17.691  0.00  0.00    +0.000 C 
ATOM      7  C   UNL     1       4.538   5.348  18.457  0.00  0.00    +0.000 C 
ATOM      8  S   UNL     1       3.649   6.641  17.551  0.00  0.00    +0.000 S 
ATOM      9  C   UNL     1       2.870   7.284  19.069  0.00  0.00    +0.000 C 
ENDROOT
BRANCH   6  10
ATOM     10  N   UNL     1       5.184   4.159  16.208  0.00  0.00    +0.000 N 
ATOM     11  C   UNL     1       6.443   4.237  15.648  0.00  0.00    +0.000 C 
ATOM     12  O   UNL     1       7.450   4.353  16.344  0.00  0.00    +0.000 OA
ATOM     13  H   UNL     1       4.365   4.007  15.628  0.00  0.00    +0.000 HD
BRANCH  11  14
ATOM     14  C   UNL     1       6.499   4.190  14.139  0.00  0.00    +0.000 C 
BRANCH  14  15
ATOM     15  C   UNL     1       7.564   5.067  13.633  0.00  0.00    +0.000 C 
ATOM     16  N   UNL     1       8.391   5.787  13.262  0.00  0.00    +0.000 NA
ENDBRANCH  14  15
ENDBRANCH  11  14
ENDBRANCH   6  10
BRANCH   2  17
ATOM     17  C   UNL     1       1.949   3.807  20.843  0.00  0.00    +0.000 C 
ATOM     18  O   UNL     1       2.517   3.659  21.971  0.00  0.00    +0.000 OA
ATOM     19  OXT UNL     1       0.752   3.437  20.671  0.00  0.00    +0.000 OA
ENDBRANCH   2  17
BRANCH   1  20
ATOM     20  C   UNL     1       1.338   6.858  21.009  0.00  0.00    +0.000 C 
BRANCH  20  21
ATOM     21  O   UNL     1       1.558   8.280  21.046  0.00  0.00    +0.000 OA
BRANCH  21  23
ATOM     22  C   UNL     1       0.335   9.292  22.752  0.00  0.00    +0.000 C 
ATOM     23  C   UNL     1       0.469   9.064  21.274  0.00  0.00    +0.000 C 
ATOM     24  O   UNL     1      -0.296   9.530  20.434  0.00  0.00    +0.000 OA
ENDBRANCH  21  23
ENDBRANCH  20  21
ENDBRANCH   1  20
TORSDOF 7
ENDMDL
MODEL 4
REMARK VINA RESULT:      -6.4      2.373      7.499
REMARK  Name = 
REMARK  8 active torsions:
REMARK  status: ('A' for Active; 'I' for Inactive)
REMARK    1  A    between atoms: C_1  and  C_2
REMARK    2  A    between atoms: C_2  and  O_4
REMARK    3  A    between atoms: O_4  and  C_5
REMARK    4  A    between atoms: C_5  and  C_6
REMARK    5  A    between atoms: CA_7  and  C_8
REMARK    6  A    between atoms: CA_14  and  N_15
REMARK    7  A    between atoms: C_16  and  C_18
REMARK    8  A    between atoms: C_18  and  C_19
REMARK                            x       y       z     vdW  Elec       q    Type
REMARK                         _______ _______ _______ _____ _____    ______ ____
ROOT
ATOM      1  C   UNL     1       4.467   4.642  17.170  0.00  0.00    +0.000 C 
ATOM      2  CA  UNL     1       3.713   4.140  18.185  0.00  0.00    +0.000 C 
ATOM      3  N   UNL     1       2.906   4.997  18.881  0.00  0.00    +0.000 N 
ATOM      4  C   UNL     1       2.460   5.104  20.152  0.00  0.00    +0.000 C 
ATOM      5  O   UNL     1       2.655   4.485  21.170  0.00  0.00    +0.000 OA
ATOM      6  CA  UNL     1       1.731   6.426  19.781  0.00  0.00    +0.000 C 
ATOM      7  C   UNL     1       2.488   6.303  18.428  0.00  0.00    +0.000 C 
ATOM      8  S   UNL     1       4.010   7.255  18.178  0.00  0.00    +0.000 S 
ATOM      9  C   UNL     1       4.592   6.134  16.864  0.00  0.00    +0.000 C 
ENDROOT
BRANCH   6  10
ATOM     10  N   UNL     1       1.980   7.620  20.642  0.00  0.00    +0.000 N 
ATOM     11  C   UNL     1       0.943   8.179  21.362  0.00  0.00    +0.000 C 
ATOM     12  O   UNL     1      -0.214   7.781  21.237  0.00  0.00    +0.000 OA
ATOM     13  H   UNL     1       2.938   7.918  20.794  0.00  0.00    +0.000 HD
BRANCH  11  14
ATOM     14  C   UNL     1       1.318   9.310  22.289  0.00  0.00    +0.000 C 
BRANCH  14  15
ATOM     15  C   UNL     1       0.117   9.892  22.907  0.00  0.00    +0.000 C 
ATOM     16  N   UNL     1      -0.851  10.324  23.371  0.00  0.00    +0.000 NA
ENDBRANCH  14  15
ENDBRANCH  11  14
ENDBRANCH   6  10
BRANCH   2  17
ATOM     17  C   UNL     1       3.587   2.622  18.519  0.00  0.00    +0.000 C 
ATOM     18  O   UNL     1       4.328   2.191  19.458  0.00  0.00    +0.000 OA
ATOM     19  OXT UNL     1       2.534   2.001  18.193  0.00  0.00    +0.000 OA
ENDBRANCH   2  17
BRANCH   1  20
ATOM     20  C   UNL     1       5.311   3.820  16.215  0.00  0.00    +0.000 C 
BRANCH  20  21
ATOM     21  O   UNL     1       5.286   4.426  14.910  0.00  0.00    +0.000 OA
BRANCH  21  23
ATOM     22  C   UNL     1       6.408   3.766  12.977  0.00  0.00    +0.000 C 
ATOM     23  C   UNL     1       6.479   4.538  14.263  0.00  0.00    +0.000 C 
ATOM     24  O   UNL     1       7.467   5.163  14.636  0.00  0.00    +0.000 OA
ENDBRANCH  21  23
ENDBRANCH  20  21
ENDBRANCH   1  20
TORSDOF 7
ENDMDL
MODEL 5
REMARK VINA RESULT:      -6.1      3.782      6.629
REMARK  Name = 
REMARK  8 active torsions:
REMARK  status: ('A' for Active; 'I' for Inactive)
REMARK    1  A    between atoms: C_1  and  C_2
REMARK    2  A    between atoms: C_2  and  O_4
REMARK    3  A    between atoms: O_4  and  C_5
REMARK    4  A    between atoms: C_5  and  C_6
REMARK    5  A    between atoms: CA_7  and  C_8
REMARK    6  A    between atoms: CA_14  and  N_15
REMARK    7  A    between atoms: C_16  and  C_18
REMARK    8  A    between atoms: C_18  and  C_19
REMARK                            x       y       z     vdW  Elec       q    Type
REMARK                         _______ _______ _______ _____ _____    ______ ____
ROOT
ATOM      1  C   UNL     1       6.518   7.003  17.429  0.00  0.00    +0.000 C 
ATOM      2  CA  UNL     1       6.638   5.704  17.815  0.00  0.00    +0.000 C 
ATOM      3  N   UNL     1       5.517   4.920  17.814  0.00  0.00    +0.000 N 
ATOM      4  C   UNL     1       5.049   3.884  18.544  0.00  0.00    +0.000 C 
ATOM      5  O   UNL     1       5.448   3.287  19.516  0.00  0.00    +0.000 OA
ATOM      6  CA  UNL     1       3.737   3.894  17.711  0.00  0.00    +0.000 C 
ATOM      7  C   UNL     1       4.293   5.213  17.105  0.00  0.00    +0.000 C 
ATOM      8  S   UNL     1       3.707   6.800  17.757  0.00  0.00    +0.000 S 
ATOM      9  C   UNL     1       5.180   7.686  17.150  0.00  0.00    +0.000 C 
ENDROOT
BRANCH   6  10
ATOM     10  N   UNL     1       2.444   3.929  18.456  0.00  0.00    +0.000 N 
ATOM     11  C   UNL     1       1.949   2.777  19.034  0.00  0.00    +0.000 C 
ATOM     12  O   UNL     1       2.496   1.688  18.868  0.00  0.00    +0.000 OA
ATOM     13  H   UNL     1       2.017   4.830  18.645  0.00  0.00    +0.000 HD
BRANCH  11  14
ATOM     14  C   UNL     1       0.695   2.939  19.860  0.00  0.00    +0.000 C 
BRANCH  14  15
ATOM     15  C   UNL     1       0.992   2.770  21.290  0.00  0.00    +0.000 C 
ATOM     16  N   UNL     1       1.233   2.596  22.408  0.00  0.00    +0.000 NA
ENDBRANCH  14  15
ENDBRANCH  11  14
ENDBRANCH   6  10
BRANCH   2  17
ATOM     17  C   UNL     1       7.994   4.998  18.116  0.00  0.00    +0.000 C 
ATOM     18  O   UNL     1       8.379   5.016  19.328  0.00  0.00    +0.000 OA
ATOM     19  OXT UNL     1       8.426   4.116  17.317  0.00  0.00    +0.000 OA
ENDBRANCH   2  17
BRANCH   1  20
ATOM     20  C   UNL     1       7.670   7.972  17.243  0.00  0.00    +0.000 C 
BRANCH  20  21
ATOM     21  O   UNL     1       8.286   8.235  18.516  0.00  0.00    +0.000 OA
BRANCH  21  23
ATOM     22  C   UNL     1       8.264  10.380  17.606  0.00  0.00    +0.000 C 
ATOM     23  C   UNL     1       8.720   9.506  18.738  0.00  0.00    +0.000 C 
ATOM     24  O   UNL     1       9.373   9.907  19.697  0.00  0.00    +0.000 OA
ENDBRANCH  21  23
ENDBRANCH  20  21
ENDBRANCH   1  20
TORSDOF 7
ENDMDL
MODEL 6
REMARK VINA RESULT:      -6.1      2.211      7.177
REMARK  Name = 
REMARK  8 active torsions:
REMARK  status: ('A' for Active; 'I' for Inactive)
REMARK    1  A    between atoms: C_1  and  C_2
REMARK    2  A    between atoms: C_2  and  O_4
REMARK    3  A    between atoms: O_4  and  C_5
REMARK    4  A    between atoms: C_5  and  C_6
REMARK    5  A    between atoms: CA_7  and  C_8
REMARK    6  A    between atoms: CA_14  and  N_15
REMARK    7  A    between atoms: C_16  and  C_18
REMARK    8  A    between atoms: C_18  and  C_19
REMARK                            x       y       z     vdW  Elec       q    Type
REMARK                         _______ _______ _______ _____ _____    ______ ____
ROOT
ATOM      1  C   UNL     1       4.182   4.512  17.490  0.00  0.00    +0.000 C 
ATOM      2  CA  UNL     1       3.530   3.994  18.566  0.00  0.00    +0.000 C 
ATOM      3  N   UNL     1       2.724   4.823  19.297  0.00  0.00    +0.000 N 
ATOM      4  C   UNL     1       2.360   4.938  20.593  0.00  0.00    +0.000 C 
ATOM      5  O   UNL     1       2.660   4.358  21.610  0.00  0.00    +0.000 OA
ATOM      6  CA  UNL     1       1.533   6.207  20.245  0.00  0.00    +0.000 C 
ATOM      7  C   UNL     1       2.201   6.092  18.846  0.00  0.00    +0.000 C 
ATOM      8  S   UNL     1       3.645   7.120  18.469  0.00  0.00    +0.000 S 
ATOM      9  C   UNL     1       4.200   5.999  17.142  0.00  0.00    +0.000 C 
ENDROOT
BRANCH   6  10
ATOM     10  N   UNL     1       1.771   7.435  21.060  0.00  0.00    +0.000 N 
ATOM     11  C   UNL     1       0.700   8.164  21.536  0.00  0.00    +0.000 C 
ATOM     12  O   UNL     1      -0.457   7.888  21.223  0.00  0.00    +0.000 OA
ATOM     13  H   UNL     1       2.716   7.637  21.369  0.00  0.00    +0.000 HD
BRANCH  11  14
ATOM     14  C   UNL     1       1.041   9.322  22.444  0.00  0.00    +0.000 C 
BRANCH  14  15
ATOM     15  C   UNL     1       0.850  10.601  21.745  0.00  0.00    +0.000 C 
ATOM     16  N   UNL     1       0.672  11.619  21.223  0.00  0.00    +0.000 NA
ENDBRANCH  14  15
ENDBRANCH  11  14
ENDBRANCH   6  10
BRANCH   2  17
ATOM     17  C   UNL     1       3.515   2.482  18.941  0.00  0.00    +0.000 C 
ATOM     18  O   UNL     1       2.807   1.728  18.200  0.00  0.00    +0.000 OA
ATOM     19  OXT UNL     1       4.464   2.002  19.627  0.00  0.00    +0.000 OA
ENDBRANCH   2  17
BRANCH   1  20
ATOM     20  C   UNL     1       5.005   3.714  16.497  0.00  0.00    +0.000 C 
BRANCH  20  21
ATOM     21  O   UNL     1       6.357   4.205  16.490  0.00  0.00    +0.000 OA
BRANCH  21  23
ATOM     22  C   UNL     1       6.155   3.861  14.194  0.00  0.00    +0.000 C 
ATOM     23  C   UNL     1       6.858   4.608  15.290  0.00  0.00    +0.000 C 
ATOM     24  O   UNL     1       7.736   5.445  15.098  0.00  0.00    +0.000 OA
ENDBRANCH  21  23
ENDBRANCH  20  21
ENDBRANCH   1  20
TORSDOF 7
ENDMDL
MODEL 7
REMARK VINA RESULT:      -6.0      2.363      7.289
REMARK  Name = 
REMARK  8 active torsions:
REMARK  status: ('A' for Active; 'I' for Inactive)
REMARK    1  A    between atoms: C_1  and  C_2
REMARK    2  A    between atoms: C_2  and  O_4
REMARK    3  A    between atoms: O_4  and  C_5
REMARK    4  A    between atoms: C_5  and  C_6
REMARK    5  A    between atoms: CA_7  and  C_8
REMARK    6  A    between atoms: CA_14  and  N_15
REMARK    7  A    between atoms: C_16  and  C_18
REMARK    8  A    between atoms: C_18  and  C_19
REMARK                            x       y       z     vdW  Elec       q    Type
REMARK                         _______ _______ _______ _____ _____    ______ ____
ROOT
ATOM      1  C   UNL     1       4.155   4.798  17.025  0.00  0.00    +0.000 C 
ATOM      2  CA  UNL     1       3.493   4.178  18.039  0.00  0.00    +0.000 C 
ATOM      3  N   UNL     1       2.738   4.943  18.885  0.00  0.00    +0.000 N 
ATOM      4  C   UNL     1       2.398   4.908  20.192  0.00  0.00    +0.000 C 
ATOM      5  O   UNL     1       2.683   4.189  21.120  0.00  0.00    +0.000 OA
ATOM      6  CA  UNL     1       1.630   6.249  20.024  0.00  0.00    +0.000 C 
ATOM      7  C   UNL     1       2.272   6.282  18.609  0.00  0.00    +0.000 C 
ATOM      8  S   UNL     1       3.760   7.281  18.338  0.00  0.00    +0.000 S 
ATOM      9  C   UNL     1       4.241   6.315  16.869  0.00  0.00    +0.000 C 
ENDROOT
BRANCH   6  10
ATOM     10  N   UNL     1       1.938   7.349  20.984  0.00  0.00    +0.000 N 
ATOM     11  C   UNL     1       0.947   8.234  21.360  0.00  0.00    +0.000 C 
ATOM     12  O   UNL     1      -0.170   8.204  20.848  0.00  0.00    +0.000 OA
ATOM     13  H   UNL     1       2.838   7.347  21.453  0.00  0.00    +0.000 HD
BRANCH  11  14
ATOM     14  C   UNL     1       1.328   9.240  22.420  0.00  0.00    +0.000 C 
BRANCH  14  15
ATOM     15  C   UNL     1       0.133   9.914  22.948  0.00  0.00    +0.000 C 
ATOM     16  N   UNL     1      -0.791  10.442  23.401  0.00  0.00    +0.000 NA
ENDBRANCH  14  15
ENDBRANCH  11  14
ENDBRANCH   6  10
BRANCH   2  17
ATOM     17  C   UNL     1       3.409   2.632  18.218  0.00  0.00    +0.000 C 
ATOM     18  O   UNL     1       4.188   2.125  19.087  0.00  0.00    +0.000 OA
ATOM     19  OXT UNL     1       2.359   2.022  17.862  0.00  0.00    +0.000 OA
ENDBRANCH   2  17
BRANCH   1  20
ATOM     20  C   UNL     1       4.925   4.095  15.922  0.00  0.00    +0.000 C 
BRANCH  20  21
ATOM     21  O   UNL     1       6.217   3.699  16.416  0.00  0.00    +0.000 OA
BRANCH  21  23
ATOM     22  C   UNL     1       7.723   4.706  17.881  0.00  0.00    +0.000 C 
ATOM     23  C   UNL     1       7.171   4.667  16.486  0.00  0.00    +0.000 C 
ATOM     24  O   UNL     1       7.547   5.403  15.577  0.00  0.00    +0.000 OA
ENDBRANCH  21  23
ENDBRANCH  20  21
ENDBRANCH   1  20
TORSDOF 7
ENDMDL
MODEL 8
REMARK VINA RESULT:      -5.8      2.239      7.275
REMARK  Name = 
REMARK  8 active torsions:
REMARK  status: ('A' for Active; 'I' for Inactive)
REMARK    1  A    between atoms: C_1  and  C_2
REMARK    2  A    between atoms: C_2  and  O_4
REMARK    3  A    between atoms: O_4  and  C_5
REMARK    4  A    between atoms: C_5  and  C_6
REMARK    5  A    between atoms: CA_7  and  C_8
REMARK    6  A    between atoms: CA_14  and  N_15
REMARK    7  A    between atoms: C_16  and  C_18
REMARK    8  A    between atoms: C_18  and  C_19
REMARK                            x       y       z     vdW  Elec       q    Type
REMARK                         _______ _______ _______ _____ _____    ______ ____
ROOT
ATOM      1  C   UNL     1       4.421   4.748  17.235  0.00  0.00    +0.000 C 
ATOM      2  CA  UNL     1       3.647   4.263  18.243  0.00  0.00    +0.000 C 
ATOM      3  N   UNL     1       2.823   5.131  18.905  0.00  0.00    +0.000 N 
ATOM      4  C   UNL     1       2.351   5.260  20.164  0.00  0.00    +0.000 C 
ATOM      5  O   UNL     1       2.524   4.660  21.198  0.00  0.00    +0.000 OA
ATOM      6  CA  UNL     1       1.629   6.574  19.755  0.00  0.00    +0.000 C 
ATOM      7  C   UNL     1       2.414   6.429  18.421  0.00  0.00    +0.000 C 
ATOM      8  S   UNL     1       3.940   7.377  18.186  0.00  0.00    +0.000 S 
ATOM      9  C   UNL     1       4.551   6.234  16.905  0.00  0.00    +0.000 C 
ENDROOT
BRANCH   6  10
ATOM     10  N   UNL     1       1.858   7.783  20.600  0.00  0.00    +0.000 N 
ATOM     11  C   UNL     1       1.141   8.938  20.360  0.00  0.00    +0.000 C 
ATOM     12  O   UNL     1       0.381   9.035  19.397  0.00  0.00    +0.000 OA
ATOM     13  H   UNL     1       2.439   7.694  21.427  0.00  0.00    +0.000 HD
BRANCH  11  14
ATOM     14  C   UNL     1       1.361  10.068  21.337  0.00  0.00    +0.000 C 
BRANCH  14  15
ATOM     15  C   UNL     1       0.732   9.764  22.631  0.00  0.00    +0.000 C 
ATOM     16  N   UNL     1       0.199   9.534  23.632  0.00  0.00    +0.000 NA
ENDBRANCH  14  15
ENDBRANCH  11  14
ENDBRANCH   6  10
BRANCH   2  17
ATOM     17  C   UNL     1       3.515   2.751  18.600  0.00  0.00    +0.000 C 
ATOM     18  O   UNL     1       2.864   2.035  17.774  0.00  0.00    +0.000 OA
ATOM     19  OXT UNL     1       4.352   2.224  19.390  0.00  0.00    +0.000 OA
ENDBRANCH   2  17
BRANCH   1  20
ATOM     20  C   UNL     1       5.286   3.910  16.313  0.00  0.00    +0.000 C 
BRANCH  20  21
ATOM     21  O   UNL     1       6.522   4.600  16.057  0.00  0.00    +0.000 OA
BRANCH  21  23
ATOM     22  C   UNL     1       5.984   3.900  13.900  0.00  0.00    +0.000 C 
ATOM     23  C   UNL     1       6.887   4.743  14.753  0.00  0.00    +0.000 C 
ATOM     24  O   UNL     1       7.795   5.442  14.312  0.00  0.00    +0.000 OA
ENDBRANCH  21  23
ENDBRANCH  20  21
ENDBRANCH   1  20
TORSDOF 7
ENDMDL
MODEL 9
REMARK VINA RESULT:      -5.8      3.755      6.453
REMARK  Name = 
REMARK  8 active torsions:
REMARK  status: ('A' for Active; 'I' for Inactive)
REMARK    1  A    between atoms: C_1  and  C_2
REMARK    2  A    between atoms: C_2  and  O_4
REMARK    3  A    between atoms: O_4  and  C_5
REMARK    4  A    between atoms: C_5  and  C_6
REMARK    5  A    between atoms: CA_7  and  C_8
REMARK    6  A    between atoms: CA_14  and  N_15
REMARK    7  A    between atoms: C_16  and  C_18
REMARK    8  A    between atoms: C_18  and  C_19
REMARK                            x       y       z     vdW  Elec       q    Type
REMARK                         _______ _______ _______ _____ _____    ______ ____
ROOT
ATOM      1  C   UNL     1       6.765   6.956  17.497  0.00  0.00    +0.000 C 
ATOM      2  CA  UNL     1       6.861   5.677  17.951  0.00  0.00    +0.000 C 
ATOM      3  N   UNL     1       5.789   4.845  17.778  0.00  0.00    +0.000 N 
ATOM      4  C   UNL     1       5.235   3.814  18.453  0.00  0.00    +0.000 C 
ATOM      5  O   UNL     1       5.472   3.267  19.504  0.00  0.00    +0.000 OA
ATOM      6  CA  UNL     1       4.097   3.738  17.397  0.00  0.00    +0.000 C 
ATOM      7  C   UNL     1       4.705   5.060  16.849  0.00  0.00    +0.000 C 
ATOM      8  S   UNL     1       3.951   6.640  17.319  0.00  0.00    +0.000 S 
ATOM      9  C   UNL     1       5.476   7.570  16.954  0.00  0.00    +0.000 C 
ENDROOT
BRANCH   6  10
ATOM     10  N   UNL     1       2.690   3.741  17.894  0.00  0.00    +0.000 N 
ATOM     11  C   UNL     1       2.060   2.549  18.189  0.00  0.00    +0.000 C 
ATOM     12  O   UNL     1       2.595   1.465  17.960  0.00  0.00    +0.000 OA
ATOM     13  H   UNL     1       2.263   4.629  18.139  0.00  0.00    +0.000 HD
BRANCH  11  14
ATOM     14  C   UNL     1       0.680   2.662  18.792  0.00  0.00    +0.000 C 
BRANCH  14  15
ATOM     15  C   UNL     1       0.662   3.671  19.860  0.00  0.00    +0.000 C 
ATOM     16  N   UNL     1       0.663   4.493  20.674  0.00  0.00    +0.000 NA
ENDBRANCH  14  15
ENDBRANCH  11  14
ENDBRANCH   6  10
BRANCH   2  17
ATOM     17  C   UNL     1       8.165   5.041  18.520  0.00  0.00    +0.000 C 
ATOM     18  O   UNL     1       8.405   5.261  19.749  0.00  0.00    +0.000 OA
ATOM     19  OXT UNL     1       8.678   4.045  17.932  0.00  0.00    +0.000 OA
ENDBRANCH   2  17
BRANCH   1  20
ATOM     20  C   UNL     1       7.895   7.968  17.483  0.00  0.00    +0.000 C 
BRANCH  20  21
ATOM     21  O   UNL     1       7.421   9.223  18.003  0.00  0.00    +0.000 OA
BRANCH  21  23
ATOM     22  C   UNL     1       9.312   9.816  19.228  0.00  0.00    +0.000 C 
ATOM     23  C   UNL     1       8.343  10.213  18.153  0.00  0.00    +0.000 C 
ATOM     24  O   UNL     1       8.404  11.268  17.526  0.00  0.00    +0.000 OA
ENDBRANCH  21  23
ENDBRANCH  20  21
ENDBRANCH   1  20
TORSDOF 7
ENDMDL
