MODEL 1
REMARK VINA RESULT:      -5.9      0.000      0.000
REMARK  Name = 
REMARK  5 active torsions:
REMARK  status: ('A' for Active; 'I' for Inactive)
REMARK    1  A    between atoms: C_1  and  C_2
REMARK    2  A    between atoms: C_2  and  N_3
REMARK    3  A    between atoms: C_11  and  C_13
REMARK    4  A    between atoms: N_23  and  C_24
REMARK    5  A    between atoms: N_23  and  C_25
REMARK                            x       y       z     vdW  Elec       q    Type
REMARK                         _______ _______ _______ _____ _____    ______ ____
ROOT
ATOM      1  N   UNL     1       0.924   8.275  20.380  0.00  0.00    +0.000 N 
ATOM      2  C   UNL     1       1.477   9.234  19.449  0.00  0.00    +0.000 C 
ATOM      3  C   UNL     1       0.448  10.388  19.352  0.00  0.00    +0.000 C 
ATOM      4  C   UNL     1      -0.433  10.177  20.595  0.00  0.00    +0.000 C 
ATOM      5  C   UNL     1      -0.197   8.766  21.036  0.00  0.00    +0.000 C 
ATOM      6  O   UNL     1      -0.824   8.209  21.922  0.00  0.00    +0.000 OA
ATOM      7  C   UNL     1      -0.338  10.260  18.026  0.00  0.00    +0.000 C 
ATOM      8  N   UNL     1      -1.494  11.160  17.925  0.00  0.00    +0.000 N 
ATOM      9  C   UNL     1      -2.771  10.575  18.024  0.00  0.00    +0.000 C 
ATOM     10  O   UNL     1      -2.887   9.355  18.148  0.00  0.00    +0.000 OA
ATOM     11  C   UNL     1      -1.183  12.589  17.947  0.00  0.00    +0.000 C 
ATOM     12  C   UNL     1      -0.890  13.159  19.342  0.00  0.00    +0.000 C 
ATOM     13  N   UNL     1       0.437  12.906  19.909  0.00  0.00    +0.000 N 
ATOM     14  C   UNL     1       1.100  13.688  20.863  0.00  0.00    +0.000 C 
ATOM     15  O   UNL     1       2.276  13.417  21.133  0.00  0.00    +0.000 OA
ATOM     16  N   UNL     1       0.493  14.746  21.507  0.00  0.00    +0.000 N 
ATOM     17  C   UNL     1      -0.837  15.323  21.356  0.00  0.00    +0.000 C 
ATOM     18  C   UNL     1       1.341  15.539  22.403  0.00  0.00    +0.000 C 
ATOM     19  C   UNL     1       1.195  11.747  19.391  0.00  0.00    +0.000 C 
ENDROOT
BRANCH   9  20
ATOM     20  C   UNL     1      -3.983  11.393  18.043  0.00  0.00    +0.000 A 
ATOM     21  C   UNL     1      -4.681  12.110  19.059  0.00  0.00    +0.000 A 
ATOM     22  C   UNL     1      -5.771  12.702  18.462  0.00  0.00    +0.000 A 
ATOM     23  O   UNL     1      -5.762  12.464  17.129  0.00  0.00    +0.000 OA
ATOM     24  C   UNL     1      -4.667  11.706  16.877  0.00  0.00    +0.000 A 
ENDBRANCH   9  20
BRANCH   1  26
ATOM     25  C   UNL     1       1.808   5.937  20.435  0.00  0.00    +0.000 C 
ATOM     26  C   UNL     1       1.762   7.308  21.075  0.00  0.00    +0.000 C 
ENDBRANCH   1  26
TORSDOF 2
ENDMDL
MODEL 2
REMARK VINA RESULT:      -5.6      3.085      4.240
REMARK  Name = 
REMARK  5 active torsions:
REMARK  status: ('A' for Active; 'I' for Inactive)
REMARK    1  A    between atoms: C_1  and  C_2
REMARK    2  A    between atoms: C_2  and  N_3
REMARK    3  A    between atoms: C_11  and  C_13
REMARK    4  A    between atoms: N_23  and  C_24
REMARK    5  A    between atoms: N_23  and  C_25
REMARK                            x       y       z     vdW  Elec       q    Type
REMARK                         _______ _______ _______ _____ _____    ______ ____
ROOT
ATOM      1  N   UNL     1      -0.482   9.761  21.395  0.00  0.00    +0.000 N 
ATOM      2  C   UNL     1      -0.701  10.600  20.238  0.00  0.00    +0.000 C 
ATOM      3  C   UNL     1      -0.977  12.025  20.782  0.00  0.00    +0.000 C 
ATOM      4  C   UNL     1      -0.462  11.954  22.229  0.00  0.00    +0.000 C 
ATOM      5  C   UNL     1      -0.373  10.499  22.566  0.00  0.00    +0.000 C 
ATOM      6  O   UNL     1      -0.117  10.065  23.678  0.00  0.00    +0.000 OA
ATOM      7  C   UNL     1      -2.494  12.317  20.695  0.00  0.00    +0.000 C 
ATOM      8  N   UNL     1      -2.909  13.543  21.388  0.00  0.00    +0.000 N 
ATOM      9  C   UNL     1      -3.632  13.387  22.587  0.00  0.00    +0.000 C 
ATOM     10  O   UNL     1      -3.927  12.262  22.991  0.00  0.00    +0.000 OA
ATOM     11  C   UNL     1      -2.338  14.785  20.866  0.00  0.00    +0.000 C 
ATOM     12  C   UNL     1      -0.891  15.057  21.300  0.00  0.00    +0.000 C 
ATOM     13  N   UNL     1       0.171  14.327  20.603  0.00  0.00    +0.000 N 
ATOM     14  C   UNL     1       1.502  14.734  20.449  0.00  0.00    +0.000 C 
ATOM     15  O   UNL     1       2.239  14.072  19.709  0.00  0.00    +0.000 OA
ATOM     16  N   UNL     1       2.017  15.843  21.088  0.00  0.00    +0.000 N 
ATOM     17  C   UNL     1       1.384  16.827  21.958  0.00  0.00    +0.000 C 
ATOM     18  C   UNL     1       3.397  16.208  20.751  0.00  0.00    +0.000 C 
ATOM     19  C   UNL     1      -0.193  13.059  19.933  0.00  0.00    +0.000 C 
ENDROOT
BRANCH   9  20
ATOM     20  C   UNL     1      -4.000  14.540  23.409  0.00  0.00    +0.000 A 
ATOM     21  C   UNL     1      -5.094  15.454  23.403  0.00  0.00    +0.000 A 
ATOM     22  C   UNL     1      -4.890  16.337  24.439  0.00  0.00    +0.000 A 
ATOM     23  O   UNL     1      -3.782  15.993  25.137  0.00  0.00    +0.000 OA
ATOM     24  C   UNL     1      -3.270  14.892  24.534  0.00  0.00    +0.000 A 
ENDBRANCH   9  20
BRANCH   1  26
ATOM     25  C   UNL     1       1.508   8.556  20.479  0.00  0.00    +0.000 C 
ATOM     26  C   UNL     1       0.240   8.500  21.304  0.00  0.00    +0.000 C 
ENDBRANCH   1  26
TORSDOF 2
ENDMDL
MODEL 3
REMARK VINA RESULT:      -5.6      2.913      4.377
REMARK  Name = 
REMARK  5 active torsions:
REMARK  status: ('A' for Active; 'I' for Inactive)
REMARK    1  A    between atoms: C_1  and  C_2
REMARK    2  A    between atoms: C_2  and  N_3
REMARK    3  A    between atoms: C_11  and  C_13
REMARK    4  A    between atoms: N_23  and  C_24
REMARK    5  A    between atoms: N_23  and  C_25
REMARK                            x       y       z     vdW  Elec       q    Type
REMARK                         _______ _______ _______ _____ _____    ______ ____
ROOT
ATOM      1  N   UNL     1       0.379   9.935  20.005  0.00  0.00    +0.000 N 
ATOM      2  C   UNL     1      -0.242  10.876  19.099  0.00  0.00    +0.000 C 
ATOM      3  C   UNL     1      -0.417  12.194  19.896  0.00  0.00    +0.000 C 
ATOM      4  C   UNL     1       0.531  12.008  21.093  0.00  0.00    +0.000 C 
ATOM      5  C   UNL     1       0.807  10.539  21.179  0.00  0.00    +0.000 C 
ATOM      6  O   UNL     1       1.424  10.008  22.088  0.00  0.00    +0.000 OA
ATOM      7  C   UNL     1      -1.898  12.341  20.316  0.00  0.00    +0.000 C 
ATOM      8  N   UNL     1      -2.146  13.431  21.268  0.00  0.00    +0.000 N 
ATOM      9  C   UNL     1      -2.445  13.067  22.595  0.00  0.00    +0.000 C 
ATOM     10  O   UNL     1      -2.531  11.879  22.907  0.00  0.00    +0.000 OA
ATOM     11  C   UNL     1      -1.842  14.776  20.778  0.00  0.00    +0.000 C 
ATOM     12  C   UNL     1      -0.350  15.139  20.786  0.00  0.00    +0.000 C 
ATOM     13  N   UNL     1       0.480  14.604  19.703  0.00  0.00    +0.000 N 
ATOM     14  C   UNL     1       1.668  15.157  19.212  0.00  0.00    +0.000 C 
ATOM     15  O   UNL     1       2.174  14.661  18.198  0.00  0.00    +0.000 OA
ATOM     16  N   UNL     1       2.292  16.230  19.814  0.00  0.00    +0.000 N 
ATOM     17  C   UNL     1       1.908  17.038  20.964  0.00  0.00    +0.000 C 
ATOM     18  C   UNL     1       3.472  16.768  19.129  0.00  0.00    +0.000 C 
ATOM     19  C   UNL     1      -0.001  13.392  19.004  0.00  0.00    +0.000 C 
ENDROOT
BRANCH   9  20
ATOM     20  C   UNL     1      -2.603  14.074  23.644  0.00  0.00    +0.000 A 
ATOM     21  C   UNL     1      -1.695  14.786  24.481  0.00  0.00    +0.000 A 
ATOM     22  C   UNL     1      -2.446  15.617  25.280  0.00  0.00    +0.000 A 
ATOM     23  O   UNL     1      -3.755  15.527  24.950  0.00  0.00    +0.000 OA
ATOM     24  C   UNL     1      -3.841  14.624  23.943  0.00  0.00    +0.000 A 
ENDBRANCH   9  20
BRANCH   1  26
ATOM     25  C   UNL     1       1.822   8.975  18.202  0.00  0.00    +0.000 C 
ATOM     26  C   UNL     1       1.109   8.771  19.522  0.00  0.00    +0.000 C 
ENDBRANCH   1  26
TORSDOF 2
ENDMDL
MODEL 4
REMARK VINA RESULT:      -5.5      4.427      7.240
REMARK  Name = 
REMARK  5 active torsions:
REMARK  status: ('A' for Active; 'I' for Inactive)
REMARK    1  A    between atoms: C_1  and  C_2
REMARK    2  A    between atoms: C_2  and  N_3
REMARK    3  A    between atoms: C_11  and  C_13
REMARK    4  A    between atoms: N_23  and  C_24
REMARK    5  A    between atoms: N_23  and  C_25
REMARK                            x       y       z     vdW  Elec       q    Type
REMARK                         _______ _______ _______ _____ _____    ______ ____
ROOT
ATOM      1  N   UNL     1      -4.100  10.563  18.193  0.00  0.00    +0.000 N 
ATOM      2  C   UNL     1      -5.540  10.700  18.203  0.00  0.00    +0.000 C 
ATOM      3  C   UNL     1      -5.843  12.049  18.901  0.00  0.00    +0.000 C 
ATOM      4  C   UNL     1      -4.491  12.781  18.852  0.00  0.00    +0.000 C 
ATOM      5  C   UNL     1      -3.459  11.729  18.592  0.00  0.00    +0.000 C 
ATOM      6  O   UNL     1      -2.255  11.927  18.612  0.00  0.00    +0.000 OA
ATOM      7  C   UNL     1      -6.329  11.777  20.345  0.00  0.00    +0.000 C 
ATOM      8  N   UNL     1      -6.430  12.980  21.180  0.00  0.00    +0.000 N 
ATOM      9  C   UNL     1      -5.464  13.140  22.192  0.00  0.00    +0.000 C 
ATOM     10  O   UNL     1      -4.608  12.273  22.375  0.00  0.00    +0.000 OA
ATOM     11  C   UNL     1      -7.395  13.982  20.727  0.00  0.00    +0.000 C 
ATOM     12  C   UNL     1      -6.910  14.858  19.563  0.00  0.00    +0.000 C 
ATOM     13  N   UNL     1      -6.948  14.277  18.219  0.00  0.00    +0.000 N 
ATOM     14  C   UNL     1      -7.049  14.975  17.010  0.00  0.00    +0.000 C 
ATOM     15  O   UNL     1      -7.214  14.330  15.968  0.00  0.00    +0.000 OA
ATOM     16  N   UNL     1      -6.974  16.351  16.939  0.00  0.00    +0.000 N 
ATOM     17  C   UNL     1      -6.842  17.357  17.986  0.00  0.00    +0.000 C 
ATOM     18  C   UNL     1      -7.200  16.951  15.620  0.00  0.00    +0.000 C 
ATOM     19  C   UNL     1      -6.943  12.802  18.109  0.00  0.00    +0.000 C 
ENDROOT
BRANCH   9  20
ATOM     20  C   UNL     1      -5.411  14.352  23.009  0.00  0.00    +0.000 A 
ATOM     21  C   UNL     1      -6.366  15.062  23.795  0.00  0.00    +0.000 A 
ATOM     22  C   UNL     1      -5.716  16.144  24.343  0.00  0.00    +0.000 A 
ATOM     23  O   UNL     1      -4.403  16.119  24.014  0.00  0.00    +0.000 OA
ATOM     24  C   UNL     1      -4.218  15.021  23.240  0.00  0.00    +0.000 A 
ENDBRANCH   9  20
BRANCH   1  26
ATOM     25  C   UNL     1      -3.329  10.230  15.837  0.00  0.00    +0.000 C 
ATOM     26  C   UNL     1      -3.417   9.690  17.249  0.00  0.00    +0.000 C 
ENDBRANCH   1  26
TORSDOF 2
ENDMDL
MODEL 5
REMARK VINA RESULT:      -5.5      2.897      6.345
REMARK  Name = 
REMARK  5 active torsions:
REMARK  status: ('A' for Active; 'I' for Inactive)
REMARK    1  A    between atoms: C_1  and  C_2
REMARK    2  A    between atoms: C_2  and  N_3
REMARK    3  A    between atoms: C_11  and  C_13
REMARK    4  A    between atoms: N_23  and  C_24
REMARK    5  A    between atoms: N_23  and  C_25
REMARK                            x       y       z     vdW  Elec       q    Type
REMARK                         _______ _______ _______ _____ _____    ______ ____
ROOT
ATOM      1  N   UNL     1       2.131  14.284  18.823  0.00  0.00    +0.000 N 
ATOM      2  C   UNL     1       1.832  12.931  19.239  0.00  0.00    +0.000 C 
ATOM      3  C   UNL     1       0.442  12.984  19.920  0.00  0.00    +0.000 C 
ATOM      4  C   UNL     1      -0.131  14.330  19.444  0.00  0.00    +0.000 C 
ATOM      5  C   UNL     1       1.038  15.129  18.958  0.00  0.00    +0.000 C 
ATOM      6  O   UNL     1       0.977  16.300  18.620  0.00  0.00    +0.000 OA
ATOM      7  C   UNL     1       0.624  12.915  21.455  0.00  0.00    +0.000 C 
ATOM      8  N   UNL     1      -0.602  13.185  22.217  0.00  0.00    +0.000 N 
ATOM      9  C   UNL     1      -0.674  14.415  22.898  0.00  0.00    +0.000 C 
ATOM     10  O   UNL     1       0.279  15.194  22.875  0.00  0.00    +0.000 OA
ATOM     11  C   UNL     1      -1.696  12.237  22.005  0.00  0.00    +0.000 C 
ATOM     12  C   UNL     1      -2.485  12.448  20.706  0.00  0.00    +0.000 C 
ATOM     13  N   UNL     1      -1.881  11.961  19.463  0.00  0.00    +0.000 N 
ATOM     14  C   UNL     1      -2.558  11.583  18.298  0.00  0.00    +0.000 C 
ATOM     15  O   UNL     1      -1.912  11.058  17.384  0.00  0.00    +0.000 OA
ATOM     16  N   UNL     1      -3.915  11.774  18.133  0.00  0.00    +0.000 N 
ATOM     17  C   UNL     1      -4.923  12.308  19.041  0.00  0.00    +0.000 C 
ATOM     18  C   UNL     1      -4.506  11.236  16.904  0.00  0.00    +0.000 C 
ATOM     19  C   UNL     1      -0.413  11.783  19.438  0.00  0.00    +0.000 C 
ENDROOT
BRANCH   9  20
ATOM     20  C   UNL     1      -1.891  14.828  23.598  0.00  0.00    +0.000 A 
ATOM     21  C   UNL     1      -3.206  15.181  23.176  0.00  0.00    +0.000 A 
ATOM     22  C   UNL     1      -3.929  15.477  24.309  0.00  0.00    +0.000 A 
ATOM     23  O   UNL     1      -3.178  15.262  25.415  0.00  0.00    +0.000 OA
ATOM     24  C   UNL     1      -1.965  14.839  24.983  0.00  0.00    +0.000 A 
ENDBRANCH   9  20
BRANCH   1  26
ATOM     25  C   UNL     1       4.514  14.794  18.261  0.00  0.00    +0.000 C 
ATOM     26  C   UNL     1       3.098  14.569  17.773  0.00  0.00    +0.000 C 
ENDBRANCH   1  26
TORSDOF 2
ENDMDL
MODEL 6
REMARK VINA RESULT:      -5.4      3.058      5.729
REMARK  Name = 
REMARK  5 active torsions:
REMARK  status: ('A' for Active; 'I' for Inactive)
REMARK    1  A    between atoms: C_1  and  C_2
REMARK    2  A    between atoms: C_2  and  N_3
REMARK    3  A    between atoms: C_11  and  C_13
REMARK    4  A    between atoms: N_23  and  C_24
REMARK    5  A    between atoms: N_23  and  C_25
REMARK                            x       y       z     vdW  Elec       q    Type
REMARK                         _______ _______ _______ _____ _____    ______ ____
ROOT
ATOM      1  N   UNL     1      -0.426  10.362  21.625  0.00  0.00    +0.000 N 
ATOM      2  C   UNL     1      -1.005  11.126  22.708  0.00  0.00    +0.000 C 
ATOM      3  C   UNL     1      -1.500  12.456  22.085  0.00  0.00    +0.000 C 
ATOM      4  C   UNL     1      -1.537  12.145  20.580  0.00  0.00    +0.000 C 
ATOM      5  C   UNL     1      -0.681  10.933  20.385  0.00  0.00    +0.000 C 
ATOM      6  O   UNL     1      -0.378  10.473  19.297  0.00  0.00    +0.000 OA
ATOM      7  C   UNL     1      -0.507  13.587  22.444  0.00  0.00    +0.000 C 
ATOM      8  N   UNL     1      -0.745  14.844  21.724  0.00  0.00    +0.000 N 
ATOM      9  C   UNL     1       0.179  15.190  20.718  0.00  0.00    +0.000 C 
ATOM     10  O   UNL     1       1.157  14.473  20.501  0.00  0.00    +0.000 OA
ATOM     11  C   UNL     1      -2.032  15.486  21.987  0.00  0.00    +0.000 C 
ATOM     12  C   UNL     1      -3.223  14.863  21.245  0.00  0.00    +0.000 C 
ATOM     13  N   UNL     1      -3.781  13.622  21.788  0.00  0.00    +0.000 N 
ATOM     14  C   UNL     1      -5.091  13.155  21.627  0.00  0.00    +0.000 C 
ATOM     15  O   UNL     1      -5.445  12.159  22.268  0.00  0.00    +0.000 OA
ATOM     16  N   UNL     1      -5.998  13.765  20.785  0.00  0.00    +0.000 N 
ATOM     17  C   UNL     1      -5.884  14.963  19.962  0.00  0.00    +0.000 C 
ATOM     18  C   UNL     1      -7.363  13.230  20.797  0.00  0.00    +0.000 C 
ATOM     19  C   UNL     1      -2.906  12.793  22.646  0.00  0.00    +0.000 C 
ENDROOT
BRANCH   9  20
ATOM     20  C   UNL     1      -0.023  16.365  19.871  0.00  0.00    +0.000 A 
ATOM     21  C   UNL     1      -0.713  16.597  18.644  0.00  0.00    +0.000 A 
ATOM     22  C   UNL     1      -0.550  17.927  18.334  0.00  0.00    +0.000 A 
ATOM     23  O   UNL     1       0.130  18.559  19.318  0.00  0.00    +0.000 OA
ATOM     24  C   UNL     1       0.415  17.622  20.256  0.00  0.00    +0.000 A 
ENDBRANCH   9  20
BRANCH   1  26
ATOM     25  C   UNL     1       1.148   8.422  21.537  0.00  0.00    +0.000 C 
ATOM     26  C   UNL     1      -0.273   8.916  21.700  0.00  0.00    +0.000 C 
ENDBRANCH   1  26
TORSDOF 2
ENDMDL
MODEL 7
REMARK VINA RESULT:      -5.4      2.950      6.256
REMARK  Name = 
REMARK  5 active torsions:
REMARK  status: ('A' for Active; 'I' for Inactive)
REMARK    1  A    between atoms: C_1  and  C_2
REMARK    2  A    between atoms: C_2  and  N_3
REMARK    3  A    between atoms: C_11  and  C_13
REMARK    4  A    between atoms: N_23  and  C_24
REMARK    5  A    between atoms: N_23  and  C_25
REMARK                            x       y       z     vdW  Elec       q    Type
REMARK                         _______ _______ _______ _____ _____    ______ ____
ROOT
ATOM      1  N   UNL     1       1.631  13.473  19.044  0.00  0.00    +0.000 N 
ATOM      2  C   UNL     1       1.064  12.234  19.528  0.00  0.00    +0.000 C 
ATOM      3  C   UNL     1      -0.276  12.608  20.211  0.00  0.00    +0.000 C 
ATOM      4  C   UNL     1      -0.564  14.018  19.670  0.00  0.00    +0.000 C 
ATOM      5  C   UNL     1       0.738  14.532  19.139  0.00  0.00    +0.000 C 
ATOM      6  O   UNL     1       0.917  15.673  18.743  0.00  0.00    +0.000 OA
ATOM      7  C   UNL     1      -0.091  12.577  21.747  0.00  0.00    +0.000 C 
ATOM      8  N   UNL     1      -1.223  13.133  22.499  0.00  0.00    +0.000 N 
ATOM      9  C   UNL     1      -1.029  14.383  23.117  0.00  0.00    +0.000 C 
ATOM     10  O   UNL     1       0.065  14.945  23.051  0.00  0.00    +0.000 OA
ATOM     11  C   UNL     1      -2.492  12.424  22.340  0.00  0.00    +0.000 C 
ATOM     12  C   UNL     1      -3.238  12.731  21.034  0.00  0.00    +0.000 C 
ATOM     13  N   UNL     1      -2.766  12.068  19.815  0.00  0.00    +0.000 N 
ATOM     14  C   UNL     1      -3.524  11.783  18.673  0.00  0.00    +0.000 C 
ATOM     15  O   UNL     1      -3.013  11.091  17.785  0.00  0.00    +0.000 OA
ATOM     16  N   UNL     1      -4.813  12.244  18.503  0.00  0.00    +0.000 N 
ATOM     17  C   UNL     1      -5.676  13.018  19.387  0.00  0.00    +0.000 C 
ATOM     18  C   UNL     1      -5.520  11.780  17.305  0.00  0.00    +0.000 C 
ATOM     19  C   UNL     1      -1.367  11.588  19.793  0.00  0.00    +0.000 C 
ENDROOT
BRANCH   9  20
ATOM     20  C   UNL     1      -2.123  15.073  23.799  0.00  0.00    +0.000 A 
ATOM     21  C   UNL     1      -2.597  15.095  25.144  0.00  0.00    +0.000 A 
ATOM     22  C   UNL     1      -3.676  15.949  25.180  0.00  0.00    +0.000 A 
ATOM     23  O   UNL     1      -3.864  16.518  23.966  0.00  0.00    +0.000 OA
ATOM     24  C   UNL     1      -2.907  16.014  23.149  0.00  0.00    +0.000 A 
ENDBRANCH   9  20
BRANCH   1  26
ATOM     25  C   UNL     1       3.919  14.192  18.336  0.00  0.00    +0.000 C 
ATOM     26  C   UNL     1       2.621  13.500  17.976  0.00  0.00    +0.000 C 
ENDBRANCH   1  26
TORSDOF 2
ENDMDL
MODEL 8
REMARK VINA RESULT:      -5.3      4.119      7.683
REMARK  Name = 
REMARK  5 active torsions:
REMARK  status: ('A' for Active; 'I' for Inactive)
REMARK    1  A    between atoms: C_1  and  C_2
REMARK    2  A    between atoms: C_2  and  N_3
REMARK    3  A    between atoms: C_11  and  C_13
REMARK    4  A    between atoms: N_23  and  C_24
REMARK    5  A    between atoms: N_23  and  C_25
REMARK                            x       y       z     vdW  Elec       q    Type
REMARK                         _______ _______ _______ _____ _____    ______ ____
ROOT
ATOM      1  N   UNL     1      -6.718  13.194  22.524  0.00  0.00    +0.000 N 
ATOM      2  C   UNL     1      -6.148  13.932  21.418  0.00  0.00    +0.000 C 
ATOM      3  C   UNL     1      -4.668  14.198  21.792  0.00  0.00    +0.000 C 
ATOM      4  C   UNL     1      -4.406  13.193  22.926  0.00  0.00    +0.000 C 
ATOM      5  C   UNL     1      -5.753  12.780  23.432  0.00  0.00    +0.000 C 
ATOM      6  O   UNL     1      -5.933  12.083  24.418  0.00  0.00    +0.000 OA
ATOM      7  C   UNL     1      -4.512  15.670  22.242  0.00  0.00    +0.000 C 
ATOM      8  N   UNL     1      -3.206  15.980  22.835  0.00  0.00    +0.000 N 
ATOM      9  C   UNL     1      -3.170  16.195  24.227  0.00  0.00    +0.000 C 
ATOM     10  O   UNL     1      -4.209  16.159  24.887  0.00  0.00    +0.000 OA
ATOM     11  C   UNL     1      -2.056  15.820  21.945  0.00  0.00    +0.000 C 
ATOM     12  C   UNL     1      -1.596  14.369  21.748  0.00  0.00    +0.000 C 
ATOM     13  N   UNL     1      -2.370  13.535  20.826  0.00  0.00    +0.000 N 
ATOM     14  C   UNL     1      -1.905  12.422  20.116  0.00  0.00    +0.000 C 
ATOM     15  O   UNL     1      -2.646  11.911  19.268  0.00  0.00    +0.000 OA
ATOM     16  N   UNL     1      -0.655  11.877  20.326  0.00  0.00    +0.000 N 
ATOM     17  C   UNL     1       0.434  12.291  21.202  0.00  0.00    +0.000 C 
ATOM     18  C   UNL     1      -0.263  10.778  19.437  0.00  0.00    +0.000 C 
ATOM     19  C   UNL     1      -3.771  13.929  20.556  0.00  0.00    +0.000 C 
ENDROOT
BRANCH   9  20
ATOM     20  C   UNL     1      -1.906  16.406  24.931  0.00  0.00    +0.000 A 
ATOM     21  C   UNL     1      -1.095  17.549  25.195  0.00  0.00    +0.000 A 
ATOM     22  C   UNL     1      -0.009  17.117  25.921  0.00  0.00    +0.000 A 
ATOM     23  O   UNL     1      -0.122  15.795  26.192  0.00  0.00    +0.000 OA
ATOM     24  C   UNL     1      -1.280  15.380  25.625  0.00  0.00    +0.000 A 
ENDBRANCH   9  20
BRANCH   1  26
ATOM     25  C   UNL     1      -7.842  11.356  21.254  0.00  0.00    +0.000 C 
ATOM     26  C   UNL     1      -7.915  12.379  22.368  0.00  0.00    +0.000 C 
ENDBRANCH   1  26
TORSDOF 2
ENDMDL
MODEL 9
REMARK VINA RESULT:      -5.3      6.775     10.127
REMARK  Name = 
REMARK  5 active torsions:
REMARK  status: ('A' for Active; 'I' for Inactive)
REMARK    1  A    between atoms: C_1  and  C_2
REMARK    2  A    between atoms: C_2  and  N_3
REMARK    3  A    between atoms: C_11  and  C_13
REMARK    4  A    between atoms: N_23  and  C_24
REMARK    5  A    between atoms: N_23  and  C_25
REMARK                            x       y       z     vdW  Elec       q    Type
REMARK                         _______ _______ _______ _____ _____    ______ ____
ROOT
ATOM      1  N   UNL     1       3.563  16.387  19.538  0.00  0.00    +0.000 N 
ATOM      2  C   UNL     1       4.800  17.071  19.842  0.00  0.00    +0.000 C 
ATOM      3  C   UNL     1       5.716  16.027  20.530  0.00  0.00    +0.000 C 
ATOM      4  C   UNL     1       5.054  14.687  20.169  0.00  0.00    +0.000 C 
ATOM      5  C   UNL     1       3.656  15.017  19.745  0.00  0.00    +0.000 C 
ATOM      6  O   UNL     1       2.797  14.185  19.504  0.00  0.00    +0.000 OA
ATOM      7  C   UNL     1       5.739  16.297  22.054  0.00  0.00    +0.000 C 
ATOM      8  N   UNL     1       6.388  15.240  22.839  0.00  0.00    +0.000 N 
ATOM      9  C   UNL     1       5.552  14.418  23.620  0.00  0.00    +0.000 C 
ATOM     10  O   UNL     1       4.339  14.625  23.657  0.00  0.00    +0.000 OA
ATOM     11  C   UNL     1       7.807  15.025  22.555  0.00  0.00    +0.000 C 
ATOM     12  C   UNL     1       8.090  14.218  21.280  0.00  0.00    +0.000 C 
ATOM     13  N   UNL     1       7.984  14.922  19.999  0.00  0.00    +0.000 N 
ATOM     14  C   UNL     1       8.644  14.593  18.809  0.00  0.00    +0.000 C 
ATOM     15  O   UNL     1       8.560  15.373  17.853  0.00  0.00    +0.000 OA
ATOM     16  N   UNL     1       9.383  13.437  18.665  0.00  0.00    +0.000 N 
ATOM     17  C   UNL     1       9.700  12.379  19.618  0.00  0.00    +0.000 C 
ATOM     18  C   UNL     1      10.103  13.275  17.398  0.00  0.00    +0.000 C 
ATOM     19  C   UNL     1       7.151  16.144  19.954  0.00  0.00    +0.000 C 
ENDROOT
BRANCH   9  20
ATOM     20  C   UNL     1       6.084  13.271  24.355  0.00  0.00    +0.000 A 
ATOM     21  C   UNL     1       6.504  13.064  25.702  0.00  0.00    +0.000 A 
ATOM     22  C   UNL     1       6.910  11.753  25.803  0.00  0.00    +0.000 A 
ATOM     23  O   UNL     1       6.703  11.107  24.632  0.00  0.00    +0.000 OA
ATOM     24  C   UNL     1       6.175  12.015  23.775  0.00  0.00    +0.000 A 
ENDBRANCH   9  20
BRANCH   1  26
ATOM     25  C   UNL     1       3.134  16.665  17.090  0.00  0.00    +0.000 C 
ATOM     26  C   UNL     1       2.650  16.868  18.510  0.00  0.00    +0.000 C 
ENDBRANCH   1  26
TORSDOF 2
ENDMDL
