MODEL 1
REMARK VINA RESULT:      -7.7      0.000      0.000
REMARK  Name = 
REMARK  12 active torsions:
REMARK  status: ('A' for Active; 'I' for Inactive)
REMARK    1  A    between atoms: C_1  and  C_2
REMARK    2  A    between atoms: C_2  and  C_3
REMARK    3  A    between atoms: C_3  and  N_4
REMARK    4  A    between atoms: N_4  and  C_5
REMARK    5  A    between atoms: N_4  and  C_6
REMARK    6  A    between atoms: C_6  and  C_7
REMARK    7  A    between atoms: C_10  and  C_11
REMARK    8  A    between atoms: C_11  and  C_12
REMARK    9  A    between atoms: C_12  and  N_13
REMARK   10  A    between atoms: C_16  and  O_17
REMARK   11  A    between atoms: O_17  and  C_18
REMARK   12  A    between atoms: C_18  and  C_19
REMARK                            x       y       z     vdW  Elec       q    Type
REMARK                         _______ _______ _______ _____ _____    ______ ____
ROOT
ATOM      1  N   UNL     1       7.135   6.913  17.992  0.00  0.00    +0.000 N 
ATOM      2  C   UNL     1       6.118   7.247  17.123  0.00  0.00    +0.000 A 
ATOM      3  C   UNL     1       5.093   6.433  16.898  0.00  0.00    +0.000 A 
ATOM      4  C   UNL     1       5.076   5.110  17.473  0.00  0.00    +0.000 A 
ATOM      5  C   UNL     1       6.074   4.721  18.277  0.00  0.00    +0.000 A 
ATOM      6  C   UNL     1       7.201   5.646  18.582  0.00  0.00    +0.000 A 
ATOM      7  O   UNL     1       8.112   5.259  19.311  0.00  0.00    +0.000 OA
ENDROOT
BRANCH   1   8
ATOM      8  C   UNL     1       8.165   7.903  18.333  0.00  0.00    +0.000 C 
BRANCH   8   9
ATOM      9  C   UNL     1       8.029   9.281  17.646  0.00  0.00    +0.000 C 
BRANCH   9  13
ATOM     10  C   UNL     1      10.285  12.420  19.602  0.00  0.00    +0.000 A 
ATOM     11  C   UNL     1       9.593  12.669  18.412  0.00  0.00    +0.000 A 
ATOM     12  C   UNL     1       8.839  11.665  17.803  0.00  0.00    +0.000 A 
ATOM     13  C   UNL     1       8.764  10.388  18.370  0.00  0.00    +0.000 A 
ATOM     14  C   UNL     1       9.426  10.148  19.584  0.00  0.00    +0.000 A 
ATOM     15  C   UNL     1      10.189  11.151  20.188  0.00  0.00    +0.000 A 
BRANCH  10  16
ATOM     16  C   UNL     1      11.132  13.500  20.239  0.00  0.00    +0.000 C 
BRANCH  16  17
ATOM     17  N   UNL     1      10.372  14.706  20.632  0.00  0.00    +0.000 NA
ATOM     18  C   UNL     1      11.290  15.848  20.689  0.00  0.00    +0.000 C 
BRANCH  17  19
ATOM     19  C   UNL     1       9.685  14.498  21.923  0.00  0.00    +0.000 C 
BRANCH  19  21
ATOM     20  C   UNL     1       7.379  14.475  20.917  0.00  0.00    +0.000 C 
ATOM     21  C   UNL     1       8.276  15.100  21.975  0.00  0.00    +0.000 C 
ENDBRANCH  19  21
ENDBRANCH  17  19
ENDBRANCH  16  17
ENDBRANCH  10  16
ENDBRANCH   9  13
ENDBRANCH   8   9
ENDBRANCH   1   8
BRANCH   4  22
ATOM     22  O   UNL     1       4.046   4.239  17.170  0.00  0.00    +0.000 OA
BRANCH  22  23
ATOM     23  C   UNL     1       4.138   2.939  17.756  0.00  0.00    +0.000 C 
BRANCH  23  24
ATOM     24  C   UNL     1       3.243   2.861  18.958  0.00  0.00    +0.000 A 
ATOM     25  C   UNL     1       3.775   2.558  20.219  0.00  0.00    +0.000 A 
ATOM     26  C   UNL     1       2.938   2.496  21.329  0.00  0.00    +0.000 A 
ATOM     27  C   UNL     1       1.576   2.737  21.176  0.00  0.00    +0.000 A 
ATOM     28  F   UNL     1       0.773   2.673  22.243  0.00  0.00    +0.000 F 
ATOM     29  C   UNL     1       1.035   3.040  19.933  0.00  0.00    +0.000 A 
ATOM     30  C   UNL     1       1.867   3.103  18.823  0.00  0.00    +0.000 A 
ENDBRANCH  23  24
ENDBRANCH  22  23
ENDBRANCH   4  22
TORSDOF 10
ENDMDL
MODEL 2
REMARK VINA RESULT:      -7.4      0.877      1.918
REMARK  Name = 
REMARK  12 active torsions:
REMARK  status: ('A' for Active; 'I' for Inactive)
REMARK    1  A    between atoms: C_1  and  C_2
REMARK    2  A    between atoms: C_2  and  C_3
REMARK    3  A    between atoms: C_3  and  N_4
REMARK    4  A    between atoms: N_4  and  C_5
REMARK    5  A    between atoms: N_4  and  C_6
REMARK    6  A    between atoms: C_6  and  C_7
REMARK    7  A    between atoms: C_10  and  C_11
REMARK    8  A    between atoms: C_11  and  C_12
REMARK    9  A    between atoms: C_12  and  N_13
REMARK   10  A    between atoms: C_16  and  O_17
REMARK   11  A    between atoms: O_17  and  C_18
REMARK   12  A    between atoms: C_18  and  C_19
REMARK                            x       y       z     vdW  Elec       q    Type
REMARK                         _______ _______ _______ _____ _____    ______ ____
ROOT
ATOM      1  N   UNL     1       7.187   6.853  18.140  0.00  0.00    +0.000 N 
ATOM      2  C   UNL     1       6.249   7.204  17.192  0.00  0.00    +0.000 A 
ATOM      3  C   UNL     1       5.186   6.447  16.945  0.00  0.00    +0.000 A 
ATOM      4  C   UNL     1       5.044   5.163  17.586  0.00  0.00    +0.000 A 
ATOM      5  C   UNL     1       5.964   4.755  18.471  0.00  0.00    +0.000 A 
ATOM      6  C   UNL     1       7.132   5.620  18.798  0.00  0.00    +0.000 A 
ATOM      7  O   UNL     1       7.969   5.216  19.601  0.00  0.00    +0.000 OA
ENDROOT
BRANCH   1   8
ATOM      8  C   UNL     1       8.261   7.792  18.493  0.00  0.00    +0.000 C 
BRANCH   8   9
ATOM      9  C   UNL     1       8.454   8.989  17.533  0.00  0.00    +0.000 C 
BRANCH   9  13
ATOM     10  C   UNL     1       9.162  12.686  19.676  0.00  0.00    +0.000 A 
ATOM     11  C   UNL     1       9.485  11.451  20.250  0.00  0.00    +0.000 A 
ATOM     12  C   UNL     1       9.288  10.265  19.543  0.00  0.00    +0.000 A 
ATOM     13  C   UNL     1       8.759  10.287  18.247  0.00  0.00    +0.000 A 
ATOM     14  C   UNL     1       8.471  11.527  17.657  0.00  0.00    +0.000 A 
ATOM     15  C   UNL     1       8.660  12.715  18.369  0.00  0.00    +0.000 A 
BRANCH  10  16
ATOM     16  C   UNL     1       9.342  13.968  20.460  0.00  0.00    +0.000 C 
BRANCH  16  17
ATOM     17  N   UNL     1      10.736  14.225  20.880  0.00  0.00    +0.000 NA
ATOM     18  C   UNL     1      10.768  15.439  21.702  0.00  0.00    +0.000 C 
BRANCH  17  19
ATOM     19  C   UNL     1      11.626  14.341  19.707  0.00  0.00    +0.000 C 
BRANCH  19  21
ATOM     20  C   UNL     1      11.083  15.392  17.487  0.00  0.00    +0.000 C 
ATOM     21  C   UNL     1      11.462  15.656  18.936  0.00  0.00    +0.000 C 
ENDBRANCH  19  21
ENDBRANCH  17  19
ENDBRANCH  16  17
ENDBRANCH  10  16
ENDBRANCH   9  13
ENDBRANCH   8   9
ENDBRANCH   1   8
BRANCH   4  22
ATOM     22  O   UNL     1       3.977   4.345  17.265  0.00  0.00    +0.000 OA
BRANCH  22  23
ATOM     23  C   UNL     1       4.030   3.017  17.790  0.00  0.00    +0.000 C 
BRANCH  23  24
ATOM     24  C   UNL     1       3.141   2.913  18.994  0.00  0.00    +0.000 A 
ATOM     25  C   UNL     1       1.763   3.143  18.880  0.00  0.00    +0.000 A 
ATOM     26  C   UNL     1       0.946   3.035  20.002  0.00  0.00    +0.000 A 
ATOM     27  C   UNL     1       1.508   2.700  21.230  0.00  0.00    +0.000 A 
ATOM     28  F   UNL     1       0.721   2.601  22.307  0.00  0.00    +0.000 F 
ATOM     29  C   UNL     1       2.870   2.468  21.358  0.00  0.00    +0.000 A 
ATOM     30  C   UNL     1       3.689   2.573  20.241  0.00  0.00    +0.000 A 
ENDBRANCH  23  24
ENDBRANCH  22  23
ENDBRANCH   4  22
TORSDOF 10
ENDMDL
MODEL 3
REMARK VINA RESULT:      -7.4      4.328      9.096
REMARK  Name = 
REMARK  12 active torsions:
REMARK  status: ('A' for Active; 'I' for Inactive)
REMARK    1  A    between atoms: C_1  and  C_2
REMARK    2  A    between atoms: C_2  and  C_3
REMARK    3  A    between atoms: C_3  and  N_4
REMARK    4  A    between atoms: N_4  and  C_5
REMARK    5  A    between atoms: N_4  and  C_6
REMARK    6  A    between atoms: C_6  and  C_7
REMARK    7  A    between atoms: C_10  and  C_11
REMARK    8  A    between atoms: C_11  and  C_12
REMARK    9  A    between atoms: C_12  and  N_13
REMARK   10  A    between atoms: C_16  and  O_17
REMARK   11  A    between atoms: O_17  and  C_18
REMARK   12  A    between atoms: C_18  and  C_19
REMARK                            x       y       z     vdW  Elec       q    Type
REMARK                         _______ _______ _______ _____ _____    ______ ____
ROOT
ATOM      1  N   UNL     1       6.203   4.989  17.577  0.00  0.00    +0.000 N 
ATOM      2  C   UNL     1       6.849   5.044  18.795  0.00  0.00    +0.000 A 
ATOM      3  C   UNL     1       7.559   6.104  19.163  0.00  0.00    +0.000 A 
ATOM      4  C   UNL     1       7.773   7.192  18.240  0.00  0.00    +0.000 A 
ATOM      5  C   UNL     1       7.212   7.153  17.024  0.00  0.00    +0.000 A 
ATOM      6  C   UNL     1       6.367   5.994  16.619  0.00  0.00    +0.000 A 
ATOM      7  O   UNL     1       5.877   5.976  15.493  0.00  0.00    +0.000 OA
ENDROOT
BRANCH   1   8
ATOM      8  C   UNL     1       5.302   3.868  17.274  0.00  0.00    +0.000 C 
BRANCH   8   9
ATOM      9  C   UNL     1       3.824   4.241  17.017  0.00  0.00    +0.000 C 
BRANCH   9  13
ATOM     10  C   UNL     1       1.872   6.504  20.153  0.00  0.00    +0.000 A 
ATOM     11  C   UNL     1       1.983   5.111  20.235  0.00  0.00    +0.000 A 
ATOM     12  C   UNL     1       2.642   4.389  19.241  0.00  0.00    +0.000 A 
ATOM     13  C   UNL     1       3.204   5.044  18.138  0.00  0.00    +0.000 A 
ATOM     14  C   UNL     1       3.127   6.444  18.074  0.00  0.00    +0.000 A 
ATOM     15  C   UNL     1       2.458   7.166  19.066  0.00  0.00    +0.000 A 
BRANCH  10  16
ATOM     16  C   UNL     1       1.124   7.280  21.215  0.00  0.00    +0.000 C 
BRANCH  16  17
ATOM     17  N   UNL     1       1.200   8.747  21.054  0.00  0.00    +0.000 NA
ATOM     18  C   UNL     1       1.534   9.350  22.348  0.00  0.00    +0.000 C 
BRANCH  17  19
ATOM     19  C   UNL     1      -0.066   9.284  20.517  0.00  0.00    +0.000 C 
BRANCH  19  21
ATOM     20  C   UNL     1      -0.073  11.671  19.721  0.00  0.00    +0.000 C 
ATOM     21  C   UNL     1       0.121  10.218  19.315  0.00  0.00    +0.000 C 
ENDBRANCH  19  21
ENDBRANCH  17  19
ENDBRANCH  16  17
ENDBRANCH  10  16
ENDBRANCH   9  13
ENDBRANCH   8   9
ENDBRANCH   1   8
BRANCH   4  22
ATOM     22  O   UNL     1       8.579   8.255  18.601  0.00  0.00    +0.000 OA
BRANCH  22  23
ATOM     23  C   UNL     1       8.405   9.454  17.844  0.00  0.00    +0.000 C 
BRANCH  23  24
ATOM     24  C   UNL     1       9.048  10.604  18.561  0.00  0.00    +0.000 A 
ATOM     25  C   UNL     1       9.081  11.877  17.974  0.00  0.00    +0.000 A 
ATOM     26  C   UNL     1       9.673  12.939  18.651  0.00  0.00    +0.000 A 
ATOM     27  C   UNL     1      10.227  12.727  19.910  0.00  0.00    +0.000 A 
ATOM     28  F   UNL     1      10.798  13.748  20.557  0.00  0.00    +0.000 F 
ATOM     29  C   UNL     1      10.200  11.473  20.505  0.00  0.00    +0.000 A 
ATOM     30  C   UNL     1       9.610  10.410  19.833  0.00  0.00    +0.000 A 
ENDBRANCH  23  24
ENDBRANCH  22  23
ENDBRANCH   4  22
TORSDOF 10
ENDMDL
MODEL 4
REMARK VINA RESULT:      -7.4      4.755      9.038
REMARK  Name = 
REMARK  12 active torsions:
REMARK  status: ('A' for Active; 'I' for Inactive)
REMARK    1  A    between atoms: C_1  and  C_2
REMARK    2  A    between atoms: C_2  and  C_3
REMARK    3  A    between atoms: C_3  and  N_4
REMARK    4  A    between atoms: N_4  and  C_5
REMARK    5  A    between atoms: N_4  and  C_6
REMARK    6  A    between atoms: C_6  and  C_7
REMARK    7  A    between atoms: C_10  and  C_11
REMARK    8  A    between atoms: C_11  and  C_12
REMARK    9  A    between atoms: C_12  and  N_13
REMARK   10  A    between atoms: C_16  and  O_17
REMARK   11  A    between atoms: O_17  and  C_18
REMARK   12  A    between atoms: C_18  and  C_19
REMARK                            x       y       z     vdW  Elec       q    Type
REMARK                         _______ _______ _______ _____ _____    ______ ____
ROOT
ATOM      1  N   UNL     1       5.707   5.428  17.768  0.00  0.00    +0.000 N 
ATOM      2  C   UNL     1       6.502   5.321  18.891  0.00  0.00    +0.000 A 
ATOM      3  C   UNL     1       7.420   6.234  19.187  0.00  0.00    +0.000 A 
ATOM      4  C   UNL     1       7.697   7.312  18.270  0.00  0.00    +0.000 A 
ATOM      5  C   UNL     1       6.989   7.421  17.138  0.00  0.00    +0.000 A 
ATOM      6  C   UNL     1       5.917   6.435  16.821  0.00  0.00    +0.000 A 
ATOM      7  O   UNL     1       5.292   6.549  15.769  0.00  0.00    +0.000 OA
ENDROOT
BRANCH   1   8
ATOM      8  C   UNL     1       4.600   4.485  17.560  0.00  0.00    +0.000 C 
BRANCH   8   9
ATOM      9  C   UNL     1       3.492   4.496  18.638  0.00  0.00    +0.000 C 
BRANCH   9  13
ATOM     10  C   UNL     1       1.773   8.445  19.104  0.00  0.00    +0.000 A 
ATOM     11  C   UNL     1       2.086   7.943  17.835  0.00  0.00    +0.000 A 
ATOM     12  C   UNL     1       2.607   6.658  17.686  0.00  0.00    +0.000 A 
ATOM     13  C   UNL     1       2.830   5.846  18.805  0.00  0.00    +0.000 A 
ATOM     14  C   UNL     1       2.481   6.334  20.073  0.00  0.00    +0.000 A 
ATOM     15  C   UNL     1       1.968   7.625  20.223  0.00  0.00    +0.000 A 
BRANCH  10  16
ATOM     16  C   UNL     1       1.243   9.853  19.264  0.00  0.00    +0.000 C 
BRANCH  16  17
ATOM     17  N   UNL     1       0.006   9.942  20.069  0.00  0.00    +0.000 NA
ATOM     18  C   UNL     1      -1.111  10.294  19.187  0.00  0.00    +0.000 C 
BRANCH  17  19
ATOM     19  C   UNL     1       0.161  10.920  21.164  0.00  0.00    +0.000 C 
BRANCH  19  21
ATOM     20  C   UNL     1       0.052   9.498  23.238  0.00  0.00    +0.000 C 
ATOM     21  C   UNL     1      -0.649  10.572  22.420  0.00  0.00    +0.000 C 
ENDBRANCH  19  21
ENDBRANCH  17  19
ENDBRANCH  16  17
ENDBRANCH  10  16
ENDBRANCH   9  13
ENDBRANCH   8   9
ENDBRANCH   1   8
BRANCH   4  22
ATOM     22  O   UNL     1       8.709   8.212  18.547  0.00  0.00    +0.000 OA
BRANCH  22  23
ATOM     23  C   UNL     1       8.661   9.444  17.826  0.00  0.00    +0.000 C 
BRANCH  23  24
ATOM     24  C   UNL     1       9.359  10.517  18.609  0.00  0.00    +0.000 A 
ATOM     25  C   UNL     1      10.055  11.539  17.948  0.00  0.00    +0.000 A 
ATOM     26  C   UNL     1      10.692  12.534  18.684  0.00  0.00    +0.000 A 
ATOM     27  C   UNL     1      10.632  12.504  20.074  0.00  0.00    +0.000 A 
ATOM     28  F   UNL     1      11.248  13.459  20.778  0.00  0.00    +0.000 F 
ATOM     29  C   UNL     1       9.945  11.500  20.742  0.00  0.00    +0.000 A 
ATOM     30  C   UNL     1       9.307  10.505  20.012  0.00  0.00    +0.000 A 
ENDBRANCH  23  24
ENDBRANCH  22  23
ENDBRANCH   4  22
TORSDOF 10
ENDMDL
MODEL 5
REMARK VINA RESULT:      -7.3      1.060      1.758
REMARK  Name = 
REMARK  12 active torsions:
REMARK  status: ('A' for Active; 'I' for Inactive)
REMARK    1  A    between atoms: C_1  and  C_2
REMARK    2  A    between atoms: C_2  and  C_3
REMARK    3  A    between atoms: C_3  and  N_4
REMARK    4  A    between atoms: N_4  and  C_5
REMARK    5  A    between atoms: N_4  and  C_6
REMARK    6  A    between atoms: C_6  and  C_7
REMARK    7  A    between atoms: C_10  and  C_11
REMARK    8  A    between atoms: C_11  and  C_12
REMARK    9  A    between atoms: C_12  and  N_13
REMARK   10  A    between atoms: C_16  and  O_17
REMARK   11  A    between atoms: O_17  and  C_18
REMARK   12  A    between atoms: C_18  and  C_19
REMARK                            x       y       z     vdW  Elec       q    Type
REMARK                         _______ _______ _______ _____ _____    ______ ____
ROOT
ATOM      1  N   UNL     1       7.284   6.640  18.101  0.00  0.00    +0.000 N 
ATOM      2  C   UNL     1       6.658   6.645  16.872  0.00  0.00    +0.000 A 
ATOM      3  C   UNL     1       5.682   5.793  16.581  0.00  0.00    +0.000 A 
ATOM      4  C   UNL     1       5.327   4.749  17.510  0.00  0.00    +0.000 A 
ATOM      5  C   UNL     1       5.952   4.669  18.692  0.00  0.00    +0.000 A 
ATOM      6  C   UNL     1       7.009   5.655  19.054  0.00  0.00    +0.000 A 
ATOM      7  O   UNL     1       7.577   5.551  20.139  0.00  0.00    +0.000 OA
ENDROOT
BRANCH   1   8
ATOM      8  C   UNL     1       8.246   7.698  18.439  0.00  0.00    +0.000 C 
BRANCH   8   9
ATOM      9  C   UNL     1       8.028   9.059  17.738  0.00  0.00    +0.000 C 
BRANCH   9  13
ATOM     10  C   UNL     1       9.941  12.375  19.764  0.00  0.00    +0.000 A 
ATOM     11  C   UNL     1       9.850  11.118  20.373  0.00  0.00    +0.000 A 
ATOM     12  C   UNL     1       9.264  10.044  19.704  0.00  0.00    +0.000 A 
ATOM     13  C   UNL     1       8.753  10.203  18.411  0.00  0.00    +0.000 A 
ATOM     14  C   UNL     1       8.879  11.453  17.785  0.00  0.00    +0.000 A 
ATOM     15  C   UNL     1       9.457  12.531  18.459  0.00  0.00    +0.000 A 
BRANCH  10  16
ATOM     16  C   UNL     1      10.544  13.547  20.508  0.00  0.00    +0.000 C 
BRANCH  16  17
ATOM     17  N   UNL     1       9.654  14.130  21.534  0.00  0.00    +0.000 NA
ATOM     18  C   UNL     1       8.264  13.812  21.193  0.00  0.00    +0.000 C 
BRANCH  17  19
ATOM     19  C   UNL     1       9.865  15.587  21.646  0.00  0.00    +0.000 C 
BRANCH  19  21
ATOM     20  C   UNL     1       9.764  16.633  23.933  0.00  0.00    +0.000 C 
ATOM     21  C   UNL     1      10.668  16.001  22.885  0.00  0.00    +0.000 C 
ENDBRANCH  19  21
ENDBRANCH  17  19
ENDBRANCH  16  17
ENDBRANCH  10  16
ENDBRANCH   9  13
ENDBRANCH   8   9
ENDBRANCH   1   8
BRANCH   4  22
ATOM     22  O   UNL     1       4.367   3.816  17.167  0.00  0.00    +0.000 OA
BRANCH  22  23
ATOM     23  C   UNL     1       3.010   4.254  17.260  0.00  0.00    +0.000 C 
BRANCH  23  24
ATOM     24  C   UNL     1       2.427   3.820  18.573  0.00  0.00    +0.000 A 
ATOM     25  C   UNL     1       2.025   4.773  19.520  0.00  0.00    +0.000 A 
ATOM     26  C   UNL     1       1.478   4.359  20.731  0.00  0.00    +0.000 A 
ATOM     27  C   UNL     1       1.333   3.000  20.990  0.00  0.00    +0.000 A 
ATOM     28  F   UNL     1       0.810   2.606  22.156  0.00  0.00    +0.000 F 
ATOM     29  C   UNL     1       1.724   2.046  20.061  0.00  0.00    +0.000 A 
ATOM     30  C   UNL     1       2.271   2.453  18.851  0.00  0.00    +0.000 A 
ENDBRANCH  23  24
ENDBRANCH  22  23
ENDBRANCH   4  22
TORSDOF 10
ENDMDL
MODEL 6
REMARK VINA RESULT:      -7.3      4.183      9.100
REMARK  Name = 
REMARK  12 active torsions:
REMARK  status: ('A' for Active; 'I' for Inactive)
REMARK    1  A    between atoms: C_1  and  C_2
REMARK    2  A    between atoms: C_2  and  C_3
REMARK    3  A    between atoms: C_3  and  N_4
REMARK    4  A    between atoms: N_4  and  C_5
REMARK    5  A    between atoms: N_4  and  C_6
REMARK    6  A    between atoms: C_6  and  C_7
REMARK    7  A    between atoms: C_10  and  C_11
REMARK    8  A    between atoms: C_11  and  C_12
REMARK    9  A    between atoms: C_12  and  N_13
REMARK   10  A    between atoms: C_16  and  O_17
REMARK   11  A    between atoms: O_17  and  C_18
REMARK   12  A    between atoms: C_18  and  C_19
REMARK                            x       y       z     vdW  Elec       q    Type
REMARK                         _______ _______ _______ _____ _____    ______ ____
ROOT
ATOM      1  N   UNL     1       6.151   5.297  17.454  0.00  0.00    +0.000 N 
ATOM      2  C   UNL     1       7.024   5.147  18.511  0.00  0.00    +0.000 A 
ATOM      3  C   UNL     1       7.778   6.151  18.944  0.00  0.00    +0.000 A 
ATOM      4  C   UNL     1       7.792   7.408  18.236  0.00  0.00    +0.000 A 
ATOM      5  C   UNL     1       7.003   7.578  17.166  0.00  0.00    +0.000 A 
ATOM      6  C   UNL     1       6.110   6.477  16.705  0.00  0.00    +0.000 A 
ATOM      7  O   UNL     1       5.407   6.654  15.712  0.00  0.00    +0.000 OA
ENDROOT
BRANCH   1   8
ATOM      8  C   UNL     1       5.223   4.212  17.109  0.00  0.00    +0.000 C 
BRANCH   8   9
ATOM      9  C   UNL     1       4.400   3.629  18.280  0.00  0.00    +0.000 C 
BRANCH   9  13
ATOM     10  C   UNL     1       1.828   6.497  20.262  0.00  0.00    +0.000 A 
ATOM     11  C   UNL     1       2.119   5.263  20.855  0.00  0.00    +0.000 A 
ATOM     12  C   UNL     1       2.975   4.357  20.230  0.00  0.00    +0.000 A 
ATOM     13  C   UNL     1       3.557   4.662  18.995  0.00  0.00    +0.000 A 
ATOM     14  C   UNL     1       3.297   5.915  18.417  0.00  0.00    +0.000 A 
ATOM     15  C   UNL     1       2.432   6.819  19.039  0.00  0.00    +0.000 A 
BRANCH  10  16
ATOM     16  C   UNL     1       0.870   7.462  20.925  0.00  0.00    +0.000 C 
BRANCH  16  17
ATOM     17  N   UNL     1       1.397   8.836  21.059  0.00  0.00    +0.000 NA
ATOM     18  C   UNL     1       1.526   9.159  22.484  0.00  0.00    +0.000 C 
BRANCH  17  19
ATOM     19  C   UNL     1       0.528   9.804  20.360  0.00  0.00    +0.000 C 
BRANCH  19  21
ATOM     20  C   UNL     1       0.131   9.650  17.880  0.00  0.00    +0.000 C 
ATOM     21  C   UNL     1       1.039  10.200  18.970  0.00  0.00    +0.000 C 
ENDBRANCH  19  21
ENDBRANCH  17  19
ENDBRANCH  16  17
ENDBRANCH  10  16
ENDBRANCH   9  13
ENDBRANCH   8   9
ENDBRANCH   1   8
BRANCH   4  22
ATOM     22  O   UNL     1       8.639   8.421  18.643  0.00  0.00    +0.000 OA
BRANCH  22  23
ATOM     23  C   UNL     1       8.573   9.631  17.886  0.00  0.00    +0.000 C 
BRANCH  23  24
ATOM     24  C   UNL     1       9.117  10.768  18.700  0.00  0.00    +0.000 A 
ATOM     25  C   UNL     1       9.674  10.531  19.964  0.00  0.00    +0.000 A 
ATOM     26  C   UNL     1      10.183  11.592  20.708  0.00  0.00    +0.000 A 
ATOM     27  C   UNL     1      10.133  12.882  20.187  0.00  0.00    +0.000 A 
ATOM     28  F   UNL     1      10.620  13.899  20.905  0.00  0.00    +0.000 F 
ATOM     29  C   UNL     1       9.586  13.130  18.936  0.00  0.00    +0.000 A 
ATOM     30  C   UNL     1       9.078  12.075  18.190  0.00  0.00    +0.000 A 
ENDBRANCH  23  24
ENDBRANCH  22  23
ENDBRANCH   4  22
TORSDOF 10
ENDMDL
MODEL 7
REMARK VINA RESULT:      -7.3      6.974      9.030
REMARK  Name = 
REMARK  12 active torsions:
REMARK  status: ('A' for Active; 'I' for Inactive)
REMARK    1  A    between atoms: C_1  and  C_2
REMARK    2  A    between atoms: C_2  and  C_3
REMARK    3  A    between atoms: C_3  and  N_4
REMARK    4  A    between atoms: N_4  and  C_5
REMARK    5  A    between atoms: N_4  and  C_6
REMARK    6  A    between atoms: C_6  and  C_7
REMARK    7  A    between atoms: C_10  and  C_11
REMARK    8  A    between atoms: C_11  and  C_12
REMARK    9  A    between atoms: C_12  and  N_13
REMARK   10  A    between atoms: C_16  and  O_17
REMARK   11  A    between atoms: O_17  and  C_18
REMARK   12  A    between atoms: C_18  and  C_19
REMARK                            x       y       z     vdW  Elec       q    Type
REMARK                         _______ _______ _______ _____ _____    ______ ____
ROOT
ATOM      1  N   UNL     1       1.806   6.730  20.116  0.00  0.00    +0.000 N 
ATOM      2  C   UNL     1       2.285   7.510  19.085  0.00  0.00    +0.000 A 
ATOM      3  C   UNL     1       2.900   6.981  18.033  0.00  0.00    +0.000 A 
ATOM      4  C   UNL     1       3.192   5.569  17.997  0.00  0.00    +0.000 A 
ATOM      5  C   UNL     1       2.797   4.781  19.006  0.00  0.00    +0.000 A 
ATOM      6  C   UNL     1       2.057   5.355  20.165  0.00  0.00    +0.000 A 
ATOM      7  O   UNL     1       1.719   4.613  21.085  0.00  0.00    +0.000 OA
ENDROOT
BRANCH   1   8
ATOM      8  C   UNL     1       0.997   7.336  21.181  0.00  0.00    +0.000 C 
BRANCH   8   9
ATOM      9  C   UNL     1       1.591   8.599  21.845  0.00  0.00    +0.000 C 
BRANCH   9  13
ATOM     10  C   UNL     1      -1.376  11.745  22.107  0.00  0.00    +0.000 A 
ATOM     11  C   UNL     1      -1.210  10.825  23.149  0.00  0.00    +0.000 A 
ATOM     12  C   UNL     1      -0.231   9.835  23.076  0.00  0.00    +0.000 A 
ATOM     13  C   UNL     1       0.604   9.740  21.957  0.00  0.00    +0.000 A 
ATOM     14  C   UNL     1       0.465  10.685  20.929  0.00  0.00    +0.000 A 
ATOM     15  C   UNL     1      -0.523  11.671  20.998  0.00  0.00    +0.000 A 
BRANCH  10  16
ATOM     16  C   UNL     1      -2.464  12.794  22.173  0.00  0.00    +0.000 C 
BRANCH  16  17
ATOM     17  N   UNL     1      -3.737  12.305  22.744  0.00  0.00    +0.000 NA
ATOM     18  C   UNL     1      -4.831  12.646  21.828  0.00  0.00    +0.000 C 
BRANCH  17  19
ATOM     19  C   UNL     1      -3.961  12.869  24.089  0.00  0.00    +0.000 C 
BRANCH  19  21
ATOM     20  C   UNL     1      -4.070  15.362  24.415  0.00  0.00    +0.000 C 
ATOM     21  C   UNL     1      -3.158  14.145  24.365  0.00  0.00    +0.000 C 
ENDBRANCH  19  21
ENDBRANCH  17  19
ENDBRANCH  16  17
ENDBRANCH  10  16
ENDBRANCH   9  13
ENDBRANCH   8   9
ENDBRANCH   1   8
BRANCH   4  22
ATOM     22  O   UNL     1       3.902   5.038  16.937  0.00  0.00    +0.000 OA
BRANCH  22  23
ATOM     23  C   UNL     1       5.112   4.358  17.276  0.00  0.00    +0.000 C 
BRANCH  23  24
ATOM     24  C   UNL     1       6.148   5.353  17.710  0.00  0.00    +0.000 A 
ATOM     25  C   UNL     1       6.866   5.156  18.898  0.00  0.00    +0.000 A 
ATOM     26  C   UNL     1       7.831   6.082  19.287  0.00  0.00    +0.000 A 
ATOM     27  C   UNL     1       8.073   7.197  18.491  0.00  0.00    +0.000 A 
ATOM     28  F   UNL     1       8.998   8.085  18.869  0.00  0.00    +0.000 F 
ATOM     29  C   UNL     1       7.371   7.403  17.311  0.00  0.00    +0.000 A 
ATOM     30  C   UNL     1       6.408   6.482  16.918  0.00  0.00    +0.000 A 
ENDBRANCH  23  24
ENDBRANCH  22  23
ENDBRANCH   4  22
TORSDOF 10
ENDMDL
MODEL 8
REMARK VINA RESULT:      -7.3      1.144      1.487
REMARK  Name = 
REMARK  12 active torsions:
REMARK  status: ('A' for Active; 'I' for Inactive)
REMARK    1  A    between atoms: C_1  and  C_2
REMARK    2  A    between atoms: C_2  and  C_3
REMARK    3  A    between atoms: C_3  and  N_4
REMARK    4  A    between atoms: N_4  and  C_5
REMARK    5  A    between atoms: N_4  and  C_6
REMARK    6  A    between atoms: C_6  and  C_7
REMARK    7  A    between atoms: C_10  and  C_11
REMARK    8  A    between atoms: C_11  and  C_12
REMARK    9  A    between atoms: C_12  and  N_13
REMARK   10  A    between atoms: C_16  and  O_17
REMARK   11  A    between atoms: O_17  and  C_18
REMARK   12  A    between atoms: C_18  and  C_19
REMARK                            x       y       z     vdW  Elec       q    Type
REMARK                         _______ _______ _______ _____ _____    ______ ____
ROOT
ATOM      1  N   UNL     1       6.641   6.650  17.447  0.00  0.00    +0.000 N 
ATOM      2  C   UNL     1       5.528   6.632  18.263  0.00  0.00    +0.000 A 
ATOM      3  C   UNL     1       4.574   5.719  18.125  0.00  0.00    +0.000 A 
ATOM      4  C   UNL     1       4.617   4.781  17.030  0.00  0.00    +0.000 A 
ATOM      5  C   UNL     1       5.651   4.801  16.177  0.00  0.00    +0.000 A 
ATOM      6  C   UNL     1       6.756   5.785  16.354  0.00  0.00    +0.000 A 
ATOM      7  O   UNL     1       7.685   5.792  15.550  0.00  0.00    +0.000 OA
ENDROOT
BRANCH   1   8
ATOM      8  C   UNL     1       7.745   7.576  17.732  0.00  0.00    +0.000 C 
BRANCH   8   9
ATOM      9  C   UNL     1       7.437   9.077  17.528  0.00  0.00    +0.000 C 
BRANCH   9  13
ATOM     10  C   UNL     1      10.234  11.757  19.467  0.00  0.00    +0.000 A 
ATOM     11  C   UNL     1       9.950  10.500  20.012  0.00  0.00    +0.000 A 
ATOM     12  C   UNL     1       9.075   9.626  19.367  0.00  0.00    +0.000 A 
ATOM     13  C   UNL     1       8.462   9.991  18.163  0.00  0.00    +0.000 A 
ATOM     14  C   UNL     1       8.776  11.236  17.596  0.00  0.00    +0.000 A 
ATOM     15  C   UNL     1       9.645  12.115  18.248  0.00  0.00    +0.000 A 
BRANCH  10  16
ATOM     16  C   UNL     1      11.154  12.717  20.189  0.00  0.00    +0.000 C 
BRANCH  16  17
ATOM     17  N   UNL     1      10.912  14.139  19.867  0.00  0.00    +0.000 NA
ATOM     18  C   UNL     1      12.187  14.769  19.507  0.00  0.00    +0.000 C 
BRANCH  17  19
ATOM     19  C   UNL     1      10.266  14.833  20.999  0.00  0.00    +0.000 C 
BRANCH  19  21
ATOM     20  C   UNL     1       7.824  14.250  20.838  0.00  0.00    +0.000 C 
ATOM     21  C   UNL     1       8.859  15.353  20.681  0.00  0.00    +0.000 C 
ENDBRANCH  19  21
ENDBRANCH  17  19
ENDBRANCH  16  17
ENDBRANCH  10  16
ENDBRANCH   9  13
ENDBRANCH   8   9
ENDBRANCH   1   8
BRANCH   4  22
ATOM     22  O   UNL     1       3.581   3.886  16.846  0.00  0.00    +0.000 OA
BRANCH  22  23
ATOM     23  C   UNL     1       3.719   2.627  17.507  0.00  0.00    +0.000 C 
BRANCH  23  24
ATOM     24  C   UNL     1       2.951   2.645  18.796  0.00  0.00    +0.000 A 
ATOM     25  C   UNL     1       3.620   2.516  20.021  0.00  0.00    +0.000 A 
ATOM     26  C   UNL     1       2.898   2.542  21.212  0.00  0.00    +0.000 A 
ATOM     27  C   UNL     1       1.516   2.697  21.174  0.00  0.00    +0.000 A 
ATOM     28  F   UNL     1       0.826   2.718  22.318  0.00  0.00    +0.000 F 
ATOM     29  C   UNL     1       0.841   2.829  19.968  0.00  0.00    +0.000 A 
ATOM     30  C   UNL     1       1.556   2.804  18.777  0.00  0.00    +0.000 A 
ENDBRANCH  23  24
ENDBRANCH  22  23
ENDBRANCH   4  22
TORSDOF 10
ENDMDL
MODEL 9
REMARK VINA RESULT:      -7.3      4.555      8.993
REMARK  Name = 
REMARK  12 active torsions:
REMARK  status: ('A' for Active; 'I' for Inactive)
REMARK    1  A    between atoms: C_1  and  C_2
REMARK    2  A    between atoms: C_2  and  C_3
REMARK    3  A    between atoms: C_3  and  N_4
REMARK    4  A    between atoms: N_4  and  C_5
REMARK    5  A    between atoms: N_4  and  C_6
REMARK    6  A    between atoms: C_6  and  C_7
REMARK    7  A    between atoms: C_10  and  C_11
REMARK    8  A    between atoms: C_11  and  C_12
REMARK    9  A    between atoms: C_12  and  N_13
REMARK   10  A    between atoms: C_16  and  O_17
REMARK   11  A    between atoms: O_17  and  C_18
REMARK   12  A    between atoms: C_18  and  C_19
REMARK                            x       y       z     vdW  Elec       q    Type
REMARK                         _______ _______ _______ _____ _____    ______ ____
ROOT
ATOM      1  N   UNL     1       5.866   5.366  17.765  0.00  0.00    +0.000 N 
ATOM      2  C   UNL     1       6.147   6.343  16.833  0.00  0.00    +0.000 A 
ATOM      3  C   UNL     1       7.098   7.249  17.034  0.00  0.00    +0.000 A 
ATOM      4  C   UNL     1       7.791   7.308  18.298  0.00  0.00    +0.000 A 
ATOM      5  C   UNL     1       7.507   6.415  19.255  0.00  0.00    +0.000 A 
ATOM      6  C   UNL     1       6.482   5.359  19.021  0.00  0.00    +0.000 A 
ATOM      7  O   UNL     1       6.230   4.560  19.921  0.00  0.00    +0.000 OA
ENDROOT
BRANCH   1   8
ATOM      8  C   UNL     1       4.918   4.292  17.439  0.00  0.00    +0.000 C 
BRANCH   8   9
ATOM      9  C   UNL     1       3.461   4.735  17.174  0.00  0.00    +0.000 C 
BRANCH   9  13
ATOM     10  C   UNL     1       1.883   7.727  19.880  0.00  0.00    +0.000 A 
ATOM     11  C   UNL     1       2.074   6.406  20.302  0.00  0.00    +0.000 A 
ATOM     12  C   UNL     1       2.615   5.454  19.439  0.00  0.00    +0.000 A 
ATOM     13  C   UNL     1       2.974   5.800  18.131  0.00  0.00    +0.000 A 
ATOM     14  C   UNL     1       2.819   7.132  17.719  0.00  0.00    +0.000 A 
ATOM     15  C   UNL     1       2.269   8.084  18.581  0.00  0.00    +0.000 A 
BRANCH  10  16
ATOM     16  C   UNL     1       1.262   8.749  20.808  0.00  0.00    +0.000 C 
BRANCH  16  17
ATOM     17  N   UNL     1       0.719   9.937  20.117  0.00  0.00    +0.000 NA
ATOM     18  C   UNL     1       1.243  11.144  20.765  0.00  0.00    +0.000 C 
BRANCH  17  19
ATOM     19  C   UNL     1      -0.757   9.918  20.118  0.00  0.00    +0.000 C 
BRANCH  19  21
ATOM     20  C   UNL     1      -0.889   9.920  17.604  0.00  0.00    +0.000 C 
ATOM     21  C   UNL     1      -1.383  10.580  18.884  0.00  0.00    +0.000 C 
ENDBRANCH  19  21
ENDBRANCH  17  19
ENDBRANCH  16  17
ENDBRANCH  10  16
ENDBRANCH   9  13
ENDBRANCH   8   9
ENDBRANCH   1   8
BRANCH   4  22
ATOM     22  O   UNL     1       8.722   8.303  18.529  0.00  0.00    +0.000 OA
BRANCH  22  23
ATOM     23  C   UNL     1       8.482   9.547  17.870  0.00  0.00    +0.000 C 
BRANCH  23  24
ATOM     24  C   UNL     1       9.157  10.657  18.622  0.00  0.00    +0.000 A 
ATOM     25  C   UNL     1       9.491  10.496  19.974  0.00  0.00    +0.000 A 
ATOM     26  C   UNL     1      10.125  11.529  20.659  0.00  0.00    +0.000 A 
ATOM     27  C   UNL     1      10.422  12.714  19.994  0.00  0.00    +0.000 A 
ATOM     28  F   UNL     1      11.028  13.705  20.656  0.00  0.00    +0.000 F 
ATOM     29  C   UNL     1      10.100  12.886  18.654  0.00  0.00    +0.000 A 
ATOM     30  C   UNL     1       9.468  11.858  17.966  0.00  0.00    +0.000 A 
ENDBRANCH  23  24
ENDBRANCH  22  23
ENDBRANCH   4  22
TORSDOF 10
ENDMDL
