MODEL 1
REMARK VINA RESULT:      -7.6      0.000      0.000
REMARK  Name = 
REMARK  12 active torsions:
REMARK  status: ('A' for Active; 'I' for Inactive)
REMARK    1  A    between atoms: C_2  and  C_3
REMARK    2  A    between atoms: C_3  and  N_4
REMARK    3  A    between atoms: C_5  and  C_7
REMARK    4  A    between atoms: C_9  and  C_10
REMARK    5  A    between atoms: C_10  and  C_11
REMARK    6  A    between atoms: C_10  and  C_12
REMARK    7  A    between atoms: C_10  and  C_13
REMARK    8  A    between atoms: C_15  and  O_16
REMARK    9  A    between atoms: O_16  and  C_17
REMARK   10  A    between atoms: C_17  and  C_18
REMARK   11  A    between atoms: C_21  and  C_22
REMARK   12  A    between atoms: C_22  and  O_23
REMARK                            x       y       z     vdW  Elec       q    Type
REMARK                         _______ _______ _______ _____ _____    ______ ____
ROOT
ATOM      1  C   UNL     1       5.121   4.803  18.717  0.00  0.00    +0.000 C 
ATOM      2  C   UNL     1       4.567   3.941  19.581  0.00  0.00    +0.000 C 
ATOM      3  C   UNL     1       3.249   3.203  19.379  0.00  0.00    +0.000 C 
ATOM      4  C   UNL     1       2.818   3.448  17.908  0.00  0.00    +0.000 C 
ATOM      5  C   UNL     1       3.146   4.846  17.365  0.00  0.00    +0.000 C 
ATOM      6  O   UNL     1       4.546   5.168  17.504  0.00  0.00    +0.000 OA
ENDROOT
BRANCH   1   8
ATOM      7  N   UNL     1       6.958   6.356  18.232  0.00  0.00    +0.000 N 
ATOM      8  C   UNL     1       6.453   5.393  19.090  0.00  0.00    +0.000 C 
ATOM      9  O   UNL     1       7.063   5.049  20.090  0.00  0.00    +0.000 OA
ATOM     10  H   UNL     1       6.418   6.628  17.419  0.00  0.00    +0.000 HD
BRANCH   7  11
ATOM     11  C   UNL     1       8.236   6.975  18.515  0.00  0.00    +0.000 C 
BRANCH  11  13
ATOM     12  C   UNL     1       8.232   9.721  17.860  0.00  0.00    +0.000 C 
ATOM     13  C   UNL     1       8.234   8.454  18.163  0.00  0.00    +0.000 C 
ENDBRANCH  11  13
ENDBRANCH   7  11
ENDBRANCH   1   8
BRANCH   3  14
ATOM     14  C   UNL     1       2.162   3.446  20.510  0.00  0.00    +0.000 C 
ATOM     15  C   UNL     1       2.285   2.446  21.661  0.00  0.00    +0.000 C 
ATOM     16  C   UNL     1       2.296   4.855  21.143  0.00  0.00    +0.000 C 
ATOM     17  C   UNL     1       0.717   3.259  19.967  0.00  0.00    +0.000 C 
ENDBRANCH   3  14
BRANCH   5  18
ATOM     18  O   UNL     1       2.328   5.863  17.916  0.00  0.00    +0.000 OA
BRANCH  18  19
ATOM     19  C   UNL     1       2.904   7.180  17.855  0.00  0.00    +0.000 C 
BRANCH  19  20
ATOM     20  C   UNL     1       2.004   8.150  18.593  0.00  0.00    +0.000 A 
ATOM     21  C   UNL     1       1.400   9.238  17.947  0.00  0.00    +0.000 A 
ATOM     22  C   UNL     1       0.602  10.147  18.662  0.00  0.00    +0.000 A 
ATOM     23  C   UNL     1       0.336   9.959  20.024  0.00  0.00    +0.000 A 
ATOM     24  C   UNL     1       0.993   8.908  20.683  0.00  0.00    +0.000 A 
ATOM     25  C   UNL     1       1.808   8.016  19.972  0.00  0.00    +0.000 A 
BRANCH  23  26
ATOM     26  C   UNL     1      -0.617  10.885  20.740  0.00  0.00    +0.000 C 
BRANCH  26  27
ATOM     27  O   UNL     1      -1.529  11.506  19.838  0.00  0.00    +0.000 OA
ATOM     28  H   UNL     1      -1.157  11.385  18.946  0.00  0.00    +0.000 HD
ENDBRANCH  26  27
ENDBRANCH  23  26
ENDBRANCH  19  20
ENDBRANCH  18  19
ENDBRANCH   5  18
TORSDOF 9
ENDMDL
MODEL 2
REMARK VINA RESULT:      -7.6      0.642      1.135
REMARK  Name = 
REMARK  12 active torsions:
REMARK  status: ('A' for Active; 'I' for Inactive)
REMARK    1  A    between atoms: C_2  and  C_3
REMARK    2  A    between atoms: C_3  and  N_4
REMARK    3  A    between atoms: C_5  and  C_7
REMARK    4  A    between atoms: C_9  and  C_10
REMARK    5  A    between atoms: C_10  and  C_11
REMARK    6  A    between atoms: C_10  and  C_12
REMARK    7  A    between atoms: C_10  and  C_13
REMARK    8  A    between atoms: C_15  and  O_16
REMARK    9  A    between atoms: O_16  and  C_17
REMARK   10  A    between atoms: C_17  and  C_18
REMARK   11  A    between atoms: C_21  and  C_22
REMARK   12  A    between atoms: C_22  and  O_23
REMARK                            x       y       z     vdW  Elec       q    Type
REMARK                         _______ _______ _______ _____ _____    ______ ____
ROOT
ATOM      1  C   UNL     1       5.042   4.806  18.694  0.00  0.00    +0.000 C 
ATOM      2  C   UNL     1       4.511   3.905  19.530  0.00  0.00    +0.000 C 
ATOM      3  C   UNL     1       3.187   3.178  19.329  0.00  0.00    +0.000 C 
ATOM      4  C   UNL     1       2.716   3.492  17.884  0.00  0.00    +0.000 C 
ATOM      5  C   UNL     1       3.032   4.915  17.398  0.00  0.00    +0.000 C 
ATOM      6  O   UNL     1       4.436   5.229  17.515  0.00  0.00    +0.000 OA
ENDROOT
BRANCH   1   8
ATOM      7  N   UNL     1       6.894   6.341  18.204  0.00  0.00    +0.000 N 
ATOM      8  C   UNL     1       6.386   5.378  19.058  0.00  0.00    +0.000 C 
ATOM      9  O   UNL     1       7.001   5.017  20.049  0.00  0.00    +0.000 OA
ATOM     10  H   UNL     1       6.349   6.627  17.398  0.00  0.00    +0.000 HD
BRANCH   7  11
ATOM     11  C   UNL     1       8.182   6.943  18.479  0.00  0.00    +0.000 C 
BRANCH  11  13
ATOM     12  C   UNL     1       8.208   9.692  17.834  0.00  0.00    +0.000 C 
ATOM     13  C   UNL     1       8.196   8.423  18.132  0.00  0.00    +0.000 C 
ENDBRANCH  11  13
ENDBRANCH   7  11
ENDBRANCH   1   8
BRANCH   3  14
ATOM     14  C   UNL     1       2.131   3.368  20.499  0.00  0.00    +0.000 C 
ATOM     15  C   UNL     1       2.281   2.312  21.596  0.00  0.00    +0.000 C 
ATOM     16  C   UNL     1       2.286   4.743  21.196  0.00  0.00    +0.000 C 
ATOM     17  C   UNL     1       0.671   3.210  19.986  0.00  0.00    +0.000 C 
ENDBRANCH   3  14
BRANCH   5  18
ATOM     18  O   UNL     1       2.232   5.905  18.018  0.00  0.00    +0.000 OA
BRANCH  18  19
ATOM     19  C   UNL     1       2.723   7.247  17.857  0.00  0.00    +0.000 C 
BRANCH  19  20
ATOM     20  C   UNL     1       2.004   8.160  18.828  0.00  0.00    +0.000 A 
ATOM     21  C   UNL     1       1.833   7.819  20.178  0.00  0.00    +0.000 A 
ATOM     22  C   UNL     1       1.127   8.664  21.050  0.00  0.00    +0.000 A 
ATOM     23  C   UNL     1       0.629   9.899  20.614  0.00  0.00    +0.000 A 
ATOM     24  C   UNL     1       0.743  10.209  19.250  0.00  0.00    +0.000 A 
ATOM     25  C   UNL     1       1.427   9.353  18.377  0.00  0.00    +0.000 A 
BRANCH  23  26
ATOM     26  C   UNL     1      -0.024  10.837  21.600  0.00  0.00    +0.000 C 
BRANCH  26  27
ATOM     27  O   UNL     1       0.607  12.115  21.612  0.00  0.00    +0.000 OA
ATOM     28  H   UNL     1       1.169  12.150  20.817  0.00  0.00    +0.000 HD
ENDBRANCH  26  27
ENDBRANCH  23  26
ENDBRANCH  19  20
ENDBRANCH  18  19
ENDBRANCH   5  18
TORSDOF 9
ENDMDL
MODEL 3
REMARK VINA RESULT:      -7.5      0.169      1.284
REMARK  Name = 
REMARK  12 active torsions:
REMARK  status: ('A' for Active; 'I' for Inactive)
REMARK    1  A    between atoms: C_2  and  C_3
REMARK    2  A    between atoms: C_3  and  N_4
REMARK    3  A    between atoms: C_5  and  C_7
REMARK    4  A    between atoms: C_9  and  C_10
REMARK    5  A    between atoms: C_10  and  C_11
REMARK    6  A    between atoms: C_10  and  C_12
REMARK    7  A    between atoms: C_10  and  C_13
REMARK    8  A    between atoms: C_15  and  O_16
REMARK    9  A    between atoms: O_16  and  C_17
REMARK   10  A    between atoms: C_17  and  C_18
REMARK   11  A    between atoms: C_21  and  C_22
REMARK   12  A    between atoms: C_22  and  O_23
REMARK                            x       y       z     vdW  Elec       q    Type
REMARK                         _______ _______ _______ _____ _____    ______ ____
ROOT
ATOM      1  C   UNL     1       5.029   4.847  18.690  0.00  0.00    +0.000 C 
ATOM      2  C   UNL     1       4.488   3.955  19.530  0.00  0.00    +0.000 C 
ATOM      3  C   UNL     1       3.155   3.243  19.334  0.00  0.00    +0.000 C 
ATOM      4  C   UNL     1       2.686   3.558  17.888  0.00  0.00    +0.000 C 
ATOM      5  C   UNL     1       3.019   4.975  17.397  0.00  0.00    +0.000 C 
ATOM      6  O   UNL     1       4.426   5.273  17.510  0.00  0.00    +0.000 OA
ENDROOT
BRANCH   1   8
ATOM      7  N   UNL     1       6.898   6.359  18.193  0.00  0.00    +0.000 N 
ATOM      8  C   UNL     1       6.380   5.404  19.050  0.00  0.00    +0.000 C 
ATOM      9  O   UNL     1       6.993   5.038  20.042  0.00  0.00    +0.000 OA
ATOM     10  H   UNL     1       6.355   6.649  17.387  0.00  0.00    +0.000 HD
BRANCH   7  11
ATOM     11  C   UNL     1       8.193   6.946  18.464  0.00  0.00    +0.000 C 
BRANCH  11  13
ATOM     12  C   UNL     1       8.220   9.714  17.907  0.00  0.00    +0.000 C 
ATOM     13  C   UNL     1       8.208   8.436  18.164  0.00  0.00    +0.000 C 
ENDBRANCH  11  13
ENDBRANCH   7  11
ENDBRANCH   1   8
BRANCH   3  14
ATOM     14  C   UNL     1       2.103   3.450  20.504  0.00  0.00    +0.000 C 
ATOM     15  C   UNL     1       2.152   4.862  21.089  0.00  0.00    +0.000 C 
ATOM     16  C   UNL     1       0.649   3.233  20.015  0.00  0.00    +0.000 C 
ATOM     17  C   UNL     1       2.389   2.506  21.707  0.00  0.00    +0.000 C 
ENDBRANCH   3  14
BRANCH   5  18
ATOM     18  O   UNL     1       2.231   5.977  18.014  0.00  0.00    +0.000 OA
BRANCH  18  19
ATOM     19  C   UNL     1       2.881   7.256  18.121  0.00  0.00    +0.000 C 
BRANCH  19  20
ATOM     20  C   UNL     1       1.952   8.228  18.819  0.00  0.00    +0.000 A 
ATOM     21  C   UNL     1       1.693   8.148  20.195  0.00  0.00    +0.000 A 
ATOM     22  C   UNL     1       0.796   9.037  20.811  0.00  0.00    +0.000 A 
ATOM     23  C   UNL     1       0.185  10.067  20.084  0.00  0.00    +0.000 A 
ATOM     24  C   UNL     1       0.395  10.106  18.696  0.00  0.00    +0.000 A 
ATOM     25  C   UNL     1       1.271   9.203  18.080  0.00  0.00    +0.000 A 
BRANCH  23  26
ATOM     26  C   UNL     1      -0.683  11.076  20.794  0.00  0.00    +0.000 C 
BRANCH  26  27
ATOM     27  O   UNL     1      -1.569  11.738  19.895  0.00  0.00    +0.000 OA
ATOM     28  H   UNL     1      -1.436  11.323  19.025  0.00  0.00    +0.000 HD
ENDBRANCH  26  27
ENDBRANCH  23  26
ENDBRANCH  19  20
ENDBRANCH  18  19
ENDBRANCH   5  18
TORSDOF 9
ENDMDL
MODEL 4
REMARK VINA RESULT:      -7.4      1.114      1.424
REMARK  Name = 
REMARK  12 active torsions:
REMARK  status: ('A' for Active; 'I' for Inactive)
REMARK    1  A    between atoms: C_2  and  C_3
REMARK    2  A    between atoms: C_3  and  N_4
REMARK    3  A    between atoms: C_5  and  C_7
REMARK    4  A    between atoms: C_9  and  C_10
REMARK    5  A    between atoms: C_10  and  C_11
REMARK    6  A    between atoms: C_10  and  C_12
REMARK    7  A    between atoms: C_10  and  C_13
REMARK    8  A    between atoms: C_15  and  O_16
REMARK    9  A    between atoms: O_16  and  C_17
REMARK   10  A    between atoms: C_17  and  C_18
REMARK   11  A    between atoms: C_21  and  C_22
REMARK   12  A    between atoms: C_22  and  O_23
REMARK                            x       y       z     vdW  Elec       q    Type
REMARK                         _______ _______ _______ _____ _____    ______ ____
ROOT
ATOM      1  C   UNL     1       4.795   4.060  18.119  0.00  0.00    +0.000 C 
ATOM      2  C   UNL     1       4.370   3.368  19.185  0.00  0.00    +0.000 C 
ATOM      3  C   UNL     1       2.985   2.756  19.353  0.00  0.00    +0.000 C 
ATOM      4  C   UNL     1       2.273   2.874  17.979  0.00  0.00    +0.000 C 
ATOM      5  C   UNL     1       2.589   4.157  17.196  0.00  0.00    +0.000 C 
ATOM      6  O   UNL     1       4.007   4.342  17.007  0.00  0.00    +0.000 OA
ENDROOT
BRANCH   1   8
ATOM      7  N   UNL     1       6.590   5.326  19.215  0.00  0.00    +0.000 N 
ATOM      8  C   UNL     1       6.220   4.545  18.134  0.00  0.00    +0.000 C 
ATOM      9  O   UNL     1       7.012   4.269  17.246  0.00  0.00    +0.000 OA
ATOM     10  H   UNL     1       5.911   5.522  19.941  0.00  0.00    +0.000 HD
BRANCH   7  11
ATOM     11  C   UNL     1       7.942   5.836  19.308  0.00  0.00    +0.000 C 
BRANCH  11  13
ATOM     12  C   UNL     1       8.213   8.318  17.990  0.00  0.00    +0.000 C 
ATOM     13  C   UNL     1       8.088   7.172  18.598  0.00  0.00    +0.000 C 
ENDBRANCH  11  13
ENDBRANCH   7  11
ENDBRANCH   1   8
BRANCH   3  14
ATOM     14  C   UNL     1       2.186   3.242  20.635  0.00  0.00    +0.000 C 
ATOM     15  C   UNL     1       2.711   4.572  21.180  0.00  0.00    +0.000 C 
ATOM     16  C   UNL     1       0.683   3.463  20.325  0.00  0.00    +0.000 C 
ATOM     17  C   UNL     1       2.327   2.239  21.815  0.00  0.00    +0.000 C 
ENDBRANCH   3  14
BRANCH   5  18
ATOM     18  O   UNL     1       1.991   5.312  17.757  0.00  0.00    +0.000 OA
BRANCH  18  19
ATOM     19  C   UNL     1       2.843   6.471  17.769  0.00  0.00    +0.000 C 
BRANCH  19  20
ATOM     20  C   UNL     1       2.161   7.582  18.540  0.00  0.00    +0.000 A 
ATOM     21  C   UNL     1       1.761   8.776  17.921  0.00  0.00    +0.000 A 
ATOM     22  C   UNL     1       1.167   9.808  18.666  0.00  0.00    +0.000 A 
ATOM     23  C   UNL     1       0.898   9.651  20.032  0.00  0.00    +0.000 A 
ATOM     24  C   UNL     1       1.356   8.484  20.662  0.00  0.00    +0.000 A 
ATOM     25  C   UNL     1       1.971   7.466  19.921  0.00  0.00    +0.000 A 
BRANCH  23  26
ATOM     26  C   UNL     1       0.154  10.730  20.781  0.00  0.00    +0.000 C 
BRANCH  26  27
ATOM     27  O   UNL     1       1.041  11.704  21.325  0.00  0.00    +0.000 OA
ATOM     28  H   UNL     1       0.483  12.353  21.790  0.00  0.00    +0.000 HD
ENDBRANCH  26  27
ENDBRANCH  23  26
ENDBRANCH  19  20
ENDBRANCH  18  19
ENDBRANCH   5  18
TORSDOF 9
ENDMDL
MODEL 5
REMARK VINA RESULT:      -7.3      0.953      1.635
REMARK  Name = 
REMARK  12 active torsions:
REMARK  status: ('A' for Active; 'I' for Inactive)
REMARK    1  A    between atoms: C_2  and  C_3
REMARK    2  A    between atoms: C_3  and  N_4
REMARK    3  A    between atoms: C_5  and  C_7
REMARK    4  A    between atoms: C_9  and  C_10
REMARK    5  A    between atoms: C_10  and  C_11
REMARK    6  A    between atoms: C_10  and  C_12
REMARK    7  A    between atoms: C_10  and  C_13
REMARK    8  A    between atoms: C_15  and  O_16
REMARK    9  A    between atoms: O_16  and  C_17
REMARK   10  A    between atoms: C_17  and  C_18
REMARK   11  A    between atoms: C_21  and  C_22
REMARK   12  A    between atoms: C_22  and  O_23
REMARK                            x       y       z     vdW  Elec       q    Type
REMARK                         _______ _______ _______ _____ _____    ______ ____
ROOT
ATOM      1  C   UNL     1       4.755   4.088  18.105  0.00  0.00    +0.000 C 
ATOM      2  C   UNL     1       4.319   3.388  19.160  0.00  0.00    +0.000 C 
ATOM      3  C   UNL     1       2.919   2.809  19.326  0.00  0.00    +0.000 C 
ATOM      4  C   UNL     1       2.201   2.971  17.959  0.00  0.00    +0.000 C 
ATOM      5  C   UNL     1       2.546   4.261  17.199  0.00  0.00    +0.000 C 
ATOM      6  O   UNL     1       3.968   4.412  17.004  0.00  0.00    +0.000 OA
ENDROOT
BRANCH   1   8
ATOM      7  N   UNL     1       6.572   5.343  19.177  0.00  0.00    +0.000 N 
ATOM      8  C   UNL     1       6.192   4.535  18.119  0.00  0.00    +0.000 C 
ATOM      9  O   UNL     1       6.986   4.209  17.250  0.00  0.00    +0.000 OA
ATOM     10  H   UNL     1       5.890   5.583  19.889  0.00  0.00    +0.000 HD
BRANCH   7  11
ATOM     11  C   UNL     1       7.936   5.820  19.267  0.00  0.00    +0.000 C 
BRANCH  11  13
ATOM     12  C   UNL     1       8.251   8.327  18.008  0.00  0.00    +0.000 C 
ATOM     13  C   UNL     1       8.105   7.170  18.590  0.00  0.00    +0.000 C 
ENDBRANCH  11  13
ENDBRANCH   7  11
ENDBRANCH   1   8
BRANCH   3  14
ATOM     14  C   UNL     1       2.141   3.292  20.622  0.00  0.00    +0.000 C 
ATOM     15  C   UNL     1       0.659   3.556  20.348  0.00  0.00    +0.000 C 
ATOM     16  C   UNL     1       2.191   2.231  21.751  0.00  0.00    +0.000 C 
ATOM     17  C   UNL     1       2.697   4.642  21.157  0.00  0.00    +0.000 C 
ENDBRANCH   3  14
BRANCH   5  18
ATOM     18  O   UNL     1       1.983   5.420  17.785  0.00  0.00    +0.000 OA
BRANCH  18  19
ATOM     19  C   UNL     1       2.929   6.474  18.036  0.00  0.00    +0.000 C 
BRANCH  19  20
ATOM     20  C   UNL     1       2.194   7.684  18.576  0.00  0.00    +0.000 A 
ATOM     21  C   UNL     1       1.860   7.804  19.933  0.00  0.00    +0.000 A 
ATOM     22  C   UNL     1       1.142   8.916  20.402  0.00  0.00    +0.000 A 
ATOM     23  C   UNL     1       0.796   9.967  19.542  0.00  0.00    +0.000 A 
ATOM     24  C   UNL     1       1.073   9.817  18.175  0.00  0.00    +0.000 A 
ATOM     25  C   UNL     1       1.768   8.693  17.706  0.00  0.00    +0.000 A 
BRANCH  23  26
ATOM     26  C   UNL     1       0.128  11.202  20.096  0.00  0.00    +0.000 C 
BRANCH  26  27
ATOM     27  O   UNL     1      -1.293  11.110  20.029  0.00  0.00    +0.000 OA
ATOM     28  H   UNL     1      -1.551  11.490  19.170  0.00  0.00    +0.000 HD
ENDBRANCH  26  27
ENDBRANCH  23  26
ENDBRANCH  19  20
ENDBRANCH  18  19
ENDBRANCH   5  18
TORSDOF 9
ENDMDL
MODEL 6
REMARK VINA RESULT:      -7.2      1.059      1.366
REMARK  Name = 
REMARK  12 active torsions:
REMARK  status: ('A' for Active; 'I' for Inactive)
REMARK    1  A    between atoms: C_2  and  C_3
REMARK    2  A    between atoms: C_3  and  N_4
REMARK    3  A    between atoms: C_5  and  C_7
REMARK    4  A    between atoms: C_9  and  C_10
REMARK    5  A    between atoms: C_10  and  C_11
REMARK    6  A    between atoms: C_10  and  C_12
REMARK    7  A    between atoms: C_10  and  C_13
REMARK    8  A    between atoms: C_15  and  O_16
REMARK    9  A    between atoms: O_16  and  C_17
REMARK   10  A    between atoms: C_17  and  C_18
REMARK   11  A    between atoms: C_21  and  C_22
REMARK   12  A    between atoms: C_22  and  O_23
REMARK                            x       y       z     vdW  Elec       q    Type
REMARK                         _______ _______ _______ _____ _____    ______ ____
ROOT
ATOM      1  C   UNL     1       4.731   4.844  18.246  0.00  0.00    +0.000 C 
ATOM      2  C   UNL     1       4.293   3.853  19.033  0.00  0.00    +0.000 C 
ATOM      3  C   UNL     1       2.867   3.320  19.081  0.00  0.00    +0.000 C 
ATOM      4  C   UNL     1       2.107   3.962  17.890  0.00  0.00    +0.000 C 
ATOM      5  C   UNL     1       2.504   5.413  17.580  0.00  0.00    +0.000 C 
ATOM      6  O   UNL     1       3.923   5.553  17.362  0.00  0.00    +0.000 OA
ENDROOT
BRANCH   1   8
ATOM      7  N   UNL     1       6.548   6.450  17.868  0.00  0.00    +0.000 N 
ATOM      8  C   UNL     1       6.193   5.192  18.322  0.00  0.00    +0.000 C 
ATOM      9  O   UNL     1       7.027   4.413  18.758  0.00  0.00    +0.000 OA
ATOM     10  H   UNL     1       5.828   7.076  17.527  0.00  0.00    +0.000 HD
BRANCH   7  11
ATOM     11  C   UNL     1       7.935   6.866  17.905  0.00  0.00    +0.000 C 
BRANCH  11  13
ATOM     12  C   UNL     1       8.180   9.678  17.953  0.00  0.00    +0.000 C 
ATOM     13  C   UNL     1       8.067   8.380  17.930  0.00  0.00    +0.000 C 
ENDBRANCH  11  13
ENDBRANCH   7  11
ENDBRANCH   1   8
BRANCH   3  14
ATOM     14  C   UNL     1       2.173   3.379  20.507  0.00  0.00    +0.000 C 
ATOM     15  C   UNL     1       0.663   3.147  20.431  0.00  0.00    +0.000 C 
ATOM     16  C   UNL     1       2.732   2.293  21.463  0.00  0.00    +0.000 C 
ATOM     17  C   UNL     1       2.333   4.778  21.167  0.00  0.00    +0.000 C 
ENDBRANCH   3  14
BRANCH   5  18
ATOM     18  O   UNL     1       2.040   6.336  18.549  0.00  0.00    +0.000 OA
BRANCH  18  19
ATOM     19  C   UNL     1       2.397   7.703  18.280  0.00  0.00    +0.000 C 
BRANCH  19  20
ATOM     20  C   UNL     1       1.661   8.609  19.247  0.00  0.00    +0.000 A 
ATOM     21  C   UNL     1       1.154   9.856  18.854  0.00  0.00    +0.000 A 
ATOM     22  C   UNL     1       0.511  10.695  19.779  0.00  0.00    +0.000 A 
ATOM     23  C   UNL     1       0.302  10.285  21.102  0.00  0.00    +0.000 A 
ATOM     24  C   UNL     1       0.867   9.067  21.510  0.00  0.00    +0.000 A 
ATOM     25  C   UNL     1       1.529   8.242  20.591  0.00  0.00    +0.000 A 
BRANCH  23  26
ATOM     26  C   UNL     1      -0.492  11.158  22.043  0.00  0.00    +0.000 C 
BRANCH  26  27
ATOM     27  O   UNL     1      -0.414  10.694  23.389  0.00  0.00    +0.000 OA
ATOM     28  H   UNL     1       0.072  11.377  23.885  0.00  0.00    +0.000 HD
ENDBRANCH  26  27
ENDBRANCH  23  26
ENDBRANCH  19  20
ENDBRANCH  18  19
ENDBRANCH   5  18
TORSDOF 9
ENDMDL
MODEL 7
REMARK VINA RESULT:      -7.2      1.088      1.714
REMARK  Name = 
REMARK  12 active torsions:
REMARK  status: ('A' for Active; 'I' for Inactive)
REMARK    1  A    between atoms: C_2  and  C_3
REMARK    2  A    between atoms: C_3  and  N_4
REMARK    3  A    between atoms: C_5  and  C_7
REMARK    4  A    between atoms: C_9  and  C_10
REMARK    5  A    between atoms: C_10  and  C_11
REMARK    6  A    between atoms: C_10  and  C_12
REMARK    7  A    between atoms: C_10  and  C_13
REMARK    8  A    between atoms: C_15  and  O_16
REMARK    9  A    between atoms: O_16  and  C_17
REMARK   10  A    between atoms: C_17  and  C_18
REMARK   11  A    between atoms: C_21  and  C_22
REMARK   12  A    between atoms: C_22  and  O_23
REMARK                            x       y       z     vdW  Elec       q    Type
REMARK                         _______ _______ _______ _____ _____    ______ ____
ROOT
ATOM      1  C   UNL     1       4.853   5.002  18.324  0.00  0.00    +0.000 C 
ATOM      2  C   UNL     1       4.342   3.991  19.041  0.00  0.00    +0.000 C 
ATOM      3  C   UNL     1       2.894   3.520  19.007  0.00  0.00    +0.000 C 
ATOM      4  C   UNL     1       2.209   4.257  17.824  0.00  0.00    +0.000 C 
ATOM      5  C   UNL     1       2.679   5.703  17.608  0.00  0.00    +0.000 C 
ATOM      6  O   UNL     1       4.111   5.791  17.451  0.00  0.00    +0.000 OA
ENDROOT
BRANCH   1   8
ATOM      7  N   UNL     1       6.718   6.596  18.309  0.00  0.00    +0.000 N 
ATOM      8  C   UNL     1       6.324   5.280  18.474  0.00  0.00    +0.000 C 
ATOM      9  O   UNL     1       7.132   4.399  18.726  0.00  0.00    +0.000 OA
ATOM     10  H   UNL     1       6.019   7.304  18.115  0.00  0.00    +0.000 HD
BRANCH   7  11
ATOM     11  C   UNL     1       8.117   6.952  18.434  0.00  0.00    +0.000 C 
BRANCH  11  13
ATOM     12  C   UNL     1       8.523   9.724  18.084  0.00  0.00    +0.000 C 
ATOM     13  C   UNL     1       8.336   8.444  18.245  0.00  0.00    +0.000 C 
ENDBRANCH  11  13
ENDBRANCH   7  11
ENDBRANCH   1   8
BRANCH   3  14
ATOM     14  C   UNL     1       2.148   3.535  20.407  0.00  0.00    +0.000 C 
ATOM     15  C   UNL     1       2.320   4.864  21.145  0.00  0.00    +0.000 C 
ATOM     16  C   UNL     1       0.621   3.320  20.248  0.00  0.00    +0.000 C 
ATOM     17  C   UNL     1       2.721   2.461  21.375  0.00  0.00    +0.000 C 
ENDBRANCH   3  14
BRANCH   5  18
ATOM     18  O   UNL     1       2.217   6.594  18.607  0.00  0.00    +0.000 OA
BRANCH  18  19
ATOM     19  C   UNL     1       2.167   7.970  18.194  0.00  0.00    +0.000 C 
BRANCH  19  20
ATOM     20  C   UNL     1       1.481   8.788  19.268  0.00  0.00    +0.000 A 
ATOM     21  C   UNL     1       1.371   8.332  20.590  0.00  0.00    +0.000 A 
ATOM     22  C   UNL     1       0.694   9.091  21.559  0.00  0.00    +0.000 A 
ATOM     23  C   UNL     1       0.164  10.351  21.250  0.00  0.00    +0.000 A 
ATOM     24  C   UNL     1       0.218  10.777  19.913  0.00  0.00    +0.000 A 
ATOM     25  C   UNL     1       0.873  10.006  18.943  0.00  0.00    +0.000 A 
BRANCH  23  26
ATOM     26  C   UNL     1      -0.456  11.193  22.338  0.00  0.00    +0.000 C 
BRANCH  26  27
ATOM     27  O   UNL     1      -0.707  10.434  23.517  0.00  0.00    +0.000 OA
ATOM     28  H   UNL     1      -1.292  10.978  24.073  0.00  0.00    +0.000 HD
ENDBRANCH  26  27
ENDBRANCH  23  26
ENDBRANCH  19  20
ENDBRANCH  18  19
ENDBRANCH   5  18
TORSDOF 9
ENDMDL
MODEL 8
REMARK VINA RESULT:      -7.2      0.954      1.024
REMARK  Name = 
REMARK  12 active torsions:
REMARK  status: ('A' for Active; 'I' for Inactive)
REMARK    1  A    between atoms: C_2  and  C_3
REMARK    2  A    between atoms: C_3  and  N_4
REMARK    3  A    between atoms: C_5  and  C_7
REMARK    4  A    between atoms: C_9  and  C_10
REMARK    5  A    between atoms: C_10  and  C_11
REMARK    6  A    between atoms: C_10  and  C_12
REMARK    7  A    between atoms: C_10  and  C_13
REMARK    8  A    between atoms: C_15  and  O_16
REMARK    9  A    between atoms: O_16  and  C_17
REMARK   10  A    between atoms: C_17  and  C_18
REMARK   11  A    between atoms: C_21  and  C_22
REMARK   12  A    between atoms: C_22  and  O_23
REMARK                            x       y       z     vdW  Elec       q    Type
REMARK                         _______ _______ _______ _____ _____    ______ ____
ROOT
ATOM      1  C   UNL     1       4.754   4.103  18.098  0.00  0.00    +0.000 C 
ATOM      2  C   UNL     1       4.325   3.394  19.150  0.00  0.00    +0.000 C 
ATOM      3  C   UNL     1       2.921   2.830  19.329  0.00  0.00    +0.000 C 
ATOM      4  C   UNL     1       2.185   3.018  17.975  0.00  0.00    +0.000 C 
ATOM      5  C   UNL     1       2.535   4.313  17.226  0.00  0.00    +0.000 C 
ATOM      6  O   UNL     1       3.955   4.450  17.013  0.00  0.00    +0.000 OA
ENDROOT
BRANCH   1   8
ATOM      7  N   UNL     1       6.589   5.361  19.135  0.00  0.00    +0.000 N 
ATOM      8  C   UNL     1       6.196   4.533  18.098  0.00  0.00    +0.000 C 
ATOM      9  O   UNL     1       6.983   4.177  17.234  0.00  0.00    +0.000 OA
ATOM     10  H   UNL     1       5.913   5.625  19.843  0.00  0.00    +0.000 HD
BRANCH   7  11
ATOM     11  C   UNL     1       7.960   5.823  19.210  0.00  0.00    +0.000 C 
BRANCH  11  13
ATOM     12  C   UNL     1       8.263   8.377  18.044  0.00  0.00    +0.000 C 
ATOM     13  C   UNL     1       8.124   7.198  18.582  0.00  0.00    +0.000 C 
ENDBRANCH  11  13
ENDBRANCH   7  11
ENDBRANCH   1   8
BRANCH   3  14
ATOM     14  C   UNL     1       2.167   3.305  20.642  0.00  0.00    +0.000 C 
ATOM     15  C   UNL     1       2.340   2.321  21.801  0.00  0.00    +0.000 C 
ATOM     16  C   UNL     1       2.698   4.670  21.148  0.00  0.00    +0.000 C 
ATOM     17  C   UNL     1       0.630   3.399  20.420  0.00  0.00    +0.000 C 
ENDBRANCH   3  14
BRANCH   5  18
ATOM     18  O   UNL     1       1.993   5.472  17.836  0.00  0.00    +0.000 OA
BRANCH  18  19
ATOM     19  C   UNL     1       2.922   6.563  17.958  0.00  0.00    +0.000 C 
BRANCH  19  20
ATOM     20  C   UNL     1       2.205   7.764  18.540  0.00  0.00    +0.000 A 
ATOM     21  C   UNL     1       1.940   8.910  17.776  0.00  0.00    +0.000 A 
ATOM     22  C   UNL     1       1.309  10.027  18.349  0.00  0.00    +0.000 A 
ATOM     23  C   UNL     1       0.870  10.005  19.679  0.00  0.00    +0.000 A 
ATOM     24  C   UNL     1       1.193   8.883  20.460  0.00  0.00    +0.000 A 
ATOM     25  C   UNL     1       1.844   7.780  19.891  0.00  0.00    +0.000 A 
BRANCH  23  26
ATOM     26  C   UNL     1       0.093  11.173  20.234  0.00  0.00    +0.000 C 
BRANCH  26  27
ATOM     27  O   UNL     1      -1.241  10.808  20.577  0.00  0.00    +0.000 OA
ATOM     28  H   UNL     1      -1.698  11.633  20.817  0.00  0.00    +0.000 HD
ENDBRANCH  26  27
ENDBRANCH  23  26
ENDBRANCH  19  20
ENDBRANCH  18  19
ENDBRANCH   5  18
TORSDOF 9
ENDMDL
MODEL 9
REMARK VINA RESULT:      -7.2      3.356      8.040
REMARK  Name = 
REMARK  12 active torsions:
REMARK  status: ('A' for Active; 'I' for Inactive)
REMARK    1  A    between atoms: C_2  and  C_3
REMARK    2  A    between atoms: C_3  and  N_4
REMARK    3  A    between atoms: C_5  and  C_7
REMARK    4  A    between atoms: C_9  and  C_10
REMARK    5  A    between atoms: C_10  and  C_11
REMARK    6  A    between atoms: C_10  and  C_12
REMARK    7  A    between atoms: C_10  and  C_13
REMARK    8  A    between atoms: C_15  and  O_16
REMARK    9  A    between atoms: O_16  and  C_17
REMARK   10  A    between atoms: C_17  and  C_18
REMARK   11  A    between atoms: C_21  and  C_22
REMARK   12  A    between atoms: C_22  and  O_23
REMARK                            x       y       z     vdW  Elec       q    Type
REMARK                         _______ _______ _______ _____ _____    ______ ____
ROOT
ATOM      1  C   UNL     1      -0.919  10.375  18.458  0.00  0.00    +0.000 C 
ATOM      2  C   UNL     1      -1.095  10.557  19.773  0.00  0.00    +0.000 C 
ATOM      3  C   UNL     1       0.014  10.723  20.804  0.00  0.00    +0.000 C 
ATOM      4  C   UNL     1       1.340  10.889  20.014  0.00  0.00    +0.000 C 
ATOM      5  C   UNL     1       1.436  10.048  18.732  0.00  0.00    +0.000 C 
ATOM      6  O   UNL     1       0.326  10.287  17.842  0.00  0.00    +0.000 OA
ENDROOT
BRANCH   1   8
ATOM      7  N   UNL     1      -2.232  11.151  16.535  0.00  0.00    +0.000 N 
ATOM      8  C   UNL     1      -2.154  10.275  17.603  0.00  0.00    +0.000 C 
ATOM      9  O   UNL     1      -3.043   9.469  17.833  0.00  0.00    +0.000 OA
ATOM     10  H   UNL     1      -1.469  11.796  16.365  0.00  0.00    +0.000 HD
BRANCH   7  11
ATOM     11  C   UNL     1      -3.388  11.124  15.662  0.00  0.00    +0.000 C 
BRANCH  11  13
ATOM     12  C   UNL     1      -2.919   9.558  13.360  0.00  0.00    +0.000 C 
ATOM     13  C   UNL     1      -3.135  10.281  14.423  0.00  0.00    +0.000 C 
ENDBRANCH  11  13
ENDBRANCH   7  11
ENDBRANCH   1   8
BRANCH   3  14
ATOM     14  C   UNL     1      -0.004   9.666  21.988  0.00  0.00    +0.000 C 
ATOM     15  C   UNL     1      -0.788  10.166  23.203  0.00  0.00    +0.000 C 
ATOM     16  C   UNL     1      -0.669   8.334  21.560  0.00  0.00    +0.000 C 
ATOM     17  C   UNL     1       1.428   9.379  22.524  0.00  0.00    +0.000 C 
ENDBRANCH   3  14
BRANCH   5  18
ATOM     18  O   UNL     1       1.602   8.665  18.985  0.00  0.00    +0.000 OA
BRANCH  18  19
ATOM     19  C   UNL     1       2.376   7.972  17.990  0.00  0.00    +0.000 C 
BRANCH  19  20
ATOM     20  C   UNL     1       2.771   6.611  18.526  0.00  0.00    +0.000 A 
ATOM     21  C   UNL     1       3.669   5.778  17.843  0.00  0.00    +0.000 A 
ATOM     22  C   UNL     1       3.988   4.503  18.340  0.00  0.00    +0.000 A 
ATOM     23  C   UNL     1       3.469   4.053  19.560  0.00  0.00    +0.000 A 
ATOM     24  C   UNL     1       2.520   4.859  20.209  0.00  0.00    +0.000 A 
ATOM     25  C   UNL     1       2.186   6.120  19.698  0.00  0.00    +0.000 A 
BRANCH  23  26
ATOM     26  C   UNL     1       3.918   2.728  20.125  0.00  0.00    +0.000 C 
BRANCH  26  27
ATOM     27  O   UNL     1       5.085   2.240  19.468  0.00  0.00    +0.000 OA
ATOM     28  H   UNL     1       4.797   1.937  18.589  0.00  0.00    +0.000 HD
ENDBRANCH  26  27
ENDBRANCH  23  26
ENDBRANCH  19  20
ENDBRANCH  18  19
ENDBRANCH   5  18
TORSDOF 9
ENDMDL
