MODEL 1
REMARK VINA RESULT:      -6.9      0.000      0.000
REMARK  Name = 
REMARK  5 active torsions:
REMARK  status: ('A' for Active; 'I' for Inactive)
REMARK    1  A    between atoms: C_1  and  C_2
REMARK    2  A    between atoms: C_2  and  O_3
REMARK    3  A    between atoms: O_3  and  C_4
REMARK    4  A    between atoms: C_7  and  C_8
REMARK    5  A    between atoms: C_8  and  C_9
REMARK                            x       y       z     vdW  Elec       q    Type
REMARK                         _______ _______ _______ _____ _____    ______ ____
ROOT
ATOM      1  C   UNL     1       3.253   5.484  19.339  0.00  0.00    +0.000 C 
ATOM      2  O   UNL     1       2.913   4.777  18.391  0.00  0.00    +0.000 OA
ATOM      3  N   UNL     1       4.561   5.821  19.635  0.00  0.00    +0.000 N 
ATOM      4  C   UNL     1       5.581   5.345  18.854  0.00  0.00    +0.000 A 
ATOM      5  N   UNL     1       6.738   4.881  19.307  0.00  0.00    +0.000 NA
ATOM      6  N   UNL     1       7.502   4.455  18.224  0.00  0.00    +0.000 NA
ATOM      7  C   UNL     1       6.803   4.740  17.161  0.00  0.00    +0.000 A 
ATOM      8  N   UNL     1       5.625   5.322  17.496  0.00  0.00    +0.000 N 
ATOM      9  C   UNL     1       4.963   6.064  16.455  0.00  0.00    +0.000 C 
ATOM     10  C   UNL     1       5.471   5.501  15.124  0.00  0.00    +0.000 C 
ATOM     11  S   UNL     1       7.114   4.749  15.474  0.00  0.00    +0.000 S 
ATOM     12  H   UNL     1       4.800   5.991  20.604  0.00  0.00    +0.000 HD
ENDROOT
BRANCH   1  13
ATOM     13  C   UNL     1       2.219   5.987  20.336  0.00  0.00    +0.000 C 
BRANCH  13  17
ATOM     14  C   UNL     1       0.903  10.045  19.653  0.00  0.00    +0.000 A 
ATOM     15  C   UNL     1       0.671   9.427  20.881  0.00  0.00    +0.000 A 
ATOM     16  C   UNL     1       1.107   8.121  21.110  0.00  0.00    +0.000 A 
ATOM     17  C   UNL     1       1.758   7.404  20.097  0.00  0.00    +0.000 A 
ATOM     18  C   UNL     1       1.988   8.029  18.866  0.00  0.00    +0.000 A 
ATOM     19  C   UNL     1       1.551   9.338  18.640  0.00  0.00    +0.000 A 
BRANCH  14  20
ATOM     20  O   UNL     1       0.452  11.331  19.559  0.00  0.00    +0.000 OA
BRANCH  20  22
ATOM     21  C   UNL     1      -1.686  11.206  18.520  0.00  0.00    +0.000 C 
ATOM     22  C   UNL     1      -0.940  11.530  19.801  0.00  0.00    +0.000 C 
ENDBRANCH  20  22
ENDBRANCH  14  20
ENDBRANCH  13  17
ENDBRANCH   1  13
TORSDOF 4
ENDMDL
MODEL 2
REMARK VINA RESULT:      -6.9      0.959      1.534
REMARK  Name = 
REMARK  5 active torsions:
REMARK  status: ('A' for Active; 'I' for Inactive)
REMARK    1  A    between atoms: C_1  and  C_2
REMARK    2  A    between atoms: C_2  and  O_3
REMARK    3  A    between atoms: O_3  and  C_4
REMARK    4  A    between atoms: C_7  and  C_8
REMARK    5  A    between atoms: C_8  and  C_9
REMARK                            x       y       z     vdW  Elec       q    Type
REMARK                         _______ _______ _______ _____ _____    ______ ____
ROOT
ATOM      1  C   UNL     1       3.251   5.520  19.283  0.00  0.00    +0.000 C 
ATOM      2  O   UNL     1       2.923   4.774  18.361  0.00  0.00    +0.000 OA
ATOM      3  N   UNL     1       4.555   5.871  19.581  0.00  0.00    +0.000 N 
ATOM      4  C   UNL     1       5.585   5.364  18.832  0.00  0.00    +0.000 A 
ATOM      5  N   UNL     1       6.736   4.921  19.318  0.00  0.00    +0.000 NA
ATOM      6  N   UNL     1       7.514   4.451  18.263  0.00  0.00    +0.000 NA
ATOM      7  C   UNL     1       6.827   4.691  17.180  0.00  0.00    +0.000 A 
ATOM      8  N   UNL     1       5.645   5.285  17.477  0.00  0.00    +0.000 N 
ATOM      9  C   UNL     1       4.995   5.982  16.398  0.00  0.00    +0.000 C 
ATOM     10  C   UNL     1       5.519   5.366  15.098  0.00  0.00    +0.000 C 
ATOM     11  S   UNL     1       7.159   4.630  15.498  0.00  0.00    +0.000 S 
ATOM     12  H   UNL     1       4.782   6.081  20.545  0.00  0.00    +0.000 HD
ENDROOT
BRANCH   1  13
ATOM     13  C   UNL     1       2.205   6.063  20.246  0.00  0.00    +0.000 C 
BRANCH  13  17
ATOM     14  C   UNL     1       1.012  10.144  19.484  0.00  0.00    +0.000 A 
ATOM     15  C   UNL     1       1.600   9.382  18.475  0.00  0.00    +0.000 A 
ATOM     16  C   UNL     1       1.974   8.059  18.713  0.00  0.00    +0.000 A 
ATOM     17  C   UNL     1       1.790   7.488  19.980  0.00  0.00    +0.000 A 
ATOM     18  C   UNL     1       1.199   8.258  20.990  0.00  0.00    +0.000 A 
ATOM     19  C   UNL     1       0.825   9.584  20.747  0.00  0.00    +0.000 A 
BRANCH  14  20
ATOM     20  O   UNL     1       0.667  11.416  19.121  0.00  0.00    +0.000 OA
BRANCH  20  22
ATOM     21  C   UNL     1       2.185  13.025  18.240  0.00  0.00    +0.000 C 
ATOM     22  C   UNL     1       1.575  12.448  19.505  0.00  0.00    +0.000 C 
ENDBRANCH  20  22
ENDBRANCH  14  20
ENDBRANCH  13  17
ENDBRANCH   1  13
TORSDOF 4
ENDMDL
MODEL 3
REMARK VINA RESULT:      -6.9      4.540      7.811
REMARK  Name = 
REMARK  5 active torsions:
REMARK  status: ('A' for Active; 'I' for Inactive)
REMARK    1  A    between atoms: C_1  and  C_2
REMARK    2  A    between atoms: C_2  and  O_3
REMARK    3  A    between atoms: O_3  and  C_4
REMARK    4  A    between atoms: C_7  and  C_8
REMARK    5  A    between atoms: C_8  and  C_9
REMARK                            x       y       z     vdW  Elec       q    Type
REMARK                         _______ _______ _______ _____ _____    ______ ____
ROOT
ATOM      1  C   UNL     1       5.719   4.753  18.564  0.00  0.00    +0.000 C 
ATOM      2  O   UNL     1       4.998   5.624  19.049  0.00  0.00    +0.000 OA
ATOM      3  N   UNL     1       5.645   3.409  18.883  0.00  0.00    +0.000 N 
ATOM      4  C   UNL     1       4.730   2.977  19.806  0.00  0.00    +0.000 A 
ATOM      5  N   UNL     1       4.966   2.078  20.753  0.00  0.00    +0.000 NA
ATOM      6  N   UNL     1       3.814   1.924  21.519  0.00  0.00    +0.000 NA
ATOM      7  C   UNL     1       2.913   2.685  20.962  0.00  0.00    +0.000 A 
ATOM      8  N   UNL     1       3.420   3.328  19.881  0.00  0.00    +0.000 N 
ATOM      9  C   UNL     1       2.461   3.846  18.941  0.00  0.00    +0.000 C 
ATOM     10  C   UNL     1       1.151   4.040  19.711  0.00  0.00    +0.000 C 
ATOM     11  S   UNL     1       1.219   2.888  21.145  0.00  0.00    +0.000 S 
ATOM     12  H   UNL     1       6.494   2.859  18.822  0.00  0.00    +0.000 HD
ENDROOT
BRANCH   1  13
ATOM     13  C   UNL     1       6.841   5.124  17.605  0.00  0.00    +0.000 C 
BRANCH  13  17
ATOM     14  C   UNL     1       6.116   4.020  13.492  0.00  0.00    +0.000 A 
ATOM     15  C   UNL     1       7.292   4.679  13.848  0.00  0.00    +0.000 A 
ATOM     16  C   UNL     1       7.536   5.025  15.177  0.00  0.00    +0.000 A 
ATOM     17  C   UNL     1       6.587   4.740  16.168  0.00  0.00    +0.000 A 
ATOM     18  C   UNL     1       5.408   4.078  15.806  0.00  0.00    +0.000 A 
ATOM     19  C   UNL     1       5.167   3.732  14.473  0.00  0.00    +0.000 A 
BRANCH  14  20
ATOM     20  O   UNL     1       6.004   3.712  12.165  0.00  0.00    +0.000 OA
BRANCH  20  22
ATOM     21  C   UNL     1       6.987   1.827  11.094  0.00  0.00    +0.000 C 
ATOM     22  C   UNL     1       5.777   2.338  11.854  0.00  0.00    +0.000 C 
ENDBRANCH  20  22
ENDBRANCH  14  20
ENDBRANCH  13  17
ENDBRANCH   1  13
TORSDOF 4
ENDMDL
MODEL 4
REMARK VINA RESULT:      -6.9      4.651      7.808
REMARK  Name = 
REMARK  5 active torsions:
REMARK  status: ('A' for Active; 'I' for Inactive)
REMARK    1  A    between atoms: C_1  and  C_2
REMARK    2  A    between atoms: C_2  and  O_3
REMARK    3  A    between atoms: O_3  and  C_4
REMARK    4  A    between atoms: C_7  and  C_8
REMARK    5  A    between atoms: C_8  and  C_9
REMARK                            x       y       z     vdW  Elec       q    Type
REMARK                         _______ _______ _______ _____ _____    ______ ____
ROOT
ATOM      1  C   UNL     1       5.555   5.080  18.014  0.00  0.00    +0.000 C 
ATOM      2  O   UNL     1       4.663   5.853  18.361  0.00  0.00    +0.000 OA
ATOM      3  N   UNL     1       5.674   3.774  18.452  0.00  0.00    +0.000 N 
ATOM      4  C   UNL     1       4.764   3.270  19.345  0.00  0.00    +0.000 A 
ATOM      5  N   UNL     1       5.061   2.504  20.387  0.00  0.00    +0.000 NA
ATOM      6  N   UNL     1       3.887   2.221  21.080  0.00  0.00    +0.000 NA
ATOM      7  C   UNL     1       2.926   2.770  20.391  0.00  0.00    +0.000 A 
ATOM      8  N   UNL     1       3.413   3.400  19.293  0.00  0.00    +0.000 N 
ATOM      9  C   UNL     1       2.467   3.669  18.241  0.00  0.00    +0.000 C 
ATOM     10  C   UNL     1       1.082   3.701  18.894  0.00  0.00    +0.000 C 
ATOM     11  S   UNL     1       1.212   2.698  20.433  0.00  0.00    +0.000 S 
ATOM     12  H   UNL     1       6.602   3.372  18.505  0.00  0.00    +0.000 HD
ENDROOT
BRANCH   1  13
ATOM     13  C   UNL     1       6.680   5.557  17.106  0.00  0.00    +0.000 C 
BRANCH  13  17
ATOM     14  C   UNL     1       6.469   4.063  13.059  0.00  0.00    +0.000 A 
ATOM     15  C   UNL     1       5.472   3.745  13.979  0.00  0.00    +0.000 A 
ATOM     16  C   UNL     1       5.529   4.236  15.284  0.00  0.00    +0.000 A 
ATOM     17  C   UNL     1       6.607   5.033  15.693  0.00  0.00    +0.000 A 
ATOM     18  C   UNL     1       7.606   5.350  14.765  0.00  0.00    +0.000 A 
ATOM     19  C   UNL     1       7.545   4.856  13.458  0.00  0.00    +0.000 A 
BRANCH  14  20
ATOM     20  O   UNL     1       6.288   3.543  11.808  0.00  0.00    +0.000 OA
BRANCH  20  22
ATOM     21  C   UNL     1       6.383   1.278  11.079  0.00  0.00    +0.000 C 
ATOM     22  C   UNL     1       5.520   2.343  11.730  0.00  0.00    +0.000 C 
ENDBRANCH  20  22
ENDBRANCH  14  20
ENDBRANCH  13  17
ENDBRANCH   1  13
TORSDOF 4
ENDMDL
MODEL 5
REMARK VINA RESULT:      -6.9      0.329      1.121
REMARK  Name = 
REMARK  5 active torsions:
REMARK  status: ('A' for Active; 'I' for Inactive)
REMARK    1  A    between atoms: C_1  and  C_2
REMARK    2  A    between atoms: C_2  and  O_3
REMARK    3  A    between atoms: O_3  and  C_4
REMARK    4  A    between atoms: C_7  and  C_8
REMARK    5  A    between atoms: C_8  and  C_9
REMARK                            x       y       z     vdW  Elec       q    Type
REMARK                         _______ _______ _______ _____ _____    ______ ____
ROOT
ATOM      1  C   UNL     1       3.257   5.429  19.337  0.00  0.00    +0.000 C 
ATOM      2  O   UNL     1       2.931   4.705  18.397  0.00  0.00    +0.000 OA
ATOM      3  N   UNL     1       4.558   5.796  19.628  0.00  0.00    +0.000 N 
ATOM      4  C   UNL     1       5.587   5.333  18.850  0.00  0.00    +0.000 A 
ATOM      5  N   UNL     1       6.754   4.898  19.306  0.00  0.00    +0.000 NA
ATOM      6  N   UNL     1       7.525   4.476  18.227  0.00  0.00    +0.000 NA
ATOM      7  C   UNL     1       6.819   4.737  17.162  0.00  0.00    +0.000 A 
ATOM      8  N   UNL     1       5.630   5.297  17.493  0.00  0.00    +0.000 N 
ATOM      9  C   UNL     1       4.951   6.015  16.445  0.00  0.00    +0.000 C 
ATOM     10  C   UNL     1       5.469   5.449  15.119  0.00  0.00    +0.000 C 
ATOM     11  S   UNL     1       7.128   4.734  15.474  0.00  0.00    +0.000 S 
ATOM     12  H   UNL     1       4.795   5.981  20.595  0.00  0.00    +0.000 HD
ENDROOT
BRANCH   1  13
ATOM     13  C   UNL     1       2.214   5.921  20.331  0.00  0.00    +0.000 C 
BRANCH  13  17
ATOM     14  C   UNL     1       0.920   9.994  19.702  0.00  0.00    +0.000 A 
ATOM     15  C   UNL     1       1.519   9.277  18.666  0.00  0.00    +0.000 A 
ATOM     16  C   UNL     1       1.926   7.957  18.862  0.00  0.00    +0.000 A 
ATOM     17  C   UNL     1       1.764   7.344  20.111  0.00  0.00    +0.000 A 
ATOM     18  C   UNL     1       1.163   8.068  21.148  0.00  0.00    +0.000 A 
ATOM     19  C   UNL     1       0.756   9.391  20.948  0.00  0.00    +0.000 A 
BRANCH  14  20
ATOM     20  O   UNL     1       0.543  11.268  19.381  0.00  0.00    +0.000 OA
BRANCH  20  22
ATOM     21  C   UNL     1      -1.726  11.986  19.408  0.00  0.00    +0.000 C 
ATOM     22  C   UNL     1      -0.617  11.393  18.559  0.00  0.00    +0.000 C 
ENDBRANCH  20  22
ENDBRANCH  14  20
ENDBRANCH  13  17
ENDBRANCH   1  13
TORSDOF 4
ENDMDL
MODEL 6
REMARK VINA RESULT:      -6.8      0.900      1.102
REMARK  Name = 
REMARK  5 active torsions:
REMARK  status: ('A' for Active; 'I' for Inactive)
REMARK    1  A    between atoms: C_1  and  C_2
REMARK    2  A    between atoms: C_2  and  O_3
REMARK    3  A    between atoms: O_3  and  C_4
REMARK    4  A    between atoms: C_7  and  C_8
REMARK    5  A    between atoms: C_8  and  C_9
REMARK                            x       y       z     vdW  Elec       q    Type
REMARK                         _______ _______ _______ _____ _____    ______ ____
ROOT
ATOM      1  C   UNL     1       3.232   5.438  19.322  0.00  0.00    +0.000 C 
ATOM      2  O   UNL     1       2.910   4.714  18.382  0.00  0.00    +0.000 OA
ATOM      3  N   UNL     1       4.532   5.801  19.622  0.00  0.00    +0.000 N 
ATOM      4  C   UNL     1       5.565   5.332  18.852  0.00  0.00    +0.000 A 
ATOM      5  N   UNL     1       6.727   4.894  19.318  0.00  0.00    +0.000 NA
ATOM      6  N   UNL     1       7.504   4.467  18.245  0.00  0.00    +0.000 NA
ATOM      7  C   UNL     1       6.807   4.728  17.174  0.00  0.00    +0.000 A 
ATOM      8  N   UNL     1       5.617   5.294  17.495  0.00  0.00    +0.000 N 
ATOM      9  C   UNL     1       4.949   6.012  16.441  0.00  0.00    +0.000 C 
ATOM     10  C   UNL     1       5.474   5.442  15.120  0.00  0.00    +0.000 C 
ATOM     11  S   UNL     1       7.128   4.721  15.489  0.00  0.00    +0.000 S 
ATOM     12  H   UNL     1       4.763   5.987  20.590  0.00  0.00    +0.000 HD
ENDROOT
BRANCH   1  13
ATOM     13  C   UNL     1       2.184   5.936  20.308  0.00  0.00    +0.000 C 
BRANCH  13  17
ATOM     14  C   UNL     1       0.984  10.043  19.717  0.00  0.00    +0.000 A 
ATOM     15  C   UNL     1       0.750   9.410  20.937  0.00  0.00    +0.000 A 
ATOM     16  C   UNL     1       1.148   8.088  21.136  0.00  0.00    +0.000 A 
ATOM     17  C   UNL     1       1.763   7.370  20.101  0.00  0.00    +0.000 A 
ATOM     18  C   UNL     1       1.995   8.010  18.878  0.00  0.00    +0.000 A 
ATOM     19  C   UNL     1       1.595   9.336  18.682  0.00  0.00    +0.000 A 
BRANCH  14  20
ATOM     20  O   UNL     1       0.570  11.344  19.653  0.00  0.00    +0.000 OA
BRANCH  20  22
ATOM     21  C   UNL     1       2.033  13.221  19.558  0.00  0.00    +0.000 C 
ATOM     22  C   UNL     1       1.279  12.186  18.743  0.00  0.00    +0.000 C 
ENDBRANCH  20  22
ENDBRANCH  14  20
ENDBRANCH  13  17
ENDBRANCH   1  13
TORSDOF 4
ENDMDL
MODEL 7
REMARK VINA RESULT:      -6.7      3.335      7.427
REMARK  Name = 
REMARK  5 active torsions:
REMARK  status: ('A' for Active; 'I' for Inactive)
REMARK    1  A    between atoms: C_1  and  C_2
REMARK    2  A    between atoms: C_2  and  O_3
REMARK    3  A    between atoms: O_3  and  C_4
REMARK    4  A    between atoms: C_7  and  C_8
REMARK    5  A    between atoms: C_8  and  C_9
REMARK                            x       y       z     vdW  Elec       q    Type
REMARK                         _______ _______ _______ _____ _____    ______ ____
ROOT
ATOM      1  C   UNL     1       2.884   5.666  19.294  0.00  0.00    +0.000 C 
ATOM      2  O   UNL     1       1.737   5.454  19.687  0.00  0.00    +0.000 OA
ATOM      3  N   UNL     1       3.320   6.864  18.761  0.00  0.00    +0.000 N 
ATOM      4  C   UNL     1       2.445   7.911  18.630  0.00  0.00    +0.000 A 
ATOM      5  N   UNL     1       2.368   8.715  17.579  0.00  0.00    +0.000 NA
ATOM      6  N   UNL     1       1.341   9.631  17.792  0.00  0.00    +0.000 NA
ATOM      7  C   UNL     1       0.887   9.383  18.990  0.00  0.00    +0.000 A 
ATOM      8  N   UNL     1       1.560   8.353  19.561  0.00  0.00    +0.000 N 
ATOM      9  C   UNL     1       1.471   8.252  20.994  0.00  0.00    +0.000 C 
ATOM     10  C   UNL     1       0.183   8.972  21.406  0.00  0.00    +0.000 C 
ATOM     11  S   UNL     1      -0.188  10.178  20.066  0.00  0.00    +0.000 S 
ATOM     12  H   UNL     1       4.068   6.837  18.079  0.00  0.00    +0.000 HD
ENDROOT
BRANCH   1  13
ATOM     13  C   UNL     1       3.917   4.548  19.293  0.00  0.00    +0.000 C 
BRANCH  13  17
ATOM     14  C   UNL     1       6.794   4.783  16.079  0.00  0.00    +0.000 A 
ATOM     15  C   UNL     1       5.451   4.531  15.804  0.00  0.00    +0.000 A 
ATOM     16  C   UNL     1       4.516   4.469  16.838  0.00  0.00    +0.000 A 
ATOM     17  C   UNL     1       4.922   4.628  18.171  0.00  0.00    +0.000 A 
ATOM     18  C   UNL     1       6.273   4.880  18.441  0.00  0.00    +0.000 A 
ATOM     19  C   UNL     1       7.206   4.943  17.402  0.00  0.00    +0.000 A 
BRANCH  14  20
ATOM     20  O   UNL     1       7.607   4.845  14.982  0.00  0.00    +0.000 OA
BRANCH  20  22
ATOM     21  C   UNL     1       7.825   5.252  12.646  0.00  0.00    +0.000 C 
ATOM     22  C   UNL     1       6.986   4.588  13.723  0.00  0.00    +0.000 C 
ENDBRANCH  20  22
ENDBRANCH  14  20
ENDBRANCH  13  17
ENDBRANCH   1  13
TORSDOF 4
ENDMDL
MODEL 8
REMARK VINA RESULT:      -6.6      3.860      7.474
REMARK  Name = 
REMARK  5 active torsions:
REMARK  status: ('A' for Active; 'I' for Inactive)
REMARK    1  A    between atoms: C_1  and  C_2
REMARK    2  A    between atoms: C_2  and  O_3
REMARK    3  A    between atoms: O_3  and  C_4
REMARK    4  A    between atoms: C_7  and  C_8
REMARK    5  A    between atoms: C_8  and  C_9
REMARK                            x       y       z     vdW  Elec       q    Type
REMARK                         _______ _______ _______ _____ _____    ______ ____
ROOT
ATOM      1  C   UNL     1       2.150   7.008  19.929  0.00  0.00    +0.000 C 
ATOM      2  O   UNL     1       2.573   7.738  19.033  0.00  0.00    +0.000 OA
ATOM      3  N   UNL     1       1.419   7.447  21.018  0.00  0.00    +0.000 N 
ATOM      4  C   UNL     1       1.136   8.782  21.155  0.00  0.00    +0.000 A 
ATOM      5  N   UNL     1       1.198   9.462  22.291  0.00  0.00    +0.000 NA
ATOM      6  N   UNL     1       0.879  10.792  22.032  0.00  0.00    +0.000 NA
ATOM      7  C   UNL     1       0.573  10.844  20.765  0.00  0.00    +0.000 A 
ATOM      8  N   UNL     1       0.684   9.622  20.188  0.00  0.00    +0.000 N 
ATOM      9  C   UNL     1      -0.016   9.440  18.943  0.00  0.00    +0.000 C 
ATOM     10  C   UNL     1      -0.196  10.834  18.334  0.00  0.00    +0.000 C 
ATOM     11  S   UNL     1      -0.127  12.025  19.736  0.00  0.00    +0.000 S 
ATOM     12  H   UNL     1       1.499   6.930  21.884  0.00  0.00    +0.000 HD
ENDROOT
BRANCH   1  13
ATOM     13  C   UNL     1       2.488   5.524  19.940  0.00  0.00    +0.000 C 
BRANCH  13  17
ATOM     14  C   UNL     1       5.517   4.364  17.087  0.00  0.00    +0.000 A 
ATOM     15  C   UNL     1       4.165   4.197  16.786  0.00  0.00    +0.000 A 
ATOM     16  C   UNL     1       3.184   4.583  17.700  0.00  0.00    +0.000 A 
ATOM     17  C   UNL     1       3.546   5.117  18.944  0.00  0.00    +0.000 A 
ATOM     18  C   UNL     1       4.904   5.282  19.241  0.00  0.00    +0.000 A 
ATOM     19  C   UNL     1       5.885   4.895  18.323  0.00  0.00    +0.000 A 
BRANCH  14  20
ATOM     20  O   UNL     1       6.381   3.971  16.103  0.00  0.00    +0.000 OA
BRANCH  20  22
ATOM     21  C   UNL     1       6.254   3.927  13.726  0.00  0.00    +0.000 C 
ATOM     22  C   UNL     1       6.442   4.807  14.948  0.00  0.00    +0.000 C 
ENDBRANCH  20  22
ENDBRANCH  14  20
ENDBRANCH  13  17
ENDBRANCH   1  13
TORSDOF 4
ENDMDL
MODEL 9
REMARK VINA RESULT:      -6.6      3.380      7.415
REMARK  Name = 
REMARK  5 active torsions:
REMARK  status: ('A' for Active; 'I' for Inactive)
REMARK    1  A    between atoms: C_1  and  C_2
REMARK    2  A    between atoms: C_2  and  O_3
REMARK    3  A    between atoms: O_3  and  C_4
REMARK    4  A    between atoms: C_7  and  C_8
REMARK    5  A    between atoms: C_8  and  C_9
REMARK                            x       y       z     vdW  Elec       q    Type
REMARK                         _______ _______ _______ _____ _____    ______ ____
ROOT
ATOM      1  C   UNL     1       2.874   5.809  19.428  0.00  0.00    +0.000 C 
ATOM      2  O   UNL     1       1.750   5.604  19.887  0.00  0.00    +0.000 OA
ATOM      3  N   UNL     1       3.265   6.982  18.809  0.00  0.00    +0.000 N 
ATOM      4  C   UNL     1       2.368   8.009  18.665  0.00  0.00    +0.000 A 
ATOM      5  N   UNL     1       2.228   8.753  17.576  0.00  0.00    +0.000 NA
ATOM      6  N   UNL     1       1.198   9.665  17.790  0.00  0.00    +0.000 NA
ATOM      7  C   UNL     1       0.806   9.477  19.019  0.00  0.00    +0.000 A 
ATOM      8  N   UNL     1       1.521   8.489  19.612  0.00  0.00    +0.000 N 
ATOM      9  C   UNL     1       1.502   8.466  21.051  0.00  0.00    +0.000 C 
ATOM     10  C   UNL     1       0.224   9.190  21.485  0.00  0.00    +0.000 C 
ATOM     11  S   UNL     1      -0.229  10.316  20.101  0.00  0.00    +0.000 S 
ATOM     12  H   UNL     1       3.980   6.927  18.095  0.00  0.00    +0.000 HD
ENDROOT
BRANCH   1  13
ATOM     13  C   UNL     1       3.924   4.707  19.437  0.00  0.00    +0.000 C 
BRANCH  13  17
ATOM     14  C   UNL     1       6.613   4.765  16.057  0.00  0.00    +0.000 A 
ATOM     15  C   UNL     1       7.076   5.091  17.331  0.00  0.00    +0.000 A 
ATOM     16  C   UNL     1       6.214   5.061  18.427  0.00  0.00    +0.000 A 
ATOM     17  C   UNL     1       4.863   4.729  18.256  0.00  0.00    +0.000 A 
ATOM     18  C   UNL     1       4.402   4.403  16.975  0.00  0.00    +0.000 A 
ATOM     19  C   UNL     1       5.270   4.434  15.878  0.00  0.00    +0.000 A 
BRANCH  14  20
ATOM     20  O   UNL     1       7.557   4.808  15.070  0.00  0.00    +0.000 OA
BRANCH  20  22
ATOM     21  C   UNL     1       8.114   5.431  12.840  0.00  0.00    +0.000 C 
ATOM     22  C   UNL     1       7.068   4.783  13.729  0.00  0.00    +0.000 C 
ENDBRANCH  20  22
ENDBRANCH  14  20
ENDBRANCH  13  17
ENDBRANCH   1  13
TORSDOF 4
ENDMDL
