MODEL 1
REMARK VINA RESULT:      -8.1      0.000      0.000
REMARK  Name = 
REMARK  5 active torsions:
REMARK  status: ('A' for Active; 'I' for Inactive)
REMARK    1  A    between atoms: C_1  and  C_2
REMARK    2  A    between atoms: C_2  and  C_3
REMARK    3  A    between atoms: C_16  and  C_17
REMARK    4  A    between atoms: C_17  and  C_18
REMARK    5  A    between atoms: C_18  and  N_19
REMARK                            x       y       z     vdW  Elec       q    Type
REMARK                         _______ _______ _______ _____ _____    ______ ____
ROOT
ATOM      1  C   UNL     1       1.191  10.520  19.357  0.00  0.00    +0.000 A 
ATOM      2  N   UNL     1       0.828  10.275  20.639  0.00  0.00    +0.000 NA
ATOM      3  N   UNL     1       1.016   9.054  21.158  0.00  0.00    +0.000 N 
ATOM      4  O   UNL     1       0.700   8.930  22.368  0.00  0.00    +0.000 OA
ATOM      5  C   UNL     1       1.513   7.989  20.399  0.00  0.00    +0.000 A 
ATOM      6  C   UNL     1       1.653   6.682  20.929  0.00  0.00    +0.000 A 
ATOM      7  C   UNL     1       2.115   5.683  20.082  0.00  0.00    +0.000 A 
ATOM      8  C   UNL     1       2.412   5.942  18.749  0.00  0.00    +0.000 A 
ATOM      9  C   UNL     1       2.311   7.214  18.223  0.00  0.00    +0.000 A 
ATOM     10  C   UNL     1       1.866   8.257  19.053  0.00  0.00    +0.000 A 
ATOM     11  N   UNL     1       1.752   9.552  18.548  0.00  0.00    +0.000 N 
ATOM     12  O   UNL     1       2.144   9.820  17.365  0.00  0.00    +0.000 OA
ATOM     13  C   UNL     1       2.827   4.699  18.026  0.00  0.00    +0.000 C 
ATOM     14  C   UNL     1       3.271   3.813  19.211  0.00  0.00    +0.000 C 
ATOM     15  C   UNL     1       2.349   4.234  20.390  0.00  0.00    +0.000 C 
ENDROOT
BRANCH   1  17
ATOM     16  C   UNL     1       1.837  12.943  19.363  0.00  0.00    +0.000 C 
ATOM     17  C   UNL     1       0.928  11.876  18.768  0.00  0.00    +0.000 C 
ENDBRANCH   1  17
BRANCH  14  18
ATOM     18  C   UNL     1       4.763   4.044  19.529  0.00  0.00    +0.000 C 
BRANCH  18  19
ATOM     19  C   UNL     1       5.414   5.001  18.525  0.00  0.00    +0.000 C 
BRANCH  19  20
ATOM     20  N   UNL     1       6.854   4.764  18.351  0.00  0.00    +0.000 NA
ATOM     21  C   UNL     1       7.615   6.003  18.657  0.00  0.00    +0.000 C 
ATOM     22  C   UNL     1       7.416   7.121  17.615  0.00  0.00    +0.000 C 
ATOM     23  O   UNL     1       7.744   6.673  16.294  0.00  0.00    +0.000 OA
ATOM     24  C   UNL     1       6.989   5.507  15.939  0.00  0.00    +0.000 C 
ATOM     25  C   UNL     1       7.199   4.376  16.961  0.00  0.00    +0.000 C 
ENDBRANCH  19  20
ENDBRANCH  18  19
ENDBRANCH  14  18
TORSDOF 4
ENDMDL
MODEL 2
REMARK VINA RESULT:      -8.0      0.829      1.021
REMARK  Name = 
REMARK  5 active torsions:
REMARK  status: ('A' for Active; 'I' for Inactive)
REMARK    1  A    between atoms: C_1  and  C_2
REMARK    2  A    between atoms: C_2  and  C_3
REMARK    3  A    between atoms: C_16  and  C_17
REMARK    4  A    between atoms: C_17  and  C_18
REMARK    5  A    between atoms: C_18  and  N_19
REMARK                            x       y       z     vdW  Elec       q    Type
REMARK                         _______ _______ _______ _____ _____    ______ ____
ROOT
ATOM      1  C   UNL     1       1.202  10.745  19.412  0.00  0.00    +0.000 A 
ATOM      2  N   UNL     1       0.909  10.520  20.715  0.00  0.00    +0.000 NA
ATOM      3  N   UNL     1       1.076   9.295  21.230  0.00  0.00    +0.000 N 
ATOM      4  O   UNL     1       0.830   9.189  22.457  0.00  0.00    +0.000 OA
ATOM      5  C   UNL     1       1.479   8.207  20.449  0.00  0.00    +0.000 A 
ATOM      6  C   UNL     1       1.595   6.897  20.977  0.00  0.00    +0.000 A 
ATOM      7  C   UNL     1       1.961   5.875  20.110  0.00  0.00    +0.000 A 
ATOM      8  C   UNL     1       2.185   6.116  18.760  0.00  0.00    +0.000 A 
ATOM      9  C   UNL     1       2.107   7.389  18.233  0.00  0.00    +0.000 A 
ATOM     10  C   UNL     1       1.760   8.454  19.082  0.00  0.00    +0.000 A 
ATOM     11  N   UNL     1       1.670   9.750  18.576  0.00  0.00    +0.000 N 
ATOM     12  O   UNL     1       2.000   9.997  17.369  0.00  0.00    +0.000 OA
ATOM     13  C   UNL     1       2.501   4.853  18.021  0.00  0.00    +0.000 C 
ATOM     14  C   UNL     1       2.979   3.953  19.183  0.00  0.00    +0.000 C 
ATOM     15  C   UNL     1       2.151   4.419  20.412  0.00  0.00    +0.000 C 
ENDROOT
BRANCH   1  17
ATOM     16  C   UNL     1      -0.519  12.467  18.811  0.00  0.00    +0.000 C 
ATOM     17  C   UNL     1       0.961  12.108  18.831  0.00  0.00    +0.000 C 
ENDBRANCH   1  17
BRANCH  14  18
ATOM     18  C   UNL     1       4.497   4.121  19.406  0.00  0.00    +0.000 C 
BRANCH  18  19
ATOM     19  C   UNL     1       5.275   4.041  18.088  0.00  0.00    +0.000 C 
BRANCH  19  20
ATOM     20  N   UNL     1       6.342   5.045  17.987  0.00  0.00    +0.000 NA
ATOM     21  C   UNL     1       5.786   6.332  17.494  0.00  0.00    +0.000 C 
ATOM     22  C   UNL     1       5.342   6.286  16.019  0.00  0.00    +0.000 C 
ATOM     23  O   UNL     1       6.410   5.867  15.160  0.00  0.00    +0.000 OA
ATOM     24  C   UNL     1       6.941   4.601  15.572  0.00  0.00    +0.000 C 
ATOM     25  C   UNL     1       7.409   4.643  17.037  0.00  0.00    +0.000 C 
ENDBRANCH  19  20
ENDBRANCH  18  19
ENDBRANCH  14  18
TORSDOF 4
ENDMDL
MODEL 3
REMARK VINA RESULT:      -7.8      3.014      4.510
REMARK  Name = 
REMARK  5 active torsions:
REMARK  status: ('A' for Active; 'I' for Inactive)
REMARK    1  A    between atoms: C_1  and  C_2
REMARK    2  A    between atoms: C_2  and  C_3
REMARK    3  A    between atoms: C_16  and  C_17
REMARK    4  A    between atoms: C_17  and  C_18
REMARK    5  A    between atoms: C_18  and  N_19
REMARK                            x       y       z     vdW  Elec       q    Type
REMARK                         _______ _______ _______ _____ _____    ______ ____
ROOT
ATOM      1  C   UNL     1      -0.724  10.921  21.714  0.00  0.00    +0.000 A 
ATOM      2  N   UNL     1      -0.806  11.581  20.535  0.00  0.00    +0.000 NA
ATOM      3  N   UNL     1      -0.212  11.072  19.447  0.00  0.00    +0.000 N 
ATOM      4  O   UNL     1      -0.383  11.724  18.387  0.00  0.00    +0.000 OA
ATOM      5  C   UNL     1       0.560   9.907  19.496  0.00  0.00    +0.000 A 
ATOM      6  C   UNL     1       1.241   9.401  18.361  0.00  0.00    +0.000 A 
ATOM      7  C   UNL     1       2.017   8.261  18.521  0.00  0.00    +0.000 A 
ATOM      8  C   UNL     1       2.146   7.641  19.758  0.00  0.00    +0.000 A 
ATOM      9  C   UNL     1       1.467   8.100  20.869  0.00  0.00    +0.000 A 
ATOM     10  C   UNL     1       0.655   9.240  20.743  0.00  0.00    +0.000 A 
ATOM     11  N   UNL     1      -0.041   9.727  21.848  0.00  0.00    +0.000 N 
ATOM     12  O   UNL     1      -0.028   9.090  22.952  0.00  0.00    +0.000 OA
ATOM     13  C   UNL     1       3.082   6.475  19.694  0.00  0.00    +0.000 C 
ATOM     14  C   UNL     1       3.040   6.156  18.183  0.00  0.00    +0.000 C 
ATOM     15  C   UNL     1       2.829   7.533  17.492  0.00  0.00    +0.000 C 
ENDROOT
BRANCH   1  17
ATOM     16  C   UNL     1      -2.606  12.317  22.606  0.00  0.00    +0.000 C 
ATOM     17  C   UNL     1      -1.347  11.526  22.938  0.00  0.00    +0.000 C 
ENDBRANCH   1  17
BRANCH  14  18
ATOM     18  C   UNL     1       1.897   5.168  17.870  0.00  0.00    +0.000 C 
BRANCH  18  19
ATOM     19  C   UNL     1       1.436   4.420  19.127  0.00  0.00    +0.000 C 
BRANCH  19  20
ATOM     20  N   UNL     1       1.600   2.964  19.024  0.00  0.00    +0.000 NA
ATOM     21  C   UNL     1       1.424   2.336  20.359  0.00  0.00    +0.000 C 
ATOM     22  C   UNL     1       2.568   2.649  21.342  0.00  0.00    +0.000 C 
ATOM     23  O   UNL     1       3.842   2.276  20.803  0.00  0.00    +0.000 OA
ATOM     24  C   UNL     1       4.074   2.904  19.535  0.00  0.00    +0.000 C 
ATOM     25  C   UNL     1       2.948   2.579  18.538  0.00  0.00    +0.000 C 
ENDBRANCH  19  20
ENDBRANCH  18  19
ENDBRANCH  14  18
TORSDOF 4
ENDMDL
MODEL 4
REMARK VINA RESULT:      -7.6      1.442      1.708
REMARK  Name = 
REMARK  5 active torsions:
REMARK  status: ('A' for Active; 'I' for Inactive)
REMARK    1  A    between atoms: C_1  and  C_2
REMARK    2  A    between atoms: C_2  and  C_3
REMARK    3  A    between atoms: C_16  and  C_17
REMARK    4  A    between atoms: C_17  and  C_18
REMARK    5  A    between atoms: C_18  and  N_19
REMARK                            x       y       z     vdW  Elec       q    Type
REMARK                         _______ _______ _______ _____ _____    ______ ____
ROOT
ATOM      1  C   UNL     1       0.566  11.700  20.541  0.00  0.00    +0.000 A 
ATOM      2  N   UNL     1       0.309  11.235  21.788  0.00  0.00    +0.000 NA
ATOM      3  N   UNL     1       0.589   9.960  22.090  0.00  0.00    +0.000 N 
ATOM      4  O   UNL     1       0.367   9.630  23.282  0.00  0.00    +0.000 OA
ATOM      5  C   UNL     1       1.076   9.058  21.139  0.00  0.00    +0.000 A 
ATOM      6  C   UNL     1       1.313   7.694  21.441  0.00  0.00    +0.000 A 
ATOM      7  C   UNL     1       1.756   6.868  20.416  0.00  0.00    +0.000 A 
ATOM      8  C   UNL     1       1.943   7.350  19.126  0.00  0.00    +0.000 A 
ATOM      9  C   UNL     1       1.747   8.682  18.819  0.00  0.00    +0.000 A 
ATOM     10  C   UNL     1       1.318   9.554  19.834  0.00  0.00    +0.000 A 
ATOM     11  N   UNL     1       1.110  10.904  19.552  0.00  0.00    +0.000 N 
ATOM     12  O   UNL     1       1.402  11.377  18.405  0.00  0.00    +0.000 OA
ATOM     13  C   UNL     1       2.360   6.262  18.187  0.00  0.00    +0.000 C 
ATOM     14  C   UNL     1       2.929   5.226  19.182  0.00  0.00    +0.000 C 
ATOM     15  C   UNL     1       2.077   5.404  20.470  0.00  0.00    +0.000 C 
ENDROOT
BRANCH   1  17
ATOM     16  C   UNL     1      -0.867  13.671  21.131  0.00  0.00    +0.000 C 
ATOM     17  C   UNL     1       0.200  13.114  20.197  0.00  0.00    +0.000 C 
ENDBRANCH   1  17
BRANCH  14  18
ATOM     18  C   UNL     1       4.428   5.487  19.436  0.00  0.00    +0.000 C 
BRANCH  18  19
ATOM     19  C   UNL     1       5.313   4.675  18.484  0.00  0.00    +0.000 C 
BRANCH  19  20
ATOM     20  N   UNL     1       6.472   5.429  17.988  0.00  0.00    +0.000 NA
ATOM     21  C   UNL     1       6.018   6.651  17.276  0.00  0.00    +0.000 C 
ATOM     22  C   UNL     1       5.316   6.358  15.935  0.00  0.00    +0.000 C 
ATOM     23  O   UNL     1       6.147   5.579  15.065  0.00  0.00    +0.000 OA
ATOM     24  C   UNL     1       6.565   4.362  15.698  0.00  0.00    +0.000 C 
ATOM     25  C   UNL     1       7.287   4.645  17.027  0.00  0.00    +0.000 C 
ENDBRANCH  19  20
ENDBRANCH  18  19
ENDBRANCH  14  18
TORSDOF 4
ENDMDL
MODEL 5
REMARK VINA RESULT:      -7.5      1.100      1.588
REMARK  Name = 
REMARK  5 active torsions:
REMARK  status: ('A' for Active; 'I' for Inactive)
REMARK    1  A    between atoms: C_1  and  C_2
REMARK    2  A    between atoms: C_2  and  C_3
REMARK    3  A    between atoms: C_16  and  C_17
REMARK    4  A    between atoms: C_17  and  C_18
REMARK    5  A    between atoms: C_18  and  N_19
REMARK                            x       y       z     vdW  Elec       q    Type
REMARK                         _______ _______ _______ _____ _____    ______ ____
ROOT
ATOM      1  C   UNL     1       1.081  11.442  19.475  0.00  0.00    +0.000 A 
ATOM      2  N   UNL     1       0.820  11.217  20.785  0.00  0.00    +0.000 NA
ATOM      3  N   UNL     1       1.005   9.992  21.297  0.00  0.00    +0.000 N 
ATOM      4  O   UNL     1       0.788   9.886  22.529  0.00  0.00    +0.000 OA
ATOM      5  C   UNL     1       1.394   8.905  20.507  0.00  0.00    +0.000 A 
ATOM      6  C   UNL     1       1.528   7.596  21.033  0.00  0.00    +0.000 A 
ATOM      7  C   UNL     1       1.877   6.576  20.158  0.00  0.00    +0.000 A 
ATOM      8  C   UNL     1       2.069   6.816  18.803  0.00  0.00    +0.000 A 
ATOM      9  C   UNL     1       1.972   8.089  18.277  0.00  0.00    +0.000 A 
ATOM     10  C   UNL     1       1.641   9.152  19.133  0.00  0.00    +0.000 A 
ATOM     11  N   UNL     1       1.534  10.448  18.629  0.00  0.00    +0.000 N 
ATOM     12  O   UNL     1       1.834  10.695  17.415  0.00  0.00    +0.000 OA
ATOM     13  C   UNL     1       2.373   5.554  18.058  0.00  0.00    +0.000 C 
ATOM     14  C   UNL     1       2.882   4.657  19.208  0.00  0.00    +0.000 C 
ATOM     15  C   UNL     1       2.080   5.120  20.457  0.00  0.00    +0.000 C 
ENDROOT
BRANCH   1  17
ATOM     16  C   UNL     1      -0.622  12.962  18.439  0.00  0.00    +0.000 C 
ATOM     17  C   UNL     1       0.821  12.803  18.900  0.00  0.00    +0.000 C 
ENDBRANCH   1  17
BRANCH  14  18
ATOM     18  C   UNL     1       4.403   4.831  19.396  0.00  0.00    +0.000 C 
BRANCH  18  19
ATOM     19  C   UNL     1       5.175   4.482  18.118  0.00  0.00    +0.000 C 
BRANCH  19  20
ATOM     20  N   UNL     1       4.992   5.468  17.045  0.00  0.00    +0.000 NA
ATOM     21  C   UNL     1       5.440   4.899  15.748  0.00  0.00    +0.000 C 
ATOM     22  C   UNL     1       6.966   4.706  15.655  0.00  0.00    +0.000 C 
ATOM     23  O   UNL     1       7.668   5.930  15.908  0.00  0.00    +0.000 OA
ATOM     24  C   UNL     1       7.301   6.485  17.178  0.00  0.00    +0.000 C 
ATOM     25  C   UNL     1       5.781   6.703  17.272  0.00  0.00    +0.000 C 
ENDBRANCH  19  20
ENDBRANCH  18  19
ENDBRANCH  14  18
TORSDOF 4
ENDMDL
MODEL 6
REMARK VINA RESULT:      -7.4      3.407      7.960
REMARK  Name = 
REMARK  5 active torsions:
REMARK  status: ('A' for Active; 'I' for Inactive)
REMARK    1  A    between atoms: C_1  and  C_2
REMARK    2  A    between atoms: C_2  and  C_3
REMARK    3  A    between atoms: C_16  and  C_17
REMARK    4  A    between atoms: C_17  and  C_18
REMARK    5  A    between atoms: C_18  and  N_19
REMARK                            x       y       z     vdW  Elec       q    Type
REMARK                         _______ _______ _______ _____ _____    ______ ____
ROOT
ATOM      1  C   UNL     1       4.821   4.876  17.904  0.00  0.00    +0.000 A 
ATOM      2  N   UNL     1       4.284   4.407  19.055  0.00  0.00    +0.000 NA
ATOM      3  N   UNL     1       3.341   5.120  19.685  0.00  0.00    +0.000 N 
ATOM      4  O   UNL     1       2.862   4.585  20.717  0.00  0.00    +0.000 OA
ATOM      5  C   UNL     1       2.933   6.379  19.234  0.00  0.00    +0.000 A 
ATOM      6  C   UNL     1       1.981   7.163  19.934  0.00  0.00    +0.000 A 
ATOM      7  C   UNL     1       1.674   8.419  19.428  0.00  0.00    +0.000 A 
ATOM      8  C   UNL     1       2.293   8.911  18.285  0.00  0.00    +0.000 A 
ATOM      9  C   UNL     1       3.199   8.151  17.573  0.00  0.00    +0.000 A 
ATOM     10  C   UNL     1       3.521   6.866  18.041  0.00  0.00    +0.000 A 
ATOM     11  N   UNL     1       4.435   6.078  17.343  0.00  0.00    +0.000 N 
ATOM     12  O   UNL     1       4.908   6.472  16.226  0.00  0.00    +0.000 OA
ATOM     13  C   UNL     1       1.847  10.306  17.975  0.00  0.00    +0.000 C 
ATOM     14  C   UNL     1       0.503  10.353  18.736  0.00  0.00    +0.000 C 
ATOM     15  C   UNL     1       0.714   9.434  19.972  0.00  0.00    +0.000 C 
ENDROOT
BRANCH   1  17
ATOM     16  C   UNL     1       7.294   4.661  17.548  0.00  0.00    +0.000 C 
ATOM     17  C   UNL     1       5.915   4.096  17.234  0.00  0.00    +0.000 C 
ENDBRANCH   1  17
BRANCH  14  18
ATOM     18  C   UNL     1      -0.646   9.860  17.833  0.00  0.00    +0.000 C 
BRANCH  18  19
ATOM     19  C   UNL     1      -1.997  10.435  18.272  0.00  0.00    +0.000 C 
BRANCH  19  20
ATOM     20  N   UNL     1      -3.144   9.716  17.700  0.00  0.00    +0.000 NA
ATOM     21  C   UNL     1      -3.031   9.673  16.219  0.00  0.00    +0.000 C 
ATOM     22  C   UNL     1      -3.232  11.045  15.546  0.00  0.00    +0.000 C 
ATOM     23  O   UNL     1      -4.487  11.632  15.912  0.00  0.00    +0.000 OA
ATOM     24  C   UNL     1      -4.613  11.740  17.336  0.00  0.00    +0.000 C 
ATOM     25  C   UNL     1      -4.437  10.372  18.017  0.00  0.00    +0.000 C 
ENDBRANCH  19  20
ENDBRANCH  18  19
ENDBRANCH  14  18
TORSDOF 4
ENDMDL
MODEL 7
REMARK VINA RESULT:      -7.3      1.527      2.049
REMARK  Name = 
REMARK  5 active torsions:
REMARK  status: ('A' for Active; 'I' for Inactive)
REMARK    1  A    between atoms: C_1  and  C_2
REMARK    2  A    between atoms: C_2  and  C_3
REMARK    3  A    between atoms: C_16  and  C_17
REMARK    4  A    between atoms: C_17  and  C_18
REMARK    5  A    between atoms: C_18  and  N_19
REMARK                            x       y       z     vdW  Elec       q    Type
REMARK                         _______ _______ _______ _____ _____    ______ ____
ROOT
ATOM      1  C   UNL     1       0.569  11.883  20.674  0.00  0.00    +0.000 A 
ATOM      2  N   UNL     1       0.336  11.410  21.921  0.00  0.00    +0.000 NA
ATOM      3  N   UNL     1       0.584  10.123  22.199  0.00  0.00    +0.000 N 
ATOM      4  O   UNL     1       0.388   9.784  23.393  0.00  0.00    +0.000 OA
ATOM      5  C   UNL     1       1.014   9.219  21.223  0.00  0.00    +0.000 A 
ATOM      6  C   UNL     1       1.216   7.844  21.500  0.00  0.00    +0.000 A 
ATOM      7  C   UNL     1       1.602   7.019  20.453  0.00  0.00    +0.000 A 
ATOM      8  C   UNL     1       1.765   7.511  19.164  0.00  0.00    +0.000 A 
ATOM      9  C   UNL     1       1.602   8.852  18.879  0.00  0.00    +0.000 A 
ATOM     10  C   UNL     1       1.232   9.725  19.917  0.00  0.00    +0.000 A 
ATOM     11  N   UNL     1       1.058  11.083  19.658  0.00  0.00    +0.000 N 
ATOM     12  O   UNL     1       1.330  11.562  18.508  0.00  0.00    +0.000 OA
ATOM     13  C   UNL     1       2.119   6.423  18.199  0.00  0.00    +0.000 C 
ATOM     14  C   UNL     1       2.684   5.357  19.164  0.00  0.00    +0.000 C 
ATOM     15  C   UNL     1       1.878   5.545  20.479  0.00  0.00    +0.000 C 
ENDROOT
BRANCH   1  17
ATOM     16  C   UNL     1      -0.741  13.907  21.362  0.00  0.00    +0.000 C 
ATOM     17  C   UNL     1       0.238  13.312  20.358  0.00  0.00    +0.000 C 
ENDBRANCH   1  17
BRANCH  14  18
ATOM     18  C   UNL     1       4.198   5.568  19.374  0.00  0.00    +0.000 C 
BRANCH  18  19
ATOM     19  C   UNL     1       5.024   4.839  18.308  0.00  0.00    +0.000 C 
BRANCH  19  20
ATOM     20  N   UNL     1       4.924   5.457  16.979  0.00  0.00    +0.000 NA
ATOM     21  C   UNL     1       5.584   4.594  15.965  0.00  0.00    +0.000 C 
ATOM     22  C   UNL     1       7.118   4.544  16.104  0.00  0.00    +0.000 C 
ATOM     23  O   UNL     1       7.693   5.856  16.063  0.00  0.00    +0.000 OA
ATOM     24  C   UNL     1       7.118   6.707  17.064  0.00  0.00    +0.000 C 
ATOM     25  C   UNL     1       5.588   6.782  16.919  0.00  0.00    +0.000 C 
ENDBRANCH  19  20
ENDBRANCH  18  19
ENDBRANCH  14  18
TORSDOF 4
ENDMDL
MODEL 8
REMARK VINA RESULT:      -7.3      3.061      4.485
REMARK  Name = 
REMARK  5 active torsions:
REMARK  status: ('A' for Active; 'I' for Inactive)
REMARK    1  A    between atoms: C_1  and  C_2
REMARK    2  A    between atoms: C_2  and  C_3
REMARK    3  A    between atoms: C_16  and  C_17
REMARK    4  A    between atoms: C_17  and  C_18
REMARK    5  A    between atoms: C_18  and  N_19
REMARK                            x       y       z     vdW  Elec       q    Type
REMARK                         _______ _______ _______ _____ _____    ______ ____
ROOT
ATOM      1  C   UNL     1      -1.212  11.459  21.589  0.00  0.00    +0.000 A 
ATOM      2  N   UNL     1      -1.211  12.109  20.401  0.00  0.00    +0.000 NA
ATOM      3  N   UNL     1      -0.544  11.591  19.362  0.00  0.00    +0.000 N 
ATOM      4  O   UNL     1      -0.640  12.233  18.287  0.00  0.00    +0.000 OA
ATOM      5  C   UNL     1       0.221  10.425  19.474  0.00  0.00    +0.000 A 
ATOM      6  C   UNL     1       0.978   9.909  18.393  0.00  0.00    +0.000 A 
ATOM      7  C   UNL     1       1.739   8.770  18.617  0.00  0.00    +0.000 A 
ATOM      8  C   UNL     1       1.782   8.160  19.865  0.00  0.00    +0.000 A 
ATOM      9  C   UNL     1       1.028   8.629  20.922  0.00  0.00    +0.000 A 
ATOM     10  C   UNL     1       0.228   9.768  20.730  0.00  0.00    +0.000 A 
ATOM     11  N   UNL     1      -0.542  10.266  21.781  0.00  0.00    +0.000 N 
ATOM     12  O   UNL     1      -0.607   9.638  22.888  0.00  0.00    +0.000 OA
ATOM     13  C   UNL     1       2.718   6.992  19.876  0.00  0.00    +0.000 C 
ATOM     14  C   UNL     1       2.780   6.661  18.368  0.00  0.00    +0.000 C 
ATOM     15  C   UNL     1       2.620   8.032  17.653  0.00  0.00    +0.000 C 
ENDROOT
BRANCH   1  17
ATOM     16  C   UNL     1      -1.203  13.321  23.269  0.00  0.00    +0.000 C 
ATOM     17  C   UNL     1      -1.918  12.075  22.762  0.00  0.00    +0.000 C 
ENDBRANCH   1  17
BRANCH  14  18
ATOM     18  C   UNL     1       1.661   5.671  17.986  0.00  0.00    +0.000 C 
BRANCH  18  19
ATOM     19  C   UNL     1       2.217   4.274  17.687  0.00  0.00    +0.000 C 
BRANCH  19  20
ATOM     20  N   UNL     1       1.752   3.253  18.635  0.00  0.00    +0.000 NA
ATOM     21  C   UNL     1       2.397   3.454  19.958  0.00  0.00    +0.000 C 
ATOM     22  C   UNL     1       3.904   3.134  19.964  0.00  0.00    +0.000 C 
ATOM     23  O   UNL     1       4.161   1.801  19.505  0.00  0.00    +0.000 OA
ATOM     24  C   UNL     1       3.598   1.582  18.204  0.00  0.00    +0.000 C 
ATOM     25  C   UNL     1       2.088   1.877  18.194  0.00  0.00    +0.000 C 
ENDBRANCH  19  20
ENDBRANCH  18  19
ENDBRANCH  14  18
TORSDOF 4
ENDMDL
MODEL 9
REMARK VINA RESULT:      -7.3      3.276      8.024
REMARK  Name = 
REMARK  5 active torsions:
REMARK  status: ('A' for Active; 'I' for Inactive)
REMARK    1  A    between atoms: C_1  and  C_2
REMARK    2  A    between atoms: C_2  and  C_3
REMARK    3  A    between atoms: C_16  and  C_17
REMARK    4  A    between atoms: C_17  and  C_18
REMARK    5  A    between atoms: C_18  and  N_19
REMARK                            x       y       z     vdW  Elec       q    Type
REMARK                         _______ _______ _______ _____ _____    ______ ____
ROOT
ATOM      1  C   UNL     1       5.016   4.811  17.300  0.00  0.00    +0.000 A 
ATOM      2  N   UNL     1       4.546   4.233  18.431  0.00  0.00    +0.000 NA
ATOM      3  N   UNL     1       3.629   4.871  19.170  0.00  0.00    +0.000 N 
ATOM      4  O   UNL     1       3.212   4.239  20.173  0.00  0.00    +0.000 OA
ATOM      5  C   UNL     1       3.182   6.158  18.855  0.00  0.00    +0.000 A 
ATOM      6  C   UNL     1       2.259   6.860  19.670  0.00  0.00    +0.000 A 
ATOM      7  C   UNL     1       1.911   8.151  19.295  0.00  0.00    +0.000 A 
ATOM      8  C   UNL     1       2.461   8.753  18.170  0.00  0.00    +0.000 A 
ATOM      9  C   UNL     1       3.338   8.075  17.347  0.00  0.00    +0.000 A 
ATOM     10  C   UNL     1       3.701   6.759  17.681  0.00  0.00    +0.000 A 
ATOM     11  N   UNL     1       4.586   6.052  16.869  0.00  0.00    +0.000 N 
ATOM     12  O   UNL     1       4.994   6.550  15.769  0.00  0.00    +0.000 OA
ATOM     13  C   UNL     1       1.983  10.162  18.010  0.00  0.00    +0.000 C 
ATOM     14  C   UNL     1       0.681  10.119  18.840  0.00  0.00    +0.000 C 
ATOM     15  C   UNL     1       0.968   9.098  19.976  0.00  0.00    +0.000 C 
ENDROOT
BRANCH   1  17
ATOM     16  C   UNL     1       7.481   4.545  16.927  0.00  0.00    +0.000 C 
ATOM     17  C   UNL     1       6.082   4.112  16.508  0.00  0.00    +0.000 C 
ENDBRANCH   1  17
BRANCH  14  18
ATOM     18  C   UNL     1      -0.509   9.688  17.957  0.00  0.00    +0.000 C 
BRANCH  18  19
ATOM     19  C   UNL     1      -1.841  10.207  18.509  0.00  0.00    +0.000 C 
BRANCH  19  20
ATOM     20  N   UNL     1      -2.224  11.514  17.958  0.00  0.00    +0.000 NA
ATOM     21  C   UNL     1      -3.474  11.992  18.604  0.00  0.00    +0.000 C 
ATOM     22  C   UNL     1      -4.721  11.177  18.211  0.00  0.00    +0.000 C 
ATOM     23  O   UNL     1      -4.901  11.143  16.789  0.00  0.00    +0.000 OA
ATOM     24  C   UNL     1      -3.733  10.636  16.131  0.00  0.00    +0.000 C 
ATOM     25  C   UNL     1      -2.485  11.457  16.499  0.00  0.00    +0.000 C 
ENDBRANCH  19  20
ENDBRANCH  18  19
ENDBRANCH  14  18
TORSDOF 4
ENDMDL
