MODEL 1
REMARK VINA RESULT:      -6.7      0.000      0.000
REMARK  Name = 
REMARK  4 active torsions:
REMARK  status: ('A' for Active; 'I' for Inactive)
REMARK    1  A    between atoms: C_1  and  O_2
REMARK    2  A    between atoms: O_2  and  C_3
REMARK    3  A    between atoms: C_4  and  C_5
REMARK    4  A    between atoms: C_9  and  O_10
REMARK                            x       y       z     vdW  Elec       q    Type
REMARK                         _______ _______ _______ _____ _____    ______ ____
ROOT
ATOM      1  C   UNL     1       5.454   6.030  16.646  0.00  0.00    +0.000 A 
ATOM      2  C   UNL     1       5.720   4.785  16.201  0.00  0.00    +0.000 A 
ATOM      3  C   UNL     1       6.938   4.441  15.390  0.00  0.00    +0.000 C 
ATOM      4  O   UNL     1       4.922   3.674  16.433  0.00  0.00    +0.000 OA
ATOM      5  C   UNL     1       3.800   3.818  17.204  0.00  0.00    +0.000 A 
ATOM      6  C   UNL     1       3.077   2.662  17.502  0.00  0.00    +0.000 A 
ATOM      7  C   UNL     1       1.915   2.765  18.262  0.00  0.00    +0.000 A 
ATOM      8  C   UNL     1       1.462   3.998  18.718  0.00  0.00    +0.000 A 
ATOM      9  C   UNL     1       2.190   5.151  18.426  0.00  0.00    +0.000 A 
ATOM     10  C   UNL     1       3.366   5.052  17.673  0.00  0.00    +0.000 A 
ATOM     11  C   UNL     1       4.163   6.248  17.372  0.00  0.00    +0.000 A 
ATOM     12  O   UNL     1       3.755   7.351  17.719  0.00  0.00    +0.000 OA
ENDROOT
BRANCH   1  14
ATOM     13  C   UNL     1       7.251   7.378  17.445  0.00  0.00    +0.000 C 
ATOM     14  O   UNL     1       6.344   7.064  16.391  0.00  0.00    +0.000 OA
ENDBRANCH   1  14
BRANCH   7  15
ATOM     15  O   UNL     1       1.180   1.665  18.591  0.00  0.00    +0.000 OA
ATOM     16  H   UNL     1       1.781   0.920  18.761  0.00  0.00    +0.000 HD
ENDBRANCH   7  15
TORSDOF 2
ENDMDL
MODEL 2
REMARK VINA RESULT:      -6.6      1.671      1.816
REMARK  Name = 
REMARK  4 active torsions:
REMARK  status: ('A' for Active; 'I' for Inactive)
REMARK    1  A    between atoms: C_1  and  O_2
REMARK    2  A    between atoms: O_2  and  C_3
REMARK    3  A    between atoms: C_4  and  C_5
REMARK    4  A    between atoms: C_9  and  O_10
REMARK                            x       y       z     vdW  Elec       q    Type
REMARK                         _______ _______ _______ _____ _____    ______ ____
ROOT
ATOM      1  C   UNL     1       6.333   5.036  17.302  0.00  0.00    +0.000 A 
ATOM      2  C   UNL     1       5.591   4.739  16.215  0.00  0.00    +0.000 A 
ATOM      3  C   UNL     1       5.980   5.131  14.818  0.00  0.00    +0.000 C 
ATOM      4  O   UNL     1       4.393   4.040  16.243  0.00  0.00    +0.000 OA
ATOM      5  C   UNL     1       3.932   3.568  17.442  0.00  0.00    +0.000 A 
ATOM      6  C   UNL     1       2.779   2.782  17.419  0.00  0.00    +0.000 A 
ATOM      7  C   UNL     1       2.260   2.302  18.619  0.00  0.00    +0.000 A 
ATOM      8  C   UNL     1       2.866   2.601  19.834  0.00  0.00    +0.000 A 
ATOM      9  C   UNL     1       4.022   3.380  19.854  0.00  0.00    +0.000 A 
ATOM     10  C   UNL     1       4.555   3.855  18.650  0.00  0.00    +0.000 A 
ATOM     11  C   UNL     1       5.785   4.657  18.644  0.00  0.00    +0.000 A 
ATOM     12  O   UNL     1       6.306   4.977  19.706  0.00  0.00    +0.000 OA
ENDROOT
BRANCH   1  14
ATOM     13  C   UNL     1       7.517   7.100  17.454  0.00  0.00    +0.000 C 
ATOM     14  O   UNL     1       7.540   5.706  17.157  0.00  0.00    +0.000 OA
ENDBRANCH   1  14
BRANCH   7  15
ATOM     15  O   UNL     1       1.144   1.519  18.649  0.00  0.00    +0.000 OA
ATOM     16  H   UNL     1       1.059   1.054  17.800  0.00  0.00    +0.000 HD
ENDBRANCH   7  15
TORSDOF 2
ENDMDL
MODEL 3
REMARK VINA RESULT:      -6.4      1.493      5.306
REMARK  Name = 
REMARK  4 active torsions:
REMARK  status: ('A' for Active; 'I' for Inactive)
REMARK    1  A    between atoms: C_1  and  O_2
REMARK    2  A    between atoms: O_2  and  C_3
REMARK    3  A    between atoms: C_4  and  C_5
REMARK    4  A    between atoms: C_9  and  O_10
REMARK                            x       y       z     vdW  Elec       q    Type
REMARK                         _______ _______ _______ _____ _____    ______ ____
ROOT
ATOM      1  C   UNL     1       2.010   4.429  18.939  0.00  0.00    +0.000 A 
ATOM      2  C   UNL     1       2.476   5.606  19.406  0.00  0.00    +0.000 A 
ATOM      3  C   UNL     1       1.826   6.364  20.528  0.00  0.00    +0.000 C 
ATOM      4  O   UNL     1       3.601   6.258  18.923  0.00  0.00    +0.000 OA
ATOM      5  C   UNL     1       4.334   5.664  17.932  0.00  0.00    +0.000 A 
ATOM      6  C   UNL     1       5.515   6.298  17.543  0.00  0.00    +0.000 A 
ATOM      7  C   UNL     1       6.279   5.741  16.520  0.00  0.00    +0.000 A 
ATOM      8  C   UNL     1       5.879   4.574  15.877  0.00  0.00    +0.000 A 
ATOM      9  C   UNL     1       4.703   3.939  16.274  0.00  0.00    +0.000 A 
ATOM     10  C   UNL     1       3.938   4.486  17.310  0.00  0.00    +0.000 A 
ATOM     11  C   UNL     1       2.708   3.822  17.761  0.00  0.00    +0.000 A 
ATOM     12  O   UNL     1       2.309   2.822  17.175  0.00  0.00    +0.000 OA
ENDROOT
BRANCH   1  14
ATOM     13  C   UNL     1       1.163   2.850  20.512  0.00  0.00    +0.000 C 
ATOM     14  O   UNL     1       0.896   3.842  19.524  0.00  0.00    +0.000 OA
ENDBRANCH   1  14
BRANCH   7  15
ATOM     15  O   UNL     1       7.446   6.314  16.111  0.00  0.00    +0.000 OA
ATOM     16  H   UNL     1       8.089   5.615  15.907  0.00  0.00    +0.000 HD
ENDBRANCH   7  15
TORSDOF 2
ENDMDL
MODEL 4
REMARK VINA RESULT:      -6.3      1.972      5.358
REMARK  Name = 
REMARK  4 active torsions:
REMARK  status: ('A' for Active; 'I' for Inactive)
REMARK    1  A    between atoms: C_1  and  O_2
REMARK    2  A    between atoms: O_2  and  C_3
REMARK    3  A    between atoms: C_4  and  C_5
REMARK    4  A    between atoms: C_9  and  O_10
REMARK                            x       y       z     vdW  Elec       q    Type
REMARK                         _______ _______ _______ _____ _____    ______ ____
ROOT
ATOM      1  C   UNL     1       3.193   3.553  18.964  0.00  0.00    +0.000 A 
ATOM      2  C   UNL     1       2.714   4.406  18.035  0.00  0.00    +0.000 A 
ATOM      3  C   UNL     1       1.289   4.392  17.559  0.00  0.00    +0.000 C 
ATOM      4  O   UNL     1       3.459   5.394  17.410  0.00  0.00    +0.000 OA
ATOM      5  C   UNL     1       4.766   5.566  17.778  0.00  0.00    +0.000 A 
ATOM      6  C   UNL     1       5.456   6.636  17.203  0.00  0.00    +0.000 A 
ATOM      7  C   UNL     1       6.795   6.833  17.529  0.00  0.00    +0.000 A 
ATOM      8  C   UNL     1       7.455   5.979  18.407  0.00  0.00    +0.000 A 
ATOM      9  C   UNL     1       6.761   4.916  18.985  0.00  0.00    +0.000 A 
ATOM     10  C   UNL     1       5.412   4.721  18.671  0.00  0.00    +0.000 A 
ATOM     11  C   UNL     1       4.654   3.623  19.286  0.00  0.00    +0.000 A 
ATOM     12  O   UNL     1       5.228   2.827  20.020  0.00  0.00    +0.000 OA
ENDROOT
BRANCH   1  14
ATOM     13  C   UNL     1       1.885   2.954  20.865  0.00  0.00    +0.000 C 
ATOM     14  O   UNL     1       2.348   2.625  19.558  0.00  0.00    +0.000 OA
ENDBRANCH   1  14
BRANCH   7  15
ATOM     15  O   UNL     1       7.510   7.870  17.006  0.00  0.00    +0.000 OA
ATOM     16  H   UNL     1       8.441   7.603  16.921  0.00  0.00    +0.000 HD
ENDBRANCH   7  15
TORSDOF 2
ENDMDL
MODEL 5
REMARK VINA RESULT:      -6.2      2.045      5.079
REMARK  Name = 
REMARK  4 active torsions:
REMARK  status: ('A' for Active; 'I' for Inactive)
REMARK    1  A    between atoms: C_1  and  O_2
REMARK    2  A    between atoms: O_2  and  C_3
REMARK    3  A    between atoms: C_4  and  C_5
REMARK    4  A    between atoms: C_9  and  O_10
REMARK                            x       y       z     vdW  Elec       q    Type
REMARK                         _______ _______ _______ _____ _____    ______ ____
ROOT
ATOM      1  C   UNL     1       3.164   3.195  19.180  0.00  0.00    +0.000 A 
ATOM      2  C   UNL     1       4.396   2.911  19.653  0.00  0.00    +0.000 A 
ATOM      3  C   UNL     1       4.676   1.777  20.597  0.00  0.00    +0.000 C 
ATOM      4  O   UNL     1       5.547   3.615  19.332  0.00  0.00    +0.000 OA
ATOM      5  C   UNL     1       5.461   4.648  18.439  0.00  0.00    +0.000 A 
ATOM      6  C   UNL     1       6.654   5.266  18.060  0.00  0.00    +0.000 A 
ATOM      7  C   UNL     1       6.611   6.338  17.173  0.00  0.00    +0.000 A 
ATOM      8  C   UNL     1       5.402   6.805  16.668  0.00  0.00    +0.000 A 
ATOM      9  C   UNL     1       4.213   6.180  17.041  0.00  0.00    +0.000 A 
ATOM     10  C   UNL     1       4.251   5.094  17.923  0.00  0.00    +0.000 A 
ATOM     11  C   UNL     1       3.014   4.405  18.311  0.00  0.00    +0.000 A 
ATOM     12  O   UNL     1       1.933   4.832  17.920  0.00  0.00    +0.000 OA
ENDROOT
BRANCH   1  14
ATOM     13  C   UNL     1       1.282   2.881  20.610  0.00  0.00    +0.000 C 
ATOM     14  O   UNL     1       2.084   2.398  19.535  0.00  0.00    +0.000 OA
ENDBRANCH   1  14
BRANCH   7  15
ATOM     15  O   UNL     1       7.748   6.969  16.762  0.00  0.00    +0.000 OA
ATOM     16  H   UNL     1       7.553   7.908  16.608  0.00  0.00    +0.000 HD
ENDBRANCH   7  15
TORSDOF 2
ENDMDL
MODEL 6
REMARK VINA RESULT:      -6.2      1.753      2.286
REMARK  Name = 
REMARK  4 active torsions:
REMARK  status: ('A' for Active; 'I' for Inactive)
REMARK    1  A    between atoms: C_1  and  O_2
REMARK    2  A    between atoms: O_2  and  C_3
REMARK    3  A    between atoms: C_4  and  C_5
REMARK    4  A    between atoms: C_9  and  O_10
REMARK                            x       y       z     vdW  Elec       q    Type
REMARK                         _______ _______ _______ _____ _____    ______ ____
ROOT
ATOM      1  C   UNL     1       6.719   5.828  17.415  0.00  0.00    +0.000 A 
ATOM      2  C   UNL     1       6.940   5.323  18.646  0.00  0.00    +0.000 A 
ATOM      3  C   UNL     1       8.133   5.683  19.485  0.00  0.00    +0.000 C 
ATOM      4  O   UNL     1       6.106   4.422  19.293  0.00  0.00    +0.000 OA
ATOM      5  C   UNL     1       4.946   4.038  18.676  0.00  0.00    +0.000 A 
ATOM      6  C   UNL     1       4.082   3.212  19.397  0.00  0.00    +0.000 A 
ATOM      7  C   UNL     1       2.903   2.776  18.799  0.00  0.00    +0.000 A 
ATOM      8  C   UNL     1       2.580   3.141  17.496  0.00  0.00    +0.000 A 
ATOM      9  C   UNL     1       3.441   3.972  16.780  0.00  0.00    +0.000 A 
ATOM     10  C   UNL     1       4.622   4.424  17.381  0.00  0.00    +0.000 A 
ATOM     11  C   UNL     1       5.533   5.319  16.656  0.00  0.00    +0.000 A 
ATOM     12  O   UNL     1       5.295   5.611  15.490  0.00  0.00    +0.000 OA
ENDROOT
BRANCH   1  14
ATOM     13  C   UNL     1       7.499   8.081  17.395  0.00  0.00    +0.000 C 
ATOM     14  O   UNL     1       7.600   6.757  16.877  0.00  0.00    +0.000 OA
ENDBRANCH   1  14
BRANCH   7  15
ATOM     15  O   UNL     1       2.019   1.979  19.465  0.00  0.00    +0.000 OA
ATOM     16  H   UNL     1       2.507   1.264  19.906  0.00  0.00    +0.000 HD
ENDBRANCH   7  15
TORSDOF 2
ENDMDL
MODEL 7
REMARK VINA RESULT:      -6.2      1.418      4.720
REMARK  Name = 
REMARK  4 active torsions:
REMARK  status: ('A' for Active; 'I' for Inactive)
REMARK    1  A    between atoms: C_1  and  O_2
REMARK    2  A    between atoms: O_2  and  C_3
REMARK    3  A    between atoms: C_4  and  C_5
REMARK    4  A    between atoms: C_9  and  O_10
REMARK                            x       y       z     vdW  Elec       q    Type
REMARK                         _______ _______ _______ _____ _____    ______ ____
ROOT
ATOM      1  C   UNL     1       2.316   4.117  18.465  0.00  0.00    +0.000 A 
ATOM      2  C   UNL     1       3.028   3.013  18.158  0.00  0.00    +0.000 A 
ATOM      3  C   UNL     1       2.610   1.625  18.553  0.00  0.00    +0.000 C 
ATOM      4  O   UNL     1       4.218   3.012  17.445  0.00  0.00    +0.000 OA
ATOM      5  C   UNL     1       4.702   4.201  16.970  0.00  0.00    +0.000 A 
ATOM      6  C   UNL     1       5.845   4.151  16.170  0.00  0.00    +0.000 A 
ATOM      7  C   UNL     1       6.387   5.338  15.686  0.00  0.00    +0.000 A 
ATOM      8  C   UNL     1       5.814   6.568  15.994  0.00  0.00    +0.000 A 
ATOM      9  C   UNL     1       4.668   6.614  16.786  0.00  0.00    +0.000 A 
ATOM     10  C   UNL     1       4.112   5.423  17.265  0.00  0.00    +0.000 A 
ATOM     11  C   UNL     1       2.891   5.445  18.082  0.00  0.00    +0.000 A 
ATOM     12  O   UNL     1       2.400   6.519  18.409  0.00  0.00    +0.000 OA
ENDROOT
BRANCH   1  14
ATOM     13  C   UNL     1       1.176   4.211  20.557  0.00  0.00    +0.000 C 
ATOM     14  O   UNL     1       1.113   4.000  19.149  0.00  0.00    +0.000 OA
ENDBRANCH   1  14
BRANCH   7  15
ATOM     15  O   UNL     1       7.495   5.343  14.891  0.00  0.00    +0.000 OA
ATOM     16  H   UNL     1       8.236   5.735  15.381  0.00  0.00    +0.000 HD
ENDBRANCH   7  15
TORSDOF 2
ENDMDL
MODEL 8
REMARK VINA RESULT:      -6.1      2.007      4.858
REMARK  Name = 
REMARK  4 active torsions:
REMARK  status: ('A' for Active; 'I' for Inactive)
REMARK    1  A    between atoms: C_1  and  O_2
REMARK    2  A    between atoms: O_2  and  C_3
REMARK    3  A    between atoms: C_4  and  C_5
REMARK    4  A    between atoms: C_9  and  O_10
REMARK                            x       y       z     vdW  Elec       q    Type
REMARK                         _______ _______ _______ _____ _____    ______ ____
ROOT
ATOM      1  C   UNL     1       3.207   4.329  19.836  0.00  0.00    +0.000 A 
ATOM      2  C   UNL     1       4.195   3.414  19.760  0.00  0.00    +0.000 A 
ATOM      3  C   UNL     1       4.245   2.181  20.616  0.00  0.00    +0.000 C 
ATOM      4  O   UNL     1       5.275   3.486  18.892  0.00  0.00    +0.000 OA
ATOM      5  C   UNL     1       5.342   4.529  18.009  0.00  0.00    +0.000 A 
ATOM      6  C   UNL     1       6.386   4.515  17.082  0.00  0.00    +0.000 A 
ATOM      7  C   UNL     1       6.508   5.569  16.180  0.00  0.00    +0.000 A 
ATOM      8  C   UNL     1       5.614   6.635  16.196  0.00  0.00    +0.000 A 
ATOM      9  C   UNL     1       4.568   6.643  17.117  0.00  0.00    +0.000 A 
ATOM     10  C   UNL     1       4.433   5.580  18.017  0.00  0.00    +0.000 A 
ATOM     11  C   UNL     1       3.325   5.553  18.981  0.00  0.00    +0.000 A 
ATOM     12  O   UNL     1       2.557   6.506  19.048  0.00  0.00    +0.000 OA
ENDROOT
BRANCH   1  14
ATOM     13  C   UNL     1       0.944   3.641  20.136  0.00  0.00    +0.000 C 
ATOM     14  O   UNL     1       2.148   4.138  20.714  0.00  0.00    +0.000 OA
ENDBRANCH   1  14
BRANCH   7  15
ATOM     15  O   UNL     1       7.502   5.597  15.248  0.00  0.00    +0.000 OA
ATOM     16  H   UNL     1       7.950   4.735  15.236  0.00  0.00    +0.000 HD
ENDBRANCH   7  15
TORSDOF 2
ENDMDL
MODEL 9
REMARK VINA RESULT:      -6.1      1.698      5.038
REMARK  Name = 
REMARK  4 active torsions:
REMARK  status: ('A' for Active; 'I' for Inactive)
REMARK    1  A    between atoms: C_1  and  O_2
REMARK    2  A    between atoms: O_2  and  C_3
REMARK    3  A    between atoms: C_4  and  C_5
REMARK    4  A    between atoms: C_9  and  O_10
REMARK                            x       y       z     vdW  Elec       q    Type
REMARK                         _______ _______ _______ _____ _____    ______ ____
ROOT
ATOM      1  C   UNL     1       2.567   5.132  18.575  0.00  0.00    +0.000 A 
ATOM      2  C   UNL     1       2.960   6.403  18.350  0.00  0.00    +0.000 A 
ATOM      3  C   UNL     1       2.323   7.593  19.010  0.00  0.00    +0.000 C 
ATOM      4  O   UNL     1       3.991   6.774  17.499  0.00  0.00    +0.000 OA
ATOM      5  C   UNL     1       4.704   5.795  16.863  0.00  0.00    +0.000 A 
ATOM      6  C   UNL     1       5.798   6.198  16.095  0.00  0.00    +0.000 A 
ATOM      7  C   UNL     1       6.538   5.237  15.410  0.00  0.00    +0.000 A 
ATOM      8  C   UNL     1       6.198   3.890  15.471  0.00  0.00    +0.000 A 
ATOM      9  C   UNL     1       5.110   3.489  16.245  0.00  0.00    +0.000 A 
ATOM     10  C   UNL     1       4.371   4.449  16.946  0.00  0.00    +0.000 A 
ATOM     11  C   UNL     1       3.235   4.048  17.787  0.00  0.00    +0.000 A 
ATOM     12  O   UNL     1       2.886   2.873  17.815  0.00  0.00    +0.000 OA
ENDROOT
BRANCH   1  14
ATOM     13  C   UNL     1       1.965   4.489  20.790  0.00  0.00    +0.000 C 
ATOM     14  O   UNL     1       1.549   4.870  19.482  0.00  0.00    +0.000 OA
ENDBRANCH   1  14
BRANCH   7  15
ATOM     15  O   UNL     1       7.622   5.578  14.656  0.00  0.00    +0.000 OA
ATOM     16  H   UNL     1       8.291   5.988  15.230  0.00  0.00    +0.000 HD
ENDBRANCH   7  15
TORSDOF 2
ENDMDL
