MODEL 1
REMARK VINA RESULT:      -9.1      0.000      0.000
REMARK  Name = 
REMARK  11 active torsions:
REMARK  status: ('A' for Active; 'I' for Inactive)
REMARK    1  A    between atoms: C_1  and  N_2
REMARK    2  A    between atoms: N_2  and  C_3
REMARK    3  A    between atoms: C_3  and  C_4
REMARK    4  A    between atoms: C_4  and  C_5
REMARK    5  A    between atoms: C_5  and  C_6
REMARK    6  A    between atoms: C_6  and  C_7
REMARK    7  A    between atoms: C_7  and  C_8
REMARK    8  A    between atoms: C_8  and  C_9
REMARK    9  A    between atoms: N_11  and  O_12
REMARK   10  A    between atoms: C_13  and  C_15
REMARK   11  A    between atoms: C_18  and  N_19
REMARK                            x       y       z     vdW  Elec       q    Type
REMARK                         _______ _______ _______ _____ _____    ______ ____
ROOT
ATOM      1  C   UNL     1       1.201   9.676  19.159  0.00  0.00    +0.000 A 
ATOM      2  C   UNL     1       1.766   9.367  17.921  0.00  0.00    +0.000 A 
ATOM      3  C   UNL     1       2.370   8.123  17.696  0.00  0.00    +0.000 A 
ATOM      4  C   UNL     1       2.524   7.186  18.728  0.00  0.00    +0.000 A 
ATOM      5  C   UNL     1       2.034   7.545  19.998  0.00  0.00    +0.000 A 
ATOM      6  C   UNL     1       1.368   8.765  20.206  0.00  0.00    +0.000 A 
ENDROOT
BRANCH   4   7
ATOM      7  N   UNL     1       3.185   5.935  18.495  0.00  0.00    +0.000 N 
ATOM      8  C   UNL     1       4.569   5.865  18.153  0.00  0.00    +0.000 A 
ATOM      9  N   UNL     1       5.276   4.764  18.499  0.00  0.00    +0.000 NA
ATOM     10  C   UNL     1       6.548   4.658  18.086  0.00  0.00    +0.000 A 
ATOM     11  C   UNL     1       7.183   5.634  17.366  0.00  0.00    +0.000 A 
ATOM     12  C   UNL     1       6.429   6.749  17.104  0.00  0.00    +0.000 A 
ATOM     13  N   UNL     1       5.146   6.892  17.489  0.00  0.00    +0.000 NA
ATOM     14  C   UNL     1       2.479   4.694  18.551  0.00  0.00    +0.000 A 
ATOM     15  N   UNL     1       2.826   3.694  17.707  0.00  0.00    +0.000 NA
ATOM     16  C   UNL     1       2.243   2.494  17.856  0.00  0.00    +0.000 A 
ATOM     17  C   UNL     1       1.284   2.238  18.797  0.00  0.00    +0.000 A 
ATOM     18  C   UNL     1       0.927   3.315  19.568  0.00  0.00    +0.000 A 
ATOM     19  N   UNL     1       1.485   4.537  19.456  0.00  0.00    +0.000 NA
ENDBRANCH   4   7
BRANCH   1  22
ATOM     20  C   UNL     1      -1.345  12.530  19.316  0.00  0.00    +0.000 C 
ATOM     21  N   UNL     1      -0.805  11.220  18.974  0.00  0.00    +0.000 N 
ATOM     22  C   UNL     1       0.502  10.968  19.442  0.00  0.00    +0.000 C 
ATOM     23  O   UNL     1       1.109  11.795  20.129  0.00  0.00    +0.000 OA
BRANCH  21  24
ATOM     24  C   UNL     1      -1.656  10.201  18.351  0.00  0.00    +0.000 C 
BRANCH  24  25
ATOM     25  C   UNL     1      -2.940  10.644  17.655  0.00  0.00    +0.000 C 
BRANCH  25  26
ATOM     26  C   UNL     1      -2.666  10.930  16.176  0.00  0.00    +0.000 C 
BRANCH  26  27
ATOM     27  C   UNL     1      -2.651   9.633  15.375  0.00  0.00    +0.000 C 
BRANCH  27  28
ATOM     28  C   UNL     1      -2.937   9.894  13.900  0.00  0.00    +0.000 C 
BRANCH  28  29
ATOM     29  C   UNL     1      -4.414  10.208  13.683  0.00  0.00    +0.000 C 
BRANCH  29  30
ATOM     30  C   UNL     1      -4.948   9.556  12.428  0.00  0.00    +0.000 C 
ATOM     31  O   UNL     1      -6.044   9.007  12.338  0.00  0.00    +0.000 OA
ATOM     32  N   UNL     1      -4.087   9.637  11.362  0.00  0.00    +0.000 N 
ATOM     33  H   UNL     1      -3.099   9.849  11.446  0.00  0.00    +0.000 HD
BRANCH  32  34
ATOM     34  O   UNL     1      -4.499   8.960  10.192  0.00  0.00    +0.000 OA
ATOM     35  H   UNL     1      -3.677   8.497   9.918  0.00  0.00    +0.000 HD
ENDBRANCH  32  34
ENDBRANCH  29  30
ENDBRANCH  28  29
ENDBRANCH  27  28
ENDBRANCH  26  27
ENDBRANCH  25  26
ENDBRANCH  24  25
ENDBRANCH  21  24
ENDBRANCH   1  22
TORSDOF 10
ENDMDL
MODEL 2
REMARK VINA RESULT:      -9.0      2.902      4.565
REMARK  Name = 
REMARK  11 active torsions:
REMARK  status: ('A' for Active; 'I' for Inactive)
REMARK    1  A    between atoms: C_1  and  N_2
REMARK    2  A    between atoms: N_2  and  C_3
REMARK    3  A    between atoms: C_3  and  C_4
REMARK    4  A    between atoms: C_4  and  C_5
REMARK    5  A    between atoms: C_5  and  C_6
REMARK    6  A    between atoms: C_6  and  C_7
REMARK    7  A    between atoms: C_7  and  C_8
REMARK    8  A    between atoms: C_8  and  C_9
REMARK    9  A    between atoms: N_11  and  O_12
REMARK   10  A    between atoms: C_13  and  C_15
REMARK   11  A    between atoms: C_18  and  N_19
REMARK                            x       y       z     vdW  Elec       q    Type
REMARK                         _______ _______ _______ _____ _____    ______ ____
ROOT
ATOM      1  C   UNL     1       1.158   9.591  19.396  0.00  0.00    +0.000 A 
ATOM      2  C   UNL     1       1.630   9.322  18.111  0.00  0.00    +0.000 A 
ATOM      3  C   UNL     1       2.233   8.094  17.809  0.00  0.00    +0.000 A 
ATOM      4  C   UNL     1       2.481   7.136  18.803  0.00  0.00    +0.000 A 
ATOM      5  C   UNL     1       2.085   7.455  20.116  0.00  0.00    +0.000 A 
ATOM      6  C   UNL     1       1.419   8.659  20.405  0.00  0.00    +0.000 A 
ENDROOT
BRANCH   4   7
ATOM      7  N   UNL     1       3.141   5.902  18.489  0.00  0.00    +0.000 N 
ATOM      8  C   UNL     1       2.459   4.649  18.533  0.00  0.00    +0.000 A 
ATOM      9  N   UNL     1       2.872   3.647  17.723  0.00  0.00    +0.000 NA
ATOM     10  C   UNL     1       2.295   2.441  17.841  0.00  0.00    +0.000 A 
ATOM     11  C   UNL     1       1.273   2.186  18.714  0.00  0.00    +0.000 A 
ATOM     12  C   UNL     1       0.861   3.260  19.460  0.00  0.00    +0.000 A 
ATOM     13  N   UNL     1       1.419   4.484  19.382  0.00  0.00    +0.000 NA
ATOM     14  C   UNL     1       4.531   5.860  18.156  0.00  0.00    +0.000 A 
ATOM     15  N   UNL     1       5.274   4.798  18.547  0.00  0.00    +0.000 NA
ATOM     16  C   UNL     1       6.544   4.709  18.120  0.00  0.00    +0.000 A 
ATOM     17  C   UNL     1       7.140   5.659  17.337  0.00  0.00    +0.000 A 
ATOM     18  C   UNL     1       6.352   6.743  17.041  0.00  0.00    +0.000 A 
ATOM     19  N   UNL     1       5.074   6.875  17.446  0.00  0.00    +0.000 NA
ENDBRANCH   4   7
BRANCH   1  22
ATOM     20  C   UNL     1      -1.388  12.427  19.763  0.00  0.00    +0.000 C 
ATOM     21  N   UNL     1      -0.854  11.139  19.338  0.00  0.00    +0.000 N 
ATOM     22  C   UNL     1       0.463  10.865  19.764  0.00  0.00    +0.000 C 
ATOM     23  O   UNL     1       1.083  11.654  20.482  0.00  0.00    +0.000 OA
BRANCH  21  24
ATOM     24  C   UNL     1      -1.717  10.153  18.678  0.00  0.00    +0.000 C 
BRANCH  24  25
ATOM     25  C   UNL     1      -2.007  10.314  17.189  0.00  0.00    +0.000 C 
BRANCH  25  26
ATOM     26  C   UNL     1      -3.500  10.114  16.917  0.00  0.00    +0.000 C 
BRANCH  26  27
ATOM     27  C   UNL     1      -4.329  10.607  18.097  0.00  0.00    +0.000 C 
BRANCH  27  28
ATOM     28  C   UNL     1      -5.642  11.226  17.628  0.00  0.00    +0.000 C 
BRANCH  28  29
ATOM     29  C   UNL     1      -6.457  11.730  18.815  0.00  0.00    +0.000 C 
BRANCH  29  30
ATOM     30  C   UNL     1      -6.974  10.591  19.664  0.00  0.00    +0.000 C 
ATOM     31  O   UNL     1      -7.014  10.598  20.892  0.00  0.00    +0.000 OA
ATOM     32  N   UNL     1      -7.415   9.518  18.929  0.00  0.00    +0.000 N 
ATOM     33  H   UNL     1      -7.179   9.362  17.956  0.00  0.00    +0.000 HD
BRANCH  32  34
ATOM     34  O   UNL     1      -7.819   8.390  19.679  0.00  0.00    +0.000 OA
ATOM     35  H   UNL     1      -8.797   8.415  19.581  0.00  0.00    +0.000 HD
ENDBRANCH  32  34
ENDBRANCH  29  30
ENDBRANCH  28  29
ENDBRANCH  27  28
ENDBRANCH  26  27
ENDBRANCH  25  26
ENDBRANCH  24  25
ENDBRANCH  21  24
ENDBRANCH   1  22
TORSDOF 10
ENDMDL
MODEL 3
REMARK VINA RESULT:      -8.8      3.120      3.658
REMARK  Name = 
REMARK  11 active torsions:
REMARK  status: ('A' for Active; 'I' for Inactive)
REMARK    1  A    between atoms: C_1  and  N_2
REMARK    2  A    between atoms: N_2  and  C_3
REMARK    3  A    between atoms: C_3  and  C_4
REMARK    4  A    between atoms: C_4  and  C_5
REMARK    5  A    between atoms: C_5  and  C_6
REMARK    6  A    between atoms: C_6  and  C_7
REMARK    7  A    between atoms: C_7  and  C_8
REMARK    8  A    between atoms: C_8  and  C_9
REMARK    9  A    between atoms: N_11  and  O_12
REMARK   10  A    between atoms: C_13  and  C_15
REMARK   11  A    between atoms: C_18  and  N_19
REMARK                            x       y       z     vdW  Elec       q    Type
REMARK                         _______ _______ _______ _____ _____    ______ ____
ROOT
ATOM      1  C   UNL     1       1.159   9.434  19.870  0.00  0.00    +0.000 A 
ATOM      2  C   UNL     1       1.373   8.388  20.769  0.00  0.00    +0.000 A 
ATOM      3  C   UNL     1       2.068   7.236  20.380  0.00  0.00    +0.000 A 
ATOM      4  C   UNL     1       2.481   7.042  19.053  0.00  0.00    +0.000 A 
ATOM      5  C   UNL     1       2.179   8.062  18.132  0.00  0.00    +0.000 A 
ATOM      6  C   UNL     1       1.541   9.247  18.538  0.00  0.00    +0.000 A 
ENDROOT
BRANCH   4   7
ATOM      7  N   UNL     1       3.151   5.837  18.659  0.00  0.00    +0.000 N 
ATOM      8  C   UNL     1       4.516   5.835  18.243  0.00  0.00    +0.000 A 
ATOM      9  N   UNL     1       5.260   4.722  18.436  0.00  0.00    +0.000 NA
ATOM     10  C   UNL     1       6.511   4.688  17.952  0.00  0.00    +0.000 A 
ATOM     11  C   UNL     1       7.090   5.748  17.307  0.00  0.00    +0.000 A 
ATOM     12  C   UNL     1       6.303   6.865  17.200  0.00  0.00    +0.000 A 
ATOM     13  N   UNL     1       5.039   6.938  17.661  0.00  0.00    +0.000 NA
ATOM     14  C   UNL     1       2.471   4.580  18.620  0.00  0.00    +0.000 A 
ATOM     15  N   UNL     1       2.792   3.681  17.661  0.00  0.00    +0.000 NA
ATOM     16  C   UNL     1       2.240   2.459  17.713  0.00  0.00    +0.000 A 
ATOM     17  C   UNL     1       1.336   2.085  18.669  0.00  0.00    +0.000 A 
ATOM     18  C   UNL     1       0.999   3.068  19.565  0.00  0.00    +0.000 A 
ATOM     19  N   UNL     1       1.529   4.308  19.552  0.00  0.00    +0.000 NA
ENDBRANCH   4   7
BRANCH   1  22
ATOM     20  C   UNL     1      -1.241  12.412  20.029  0.00  0.00    +0.000 C 
ATOM     21  N   UNL     1      -0.689  11.146  19.562  0.00  0.00    +0.000 N 
ATOM     22  C   UNL     1       0.466  10.706  20.243  0.00  0.00    +0.000 C 
ATOM     23  O   UNL     1       0.933  11.342  21.192  0.00  0.00    +0.000 OA
BRANCH  21  24
ATOM     24  C   UNL     1      -1.416  10.331  18.583  0.00  0.00    +0.000 C 
BRANCH  24  25
ATOM     25  C   UNL     1      -2.380  11.023  17.624  0.00  0.00    +0.000 C 
BRANCH  25  26
ATOM     26  C   UNL     1      -3.818  10.586  17.914  0.00  0.00    +0.000 C 
BRANCH  26  27
ATOM     27  C   UNL     1      -4.748  11.794  17.946  0.00  0.00    +0.000 C 
BRANCH  27  28
ATOM     28  C   UNL     1      -6.210  11.366  17.890  0.00  0.00    +0.000 C 
BRANCH  28  29
ATOM     29  C   UNL     1      -6.928  11.723  19.188  0.00  0.00    +0.000 C 
BRANCH  29  30
ATOM     30  C   UNL     1      -7.307  10.492  19.978  0.00  0.00    +0.000 C 
ATOM     31  O   UNL     1      -7.404  10.449  21.202  0.00  0.00    +0.000 OA
ATOM     32  N   UNL     1      -7.548   9.392  19.192  0.00  0.00    +0.000 N 
ATOM     33  H   UNL     1      -7.246   9.307  18.228  0.00  0.00    +0.000 HD
BRANCH  32  34
ATOM     34  O   UNL     1      -7.813   8.191  19.889  0.00  0.00    +0.000 OA
ATOM     35  H   UNL     1      -8.636   7.875  19.454  0.00  0.00    +0.000 HD
ENDBRANCH  32  34
ENDBRANCH  29  30
ENDBRANCH  28  29
ENDBRANCH  27  28
ENDBRANCH  26  27
ENDBRANCH  25  26
ENDBRANCH  24  25
ENDBRANCH  21  24
ENDBRANCH   1  22
TORSDOF 10
ENDMDL
MODEL 4
REMARK VINA RESULT:      -8.7      3.153      3.878
REMARK  Name = 
REMARK  11 active torsions:
REMARK  status: ('A' for Active; 'I' for Inactive)
REMARK    1  A    between atoms: C_1  and  N_2
REMARK    2  A    between atoms: N_2  and  C_3
REMARK    3  A    between atoms: C_3  and  C_4
REMARK    4  A    between atoms: C_4  and  C_5
REMARK    5  A    between atoms: C_5  and  C_6
REMARK    6  A    between atoms: C_6  and  C_7
REMARK    7  A    between atoms: C_7  and  C_8
REMARK    8  A    between atoms: C_8  and  C_9
REMARK    9  A    between atoms: N_11  and  O_12
REMARK   10  A    between atoms: C_13  and  C_15
REMARK   11  A    between atoms: C_18  and  N_19
REMARK                            x       y       z     vdW  Elec       q    Type
REMARK                         _______ _______ _______ _____ _____    ______ ____
ROOT
ATOM      1  C   UNL     1       1.021   9.575  19.310  0.00  0.00    +0.000 A 
ATOM      2  C   UNL     1       1.506   9.277  18.035  0.00  0.00    +0.000 A 
ATOM      3  C   UNL     1       2.146   8.058  17.776  0.00  0.00    +0.000 A 
ATOM      4  C   UNL     1       2.417   7.140  18.801  0.00  0.00    +0.000 A 
ATOM      5  C   UNL     1       2.007   7.491  20.101  0.00  0.00    +0.000 A 
ATOM      6  C   UNL     1       1.305   8.684  20.349  0.00  0.00    +0.000 A 
ENDROOT
BRANCH   4   7
ATOM      7  N   UNL     1       3.114   5.917  18.530  0.00  0.00    +0.000 N 
ATOM      8  C   UNL     1       4.496   5.898  18.179  0.00  0.00    +0.000 A 
ATOM      9  N   UNL     1       5.238   4.809  18.490  0.00  0.00    +0.000 NA
ATOM     10  C   UNL     1       6.511   4.752  18.067  0.00  0.00    +0.000 A 
ATOM     11  C   UNL     1       7.112   5.767  17.372  0.00  0.00    +0.000 A 
ATOM     12  C   UNL     1       6.323   6.865  17.145  0.00  0.00    +0.000 A 
ATOM     13  N   UNL     1       5.039   6.959  17.541  0.00  0.00    +0.000 NA
ATOM     14  C   UNL     1       2.444   4.653  18.554  0.00  0.00    +0.000 A 
ATOM     15  N   UNL     1       2.816   3.689  17.681  0.00  0.00    +0.000 NA
ATOM     16  C   UNL     1       2.270   2.468  17.800  0.00  0.00    +0.000 A 
ATOM     17  C   UNL     1       1.325   2.157  18.737  0.00  0.00    +0.000 A 
ATOM     18  C   UNL     1       0.940   3.201  19.540  0.00  0.00    +0.000 A 
ATOM     19  N   UNL     1       1.461   4.442  19.459  0.00  0.00    +0.000 NA
ENDBRANCH   4   7
BRANCH   1  22
ATOM     20  C   UNL     1      -1.535  12.422  19.441  0.00  0.00    +0.000 C 
ATOM     21  N   UNL     1      -0.953  11.148  19.038  0.00  0.00    +0.000 N 
ATOM     22  C   UNL     1       0.289  10.839  19.633  0.00  0.00    +0.000 C 
ATOM     23  O   UNL     1       0.805  11.588  20.467  0.00  0.00    +0.000 OA
BRANCH  21  24
ATOM     24  C   UNL     1      -1.719  10.203  18.218  0.00  0.00    +0.000 C 
BRANCH  24  25
ATOM     25  C   UNL     1      -2.857  10.738  17.354  0.00  0.00    +0.000 C 
BRANCH  25  26
ATOM     26  C   UNL     1      -4.205  10.448  18.017  0.00  0.00    +0.000 C 
BRANCH  26  27
ATOM     27  C   UNL     1      -4.904  11.747  18.399  0.00  0.00    +0.000 C 
BRANCH  27  28
ATOM     28  C   UNL     1      -6.403  11.534  18.582  0.00  0.00    +0.000 C 
BRANCH  28  29
ATOM     29  C   UNL     1      -6.716  10.058  18.809  0.00  0.00    +0.000 C 
BRANCH  29  30
ATOM     30  C   UNL     1      -7.185   9.795  20.221  0.00  0.00    +0.000 C 
ATOM     31  O   UNL     1      -7.377   8.678  20.697  0.00  0.00    +0.000 OA
ATOM     32  N   UNL     1      -7.378  10.940  20.955  0.00  0.00    +0.000 N 
ATOM     33  H   UNL     1      -7.475  11.863  20.549  0.00  0.00    +0.000 HD
BRANCH  32  34
ATOM     34  O   UNL     1      -7.907  10.751  22.252  0.00  0.00    +0.000 OA
ATOM     35  H   UNL     1      -8.849  11.004  22.131  0.00  0.00    +0.000 HD
ENDBRANCH  32  34
ENDBRANCH  29  30
ENDBRANCH  28  29
ENDBRANCH  27  28
ENDBRANCH  26  27
ENDBRANCH  25  26
ENDBRANCH  24  25
ENDBRANCH  21  24
ENDBRANCH   1  22
TORSDOF 10
ENDMDL
MODEL 5
REMARK VINA RESULT:      -8.7      2.991      3.424
REMARK  Name = 
REMARK  11 active torsions:
REMARK  status: ('A' for Active; 'I' for Inactive)
REMARK    1  A    between atoms: C_1  and  N_2
REMARK    2  A    between atoms: N_2  and  C_3
REMARK    3  A    between atoms: C_3  and  C_4
REMARK    4  A    between atoms: C_4  and  C_5
REMARK    5  A    between atoms: C_5  and  C_6
REMARK    6  A    between atoms: C_6  and  C_7
REMARK    7  A    between atoms: C_7  and  C_8
REMARK    8  A    between atoms: C_8  and  C_9
REMARK    9  A    between atoms: N_11  and  O_12
REMARK   10  A    between atoms: C_13  and  C_15
REMARK   11  A    between atoms: C_18  and  N_19
REMARK                            x       y       z     vdW  Elec       q    Type
REMARK                         _______ _______ _______ _____ _____    ______ ____
ROOT
ATOM      1  C   UNL     1       1.372   9.792  19.024  0.00  0.00    +0.000 A 
ATOM      2  C   UNL     1       2.025   9.459  17.837  0.00  0.00    +0.000 A 
ATOM      3  C   UNL     1       2.560   8.178  17.646  0.00  0.00    +0.000 A 
ATOM      4  C   UNL     1       2.555   7.221  18.671  0.00  0.00    +0.000 A 
ATOM      5  C   UNL     1       1.976   7.599  19.898  0.00  0.00    +0.000 A 
ATOM      6  C   UNL     1       1.380   8.860  20.066  0.00  0.00    +0.000 A 
ENDROOT
BRANCH   4   7
ATOM      7  N   UNL     1       3.147   5.930  18.477  0.00  0.00    +0.000 N 
ATOM      8  C   UNL     1       4.491   5.777  18.024  0.00  0.00    +0.000 A 
ATOM      9  N   UNL     1       5.186   4.674  18.390  0.00  0.00    +0.000 NA
ATOM     10  C   UNL     1       6.412   4.485  17.879  0.00  0.00    +0.000 A 
ATOM     11  C   UNL     1       7.016   5.379  17.037  0.00  0.00    +0.000 A 
ATOM     12  C   UNL     1       6.283   6.503  16.757  0.00  0.00    +0.000 A 
ATOM     13  N   UNL     1       5.045   6.728  17.239  0.00  0.00    +0.000 NA
ATOM     14  C   UNL     1       2.403   4.727  18.685  0.00  0.00    +0.000 A 
ATOM     15  N   UNL     1       2.639   3.656  17.892  0.00  0.00    +0.000 NA
ATOM     16  C   UNL     1       2.028   2.495  18.179  0.00  0.00    +0.000 A 
ATOM     17  C   UNL     1       1.146   2.348  19.215  0.00  0.00    +0.000 A 
ATOM     18  C   UNL     1       0.898   3.491  19.931  0.00  0.00    +0.000 A 
ATOM     19  N   UNL     1       1.487   4.677  19.680  0.00  0.00    +0.000 NA
ENDBRANCH   4   7
BRANCH   1  22
ATOM     20  C   UNL     1      -0.880  12.885  18.872  0.00  0.00    +0.000 C 
ATOM     21  N   UNL     1      -0.389  11.555  18.535  0.00  0.00    +0.000 N 
ATOM     22  C   UNL     1       0.740  11.128  19.266  0.00  0.00    +0.000 C 
ATOM     23  O   UNL     1       1.234  11.828  20.153  0.00  0.00    +0.000 OA
BRANCH  21  24
ATOM     24  C   UNL     1      -1.151  10.684  17.633  0.00  0.00    +0.000 C 
BRANCH  24  25
ATOM     25  C   UNL     1      -2.221   9.772  18.226  0.00  0.00    +0.000 C 
BRANCH  25  26
ATOM     26  C   UNL     1      -3.505   9.858  17.399  0.00  0.00    +0.000 C 
BRANCH  26  27
ATOM     27  C   UNL     1      -4.152  11.229  17.555  0.00  0.00    +0.000 C 
BRANCH  27  28
ATOM     28  C   UNL     1      -5.657  11.109  17.764  0.00  0.00    +0.000 C 
BRANCH  28  29
ATOM     29  C   UNL     1      -6.042  11.529  19.179  0.00  0.00    +0.000 C 
BRANCH  29  30
ATOM     30  C   UNL     1      -6.882  10.477  19.868  0.00  0.00    +0.000 C 
ATOM     31  O   UNL     1      -7.255  10.536  21.037  0.00  0.00    +0.000 OA
ATOM     32  N   UNL     1      -7.212   9.422  19.052  0.00  0.00    +0.000 N 
ATOM     33  H   UNL     1      -6.736   9.206  18.184  0.00  0.00    +0.000 HD
BRANCH  32  34
ATOM     34  O   UNL     1      -7.916   8.367  19.676  0.00  0.00    +0.000 OA
ATOM     35  H   UNL     1      -7.188   7.823  20.049  0.00  0.00    +0.000 HD
ENDBRANCH  32  34
ENDBRANCH  29  30
ENDBRANCH  28  29
ENDBRANCH  27  28
ENDBRANCH  26  27
ENDBRANCH  25  26
ENDBRANCH  24  25
ENDBRANCH  21  24
ENDBRANCH   1  22
TORSDOF 10
ENDMDL
MODEL 6
REMARK VINA RESULT:      -8.6      0.838      3.260
REMARK  Name = 
REMARK  11 active torsions:
REMARK  status: ('A' for Active; 'I' for Inactive)
REMARK    1  A    between atoms: C_1  and  N_2
REMARK    2  A    between atoms: N_2  and  C_3
REMARK    3  A    between atoms: C_3  and  C_4
REMARK    4  A    between atoms: C_4  and  C_5
REMARK    5  A    between atoms: C_5  and  C_6
REMARK    6  A    between atoms: C_6  and  C_7
REMARK    7  A    between atoms: C_7  and  C_8
REMARK    8  A    between atoms: C_8  and  C_9
REMARK    9  A    between atoms: N_11  and  O_12
REMARK   10  A    between atoms: C_13  and  C_15
REMARK   11  A    between atoms: C_18  and  N_19
REMARK                            x       y       z     vdW  Elec       q    Type
REMARK                         _______ _______ _______ _____ _____    ______ ____
ROOT
ATOM      1  C   UNL     1       1.117   9.386  20.157  0.00  0.00    +0.000 A 
ATOM      2  C   UNL     1       1.619   9.299  18.858  0.00  0.00    +0.000 A 
ATOM      3  C   UNL     1       2.198   8.112  18.389  0.00  0.00    +0.000 A 
ATOM      4  C   UNL     1       2.391   7.008  19.233  0.00  0.00    +0.000 A 
ATOM      5  C   UNL     1       1.966   7.139  20.568  0.00  0.00    +0.000 A 
ATOM      6  C   UNL     1       1.324   8.306  21.019  0.00  0.00    +0.000 A 
ENDROOT
BRANCH   4   7
ATOM      7  N   UNL     1       3.026   5.816  18.752  0.00  0.00    +0.000 N 
ATOM      8  C   UNL     1       2.363   4.553  18.759  0.00  0.00    +0.000 A 
ATOM      9  N   UNL     1       2.702   3.627  17.831  0.00  0.00    +0.000 NA
ATOM     10  C   UNL     1       2.150   2.406  17.905  0.00  0.00    +0.000 A 
ATOM     11  C   UNL     1       1.223   2.063  18.851  0.00  0.00    +0.000 A 
ATOM     12  C   UNL     1       0.879   3.065  19.722  0.00  0.00    +0.000 A 
ATOM     13  N   UNL     1       1.416   4.300  19.691  0.00  0.00    +0.000 NA
ATOM     14  C   UNL     1       4.376   5.825  18.280  0.00  0.00    +0.000 A 
ATOM     15  N   UNL     1       5.164   4.748  18.505  0.00  0.00    +0.000 NA
ATOM     16  C   UNL     1       6.385   4.716  17.947  0.00  0.00    +0.000 A 
ATOM     17  C   UNL     1       6.891   5.737  17.191  0.00  0.00    +0.000 A 
ATOM     18  C   UNL     1       6.068   6.828  17.066  0.00  0.00    +0.000 A 
ATOM     19  N   UNL     1       4.836   6.904  17.606  0.00  0.00    +0.000 NA
ENDBRANCH   4   7
BRANCH   1  22
ATOM     20  C   UNL     1      -1.213  12.376  20.697  0.00  0.00    +0.000 C 
ATOM     21  N   UNL     1      -0.681  11.176  20.063  0.00  0.00    +0.000 N 
ATOM     22  C   UNL     1       0.447  10.611  20.696  0.00  0.00    +0.000 C 
ATOM     23  O   UNL     1       0.906  11.090  21.736  0.00  0.00    +0.000 OA
BRANCH  21  24
ATOM     24  C   UNL     1      -1.405  10.530  18.963  0.00  0.00    +0.000 C 
BRANCH  24  25
ATOM     25  C   UNL     1      -2.345  11.375  18.109  0.00  0.00    +0.000 C 
BRANCH  25  26
ATOM     26  C   UNL     1      -3.168  10.476  17.182  0.00  0.00    +0.000 C 
BRANCH  26  27
ATOM     27  C   UNL     1      -2.796  10.726  15.726  0.00  0.00    +0.000 C 
BRANCH  27  28
ATOM     28  C   UNL     1      -3.804  10.082  14.781  0.00  0.00    +0.000 C 
BRANCH  28  29
ATOM     29  C   UNL     1      -3.210   9.918  13.385  0.00  0.00    +0.000 C 
BRANCH  29  30
ATOM     30  C   UNL     1      -4.269   9.579  12.361  0.00  0.00    +0.000 C 
ATOM     31  O   UNL     1      -4.065   9.474  11.154  0.00  0.00    +0.000 OA
ATOM     32  N   UNL     1      -5.514   9.383  12.907  0.00  0.00    +0.000 N 
ATOM     33  H   UNL     1      -5.782   9.694  13.834  0.00  0.00    +0.000 HD
BRANCH  32  34
ATOM     34  O   UNL     1      -6.557   9.156  11.981  0.00  0.00    +0.000 OA
ATOM     35  H   UNL     1      -6.109   8.617  11.291  0.00  0.00    +0.000 HD
ENDBRANCH  32  34
ENDBRANCH  29  30
ENDBRANCH  28  29
ENDBRANCH  27  28
ENDBRANCH  26  27
ENDBRANCH  25  26
ENDBRANCH  24  25
ENDBRANCH  21  24
ENDBRANCH   1  22
TORSDOF 10
ENDMDL
MODEL 7
REMARK VINA RESULT:      -8.6      2.959      3.964
REMARK  Name = 
REMARK  11 active torsions:
REMARK  status: ('A' for Active; 'I' for Inactive)
REMARK    1  A    between atoms: C_1  and  N_2
REMARK    2  A    between atoms: N_2  and  C_3
REMARK    3  A    between atoms: C_3  and  C_4
REMARK    4  A    between atoms: C_4  and  C_5
REMARK    5  A    between atoms: C_5  and  C_6
REMARK    6  A    between atoms: C_6  and  C_7
REMARK    7  A    between atoms: C_7  and  C_8
REMARK    8  A    between atoms: C_8  and  C_9
REMARK    9  A    between atoms: N_11  and  O_12
REMARK   10  A    between atoms: C_13  and  C_15
REMARK   11  A    between atoms: C_18  and  N_19
REMARK                            x       y       z     vdW  Elec       q    Type
REMARK                         _______ _______ _______ _____ _____    ______ ____
ROOT
ATOM      1  C   UNL     1       1.145   9.532  19.088  0.00  0.00    +0.000 A 
ATOM      2  C   UNL     1       1.340   8.619  20.126  0.00  0.00    +0.000 A 
ATOM      3  C   UNL     1       2.082   7.449  19.924  0.00  0.00    +0.000 A 
ATOM      4  C   UNL     1       2.566   7.098  18.655  0.00  0.00    +0.000 A 
ATOM      5  C   UNL     1       2.285   7.980  17.595  0.00  0.00    +0.000 A 
ATOM      6  C   UNL     1       1.598   9.187  17.812  0.00  0.00    +0.000 A 
ENDROOT
BRANCH   4   7
ATOM      7  N   UNL     1       3.286   5.874  18.453  0.00  0.00    +0.000 N 
ATOM      8  C   UNL     1       4.687   5.858  18.186  0.00  0.00    +0.000 A 
ATOM      9  N   UNL     1       5.416   4.783  18.565  0.00  0.00    +0.000 NA
ATOM     10  C   UNL     1       6.712   4.727  18.220  0.00  0.00    +0.000 A 
ATOM     11  C   UNL     1       7.346   5.730  17.538  0.00  0.00    +0.000 A 
ATOM     12  C   UNL     1       6.565   6.817  17.240  0.00  0.00    +0.000 A 
ATOM     13  N   UNL     1       5.259   6.909  17.556  0.00  0.00    +0.000 NA
ATOM     14  C   UNL     1       2.625   4.606  18.468  0.00  0.00    +0.000 A 
ATOM     15  N   UNL     1       3.055   3.625  17.641  0.00  0.00    +0.000 NA
ATOM     16  C   UNL     1       2.511   2.402  17.755  0.00  0.00    +0.000 A 
ATOM     17  C   UNL     1       1.513   2.105  18.642  0.00  0.00    +0.000 A 
ATOM     18  C   UNL     1       1.075   3.164  19.396  0.00  0.00    +0.000 A 
ATOM     19  N   UNL     1       1.591   4.407  19.318  0.00  0.00    +0.000 NA
ENDBRANCH   4   7
BRANCH   1  22
ATOM     20  C   UNL     1      -1.361  12.410  18.773  0.00  0.00    +0.000 C 
ATOM     21  N   UNL     1      -0.758  11.109  18.508  0.00  0.00    +0.000 N 
ATOM     22  C   UNL     1       0.402  10.820  19.258  0.00  0.00    +0.000 C 
ATOM     23  O   UNL     1       0.832  11.608  20.104  0.00  0.00    +0.000 OA
BRANCH  21  24
ATOM     24  C   UNL     1      -1.442  10.129  17.658  0.00  0.00    +0.000 C 
BRANCH  24  25
ATOM     25  C   UNL     1      -2.962  10.026  17.735  0.00  0.00    +0.000 C 
BRANCH  25  26
ATOM     26  C   UNL     1      -3.598  10.674  16.503  0.00  0.00    +0.000 C 
BRANCH  26  27
ATOM     27  C   UNL     1      -4.784  11.543  16.907  0.00  0.00    +0.000 C 
BRANCH  27  28
ATOM     28  C   UNL     1      -5.451  11.010  18.171  0.00  0.00    +0.000 C 
BRANCH  28  29
ATOM     29  C   UNL     1      -5.601  12.116  19.211  0.00  0.00    +0.000 C 
BRANCH  29  30
ATOM     30  C   UNL     1      -6.567  11.730  20.306  0.00  0.00    +0.000 C 
ATOM     31  O   UNL     1      -7.658  11.196  20.119  0.00  0.00    +0.000 OA
ATOM     32  N   UNL     1      -6.111  12.026  21.568  0.00  0.00    +0.000 N 
ATOM     33  H   UNL     1      -5.356  12.674  21.759  0.00  0.00    +0.000 HD
BRANCH  32  34
ATOM     34  O   UNL     1      -7.019  11.770  22.620  0.00  0.00    +0.000 OA
ATOM     35  H   UNL     1      -6.477  11.228  23.236  0.00  0.00    +0.000 HD
ENDBRANCH  32  34
ENDBRANCH  29  30
ENDBRANCH  28  29
ENDBRANCH  27  28
ENDBRANCH  26  27
ENDBRANCH  25  26
ENDBRANCH  24  25
ENDBRANCH  21  24
ENDBRANCH   1  22
TORSDOF 10
ENDMDL
MODEL 8
REMARK VINA RESULT:      -8.6      0.700      1.253
REMARK  Name = 
REMARK  11 active torsions:
REMARK  status: ('A' for Active; 'I' for Inactive)
REMARK    1  A    between atoms: C_1  and  N_2
REMARK    2  A    between atoms: N_2  and  C_3
REMARK    3  A    between atoms: C_3  and  C_4
REMARK    4  A    between atoms: C_4  and  C_5
REMARK    5  A    between atoms: C_5  and  C_6
REMARK    6  A    between atoms: C_6  and  C_7
REMARK    7  A    between atoms: C_7  and  C_8
REMARK    8  A    between atoms: C_8  and  C_9
REMARK    9  A    between atoms: N_11  and  O_12
REMARK   10  A    between atoms: C_13  and  C_15
REMARK   11  A    between atoms: C_18  and  N_19
REMARK                            x       y       z     vdW  Elec       q    Type
REMARK                         _______ _______ _______ _____ _____    ______ ____
ROOT
ATOM      1  C   UNL     1       1.163   9.350  19.798  0.00  0.00    +0.000 A 
ATOM      2  C   UNL     1       1.419   8.315  20.699  0.00  0.00    +0.000 A 
ATOM      3  C   UNL     1       2.139   7.180  20.304  0.00  0.00    +0.000 A 
ATOM      4  C   UNL     1       2.537   6.990  18.973  0.00  0.00    +0.000 A 
ATOM      5  C   UNL     1       2.193   7.998  18.051  0.00  0.00    +0.000 A 
ATOM      6  C   UNL     1       1.529   9.167  18.461  0.00  0.00    +0.000 A 
ENDROOT
BRANCH   4   7
ATOM      7  N   UNL     1       3.233   5.802  18.573  0.00  0.00    +0.000 N 
ATOM      8  C   UNL     1       4.599   5.831  18.163  0.00  0.00    +0.000 A 
ATOM      9  N   UNL     1       5.366   4.732  18.353  0.00  0.00    +0.000 NA
ATOM     10  C   UNL     1       6.619   4.728  17.873  0.00  0.00    +0.000 A 
ATOM     11  C   UNL     1       7.178   5.803  17.236  0.00  0.00    +0.000 A 
ATOM     12  C   UNL     1       6.368   6.904  17.132  0.00  0.00    +0.000 A 
ATOM     13  N   UNL     1       5.102   6.948  17.590  0.00  0.00    +0.000 NA
ATOM     14  C   UNL     1       2.580   4.532  18.525  0.00  0.00    +0.000 A 
ATOM     15  N   UNL     1       2.923   3.645  17.562  0.00  0.00    +0.000 NA
ATOM     16  C   UNL     1       2.396   2.411  17.605  0.00  0.00    +0.000 A 
ATOM     17  C   UNL     1       1.496   2.013  18.555  0.00  0.00    +0.000 A 
ATOM     18  C   UNL     1       1.136   2.984  19.455  0.00  0.00    +0.000 A 
ATOM     19  N   UNL     1       1.639   4.234  19.452  0.00  0.00    +0.000 NA
ENDBRANCH   4   7
BRANCH   1  22
ATOM     20  C   UNL     1      -1.293  12.282  19.956  0.00  0.00    +0.000 C 
ATOM     21  N   UNL     1      -0.712  11.032  19.482  0.00  0.00    +0.000 N 
ATOM     22  C   UNL     1       0.441  10.605  20.175  0.00  0.00    +0.000 C 
ATOM     23  O   UNL     1       0.882  11.237  21.138  0.00  0.00    +0.000 OA
BRANCH  21  24
ATOM     24  C   UNL     1      -1.409  10.216  18.483  0.00  0.00    +0.000 C 
BRANCH  24  25
ATOM     25  C   UNL     1      -2.243  10.918  17.416  0.00  0.00    +0.000 C 
BRANCH  25  26
ATOM     26  C   UNL     1      -3.191   9.920  16.745  0.00  0.00    +0.000 C 
BRANCH  26  27
ATOM     27  C   UNL     1      -2.784   9.687  15.295  0.00  0.00    +0.000 C 
BRANCH  27  28
ATOM     28  C   UNL     1      -3.871  10.157  14.335  0.00  0.00    +0.000 C 
BRANCH  28  29
ATOM     29  C   UNL     1      -3.446   9.935  12.887  0.00  0.00    +0.000 C 
BRANCH  29  30
ATOM     30  C   UNL     1      -4.599   9.465  12.030  0.00  0.00    +0.000 C 
ATOM     31  O   UNL     1      -4.501   9.118  10.855  0.00  0.00    +0.000 OA
ATOM     32  N   UNL     1      -5.802   9.449  12.694  0.00  0.00    +0.000 N 
ATOM     33  H   UNL     1      -5.979   9.948  13.558  0.00  0.00    +0.000 HD
BRANCH  32  34
ATOM     34  O   UNL     1      -6.927   9.107  11.909  0.00  0.00    +0.000 OA
ATOM     35  H   UNL     1      -6.668   8.232  11.544  0.00  0.00    +0.000 HD
ENDBRANCH  32  34
ENDBRANCH  29  30
ENDBRANCH  28  29
ENDBRANCH  27  28
ENDBRANCH  26  27
ENDBRANCH  25  26
ENDBRANCH  24  25
ENDBRANCH  21  24
ENDBRANCH   1  22
TORSDOF 10
ENDMDL
MODEL 9
REMARK VINA RESULT:      -8.5      3.121      3.621
REMARK  Name = 
REMARK  11 active torsions:
REMARK  status: ('A' for Active; 'I' for Inactive)
REMARK    1  A    between atoms: C_1  and  N_2
REMARK    2  A    between atoms: N_2  and  C_3
REMARK    3  A    between atoms: C_3  and  C_4
REMARK    4  A    between atoms: C_4  and  C_5
REMARK    5  A    between atoms: C_5  and  C_6
REMARK    6  A    between atoms: C_6  and  C_7
REMARK    7  A    between atoms: C_7  and  C_8
REMARK    8  A    between atoms: C_8  and  C_9
REMARK    9  A    between atoms: N_11  and  O_12
REMARK   10  A    between atoms: C_13  and  C_15
REMARK   11  A    between atoms: C_18  and  N_19
REMARK                            x       y       z     vdW  Elec       q    Type
REMARK                         _______ _______ _______ _____ _____    ______ ____
ROOT
ATOM      1  C   UNL     1       1.086   9.606  19.286  0.00  0.00    +0.000 A 
ATOM      2  C   UNL     1       1.564   9.316  18.007  0.00  0.00    +0.000 A 
ATOM      3  C   UNL     1       2.197   8.097  17.735  0.00  0.00    +0.000 A 
ATOM      4  C   UNL     1       2.469   7.170  18.752  0.00  0.00    +0.000 A 
ATOM      5  C   UNL     1       2.066   7.512  20.057  0.00  0.00    +0.000 A 
ATOM      6  C   UNL     1       1.371   8.706  20.317  0.00  0.00    +0.000 A 
ENDROOT
BRANCH   4   7
ATOM      7  N   UNL     1       3.159   5.945  18.468  0.00  0.00    +0.000 N 
ATOM      8  C   UNL     1       4.537   5.923  18.101  0.00  0.00    +0.000 A 
ATOM      9  N   UNL     1       5.279   4.831  18.399  0.00  0.00    +0.000 NA
ATOM     10  C   UNL     1       6.547   4.773  17.963  0.00  0.00    +0.000 A 
ATOM     11  C   UNL     1       7.143   5.788  17.265  0.00  0.00    +0.000 A 
ATOM     12  C   UNL     1       6.355   6.890  17.051  0.00  0.00    +0.000 A 
ATOM     13  N   UNL     1       5.076   6.986  17.461  0.00  0.00    +0.000 NA
ATOM     14  C   UNL     1       2.486   4.684  18.495  0.00  0.00    +0.000 A 
ATOM     15  N   UNL     1       2.846   3.721  17.614  0.00  0.00    +0.000 NA
ATOM     16  C   UNL     1       2.297   2.501  17.734  0.00  0.00    +0.000 A 
ATOM     17  C   UNL     1       1.362   2.190  18.681  0.00  0.00    +0.000 A 
ATOM     18  C   UNL     1       0.989   3.231  19.492  0.00  0.00    +0.000 A 
ATOM     19  N   UNL     1       1.512   4.471  19.410  0.00  0.00    +0.000 NA
ENDBRANCH   4   7
BRANCH   1  22
ATOM     20  C   UNL     1      -1.514  12.403  19.553  0.00  0.00    +0.000 C 
ATOM     21  N   UNL     1      -0.947  11.121  19.154  0.00  0.00    +0.000 N 
ATOM     22  C   UNL     1       0.361  10.871  19.623  0.00  0.00    +0.000 C 
ATOM     23  O   UNL     1       0.946  11.675  20.354  0.00  0.00    +0.000 OA
BRANCH  21  24
ATOM     24  C   UNL     1      -1.773  10.117  18.476  0.00  0.00    +0.000 C 
BRANCH  24  25
ATOM     25  C   UNL     1      -1.969  10.228  16.967  0.00  0.00    +0.000 C 
BRANCH  25  26
ATOM     26  C   UNL     1      -3.448  10.455  16.642  0.00  0.00    +0.000 C 
BRANCH  26  27
ATOM     27  C   UNL     1      -4.253  10.651  17.921  0.00  0.00    +0.000 C 
BRANCH  27  28
ATOM     28  C   UNL     1      -5.629  11.236  17.622  0.00  0.00    +0.000 C 
BRANCH  28  29
ATOM     29  C   UNL     1      -6.676  10.671  18.577  0.00  0.00    +0.000 C 
BRANCH  29  30
ATOM     30  C   UNL     1      -6.915  11.588  19.754  0.00  0.00    +0.000 C 
ATOM     31  O   UNL     1      -6.552  11.357  20.905  0.00  0.00    +0.000 OA
ATOM     32  N   UNL     1      -7.585  12.740  19.422  0.00  0.00    +0.000 N 
ATOM     33  H   UNL     1      -8.113  12.862  18.566  0.00  0.00    +0.000 HD
BRANCH  32  34
ATOM     34  O   UNL     1      -7.916  13.587  20.505  0.00  0.00    +0.000 OA
ATOM     35  H   UNL     1      -8.060  14.450  20.058  0.00  0.00    +0.000 HD
ENDBRANCH  32  34
ENDBRANCH  29  30
ENDBRANCH  28  29
ENDBRANCH  27  28
ENDBRANCH  26  27
ENDBRANCH  25  26
ENDBRANCH  24  25
ENDBRANCH  21  24
ENDBRANCH   1  22
TORSDOF 10
ENDMDL
