MODEL 1
REMARK VINA RESULT:      -7.0      0.000      0.000
REMARK  Name = 
REMARK  9 active torsions:
REMARK  status: ('A' for Active; 'I' for Inactive)
REMARK    1  A    between atoms: C_1  and  C_2
REMARK    2  A    between atoms: C_2  and  C_3
REMARK    3  A    between atoms: C_4  and  C_5
REMARK    4  A    between atoms: C_5  and  C_7
REMARK    5  A    between atoms: N_9  and  C_10
REMARK    6  A    between atoms: C_10  and  C_11
REMARK    7  A    between atoms: C_19  and  C_20
REMARK    8  A    between atoms: C_25  and  C_26
REMARK    9  A    between atoms: C_25  and  C_27
REMARK                            x       y       z     vdW  Elec       q    Type
REMARK                         _______ _______ _______ _____ _____    ______ ____
ROOT
ATOM      1  C   UNL     1      -0.881  11.696  20.870  0.00  0.00    +0.000 A 
ATOM      2  C   UNL     1       0.392  11.188  20.690  0.00  0.00    +0.000 A 
ATOM      3  N   UNL     1       0.475  10.602  19.462  0.00  0.00    +0.000 N 
ATOM      4  C   UNL     1      -0.708  10.779  18.780  0.00  0.00    +0.000 A 
ATOM      5  C   UNL     1      -1.072  10.405  17.475  0.00  0.00    +0.000 A 
ATOM      6  C   UNL     1      -2.351  10.747  17.019  0.00  0.00    +0.000 A 
ATOM      7  C   UNL     1      -3.239  11.437  17.846  0.00  0.00    +0.000 A 
ATOM      8  C   UNL     1      -2.864  11.801  19.146  0.00  0.00    +0.000 A 
ATOM      9  C   UNL     1      -1.581  11.469  19.639  0.00  0.00    +0.000 A 
ENDROOT
BRANCH   1  10
ATOM     10  C   UNL     1      -1.268  12.340  22.119  0.00  0.00    +0.000 C 
ATOM     11  O   UNL     1      -0.427  12.853  22.849  0.00  0.00    +0.000 OA
BRANCH  10  15
ATOM     12  C   UNL     1      -3.291  14.580  21.374  0.00  0.00    +0.000 C 
ATOM     13  C   UNL     1      -3.737  13.343  22.129  0.00  0.00    +0.000 C 
ATOM     14  C   UNL     1      -5.120  12.900  21.703  0.00  0.00    +0.000 C 
ATOM     15  C   UNL     1      -2.714  12.271  22.506  0.00  0.00    +0.000 C 
ATOM     16  C   UNL     1      -3.321  13.151  23.602  0.00  0.00    +0.000 C 
ATOM     17  C   UNL     1      -2.515  14.229  24.298  0.00  0.00    +0.000 C 
ATOM     18  C   UNL     1      -4.243  12.450  24.582  0.00  0.00    +0.000 C 
ENDBRANCH  10  15
ENDBRANCH   1  10
BRANCH   6  19
ATOM     19  C   UNL     1      -2.742  10.390  15.687  0.00  0.00    +0.000 C 
ATOM     20  N   UNL     1      -3.055  10.109  14.609  0.00  0.00    +0.000 NA
ENDBRANCH   6  19
BRANCH   3  21
ATOM     21  C   UNL     1       1.680   9.968  18.952  0.00  0.00    +0.000 C 
BRANCH  21  22
ATOM     22  C   UNL     1       1.609   8.428  18.888  0.00  0.00    +0.000 C 
ATOM     23  C   UNL     1       1.716   7.804  20.292  0.00  0.00    +0.000 C 
ATOM     24  C   UNL     1       2.109   6.336  20.272  0.00  0.00    +0.000 C 
ATOM     25  O   UNL     1       3.276   6.146  19.479  0.00  0.00    +0.000 OA
ATOM     26  C   UNL     1       3.023   6.446  18.112  0.00  0.00    +0.000 C 
ATOM     27  C   UNL     1       2.712   7.924  17.942  0.00  0.00    +0.000 C 
ENDBRANCH  21  22
ENDBRANCH   3  21
TORSDOF 5
ENDMDL
MODEL 2
REMARK VINA RESULT:      -7.0      2.875      8.114
REMARK  Name = 
REMARK  9 active torsions:
REMARK  status: ('A' for Active; 'I' for Inactive)
REMARK    1  A    between atoms: C_1  and  C_2
REMARK    2  A    between atoms: C_2  and  C_3
REMARK    3  A    between atoms: C_4  and  C_5
REMARK    4  A    between atoms: C_5  and  C_7
REMARK    5  A    between atoms: N_9  and  C_10
REMARK    6  A    between atoms: C_10  and  C_11
REMARK    7  A    between atoms: C_19  and  C_20
REMARK    8  A    between atoms: C_25  and  C_26
REMARK    9  A    between atoms: C_25  and  C_27
REMARK                            x       y       z     vdW  Elec       q    Type
REMARK                         _______ _______ _______ _____ _____    ______ ____
ROOT
ATOM      1  C   UNL     1       1.953   8.190  18.666  0.00  0.00    +0.000 A 
ATOM      2  C   UNL     1       1.366   8.933  17.659  0.00  0.00    +0.000 A 
ATOM      3  N   UNL     1       0.414   9.749  18.196  0.00  0.00    +0.000 N 
ATOM      4  C   UNL     1       0.409   9.620  19.567  0.00  0.00    +0.000 A 
ATOM      5  C   UNL     1      -0.350  10.290  20.542  0.00  0.00    +0.000 A 
ATOM      6  C   UNL     1      -0.124   9.978  21.888  0.00  0.00    +0.000 A 
ATOM      7  C   UNL     1       0.829   9.024  22.246  0.00  0.00    +0.000 A 
ATOM      8  C   UNL     1       1.576   8.361  21.263  0.00  0.00    +0.000 A 
ATOM      9  C   UNL     1       1.370   8.649  19.894  0.00  0.00    +0.000 A 
ENDROOT
BRANCH   1  10
ATOM     10  C   UNL     1       2.979   7.197  18.373  0.00  0.00    +0.000 C 
ATOM     11  O   UNL     1       3.776   7.368  17.457  0.00  0.00    +0.000 OA
BRANCH  10  15
ATOM     12  C   UNL     1       4.230   4.550  17.330  0.00  0.00    +0.000 C 
ATOM     13  C   UNL     1       3.590   4.625  18.702  0.00  0.00    +0.000 C 
ATOM     14  C   UNL     1       4.336   3.777  19.711  0.00  0.00    +0.000 C 
ATOM     15  C   UNL     1       2.958   5.933  19.177  0.00  0.00    +0.000 C 
ATOM     16  C   UNL     1       2.057   4.745  18.828  0.00  0.00    +0.000 C 
ATOM     17  C   UNL     1       1.200   4.731  17.578  0.00  0.00    +0.000 C 
ATOM     18  C   UNL     1       1.323   4.104  19.992  0.00  0.00    +0.000 C 
ENDBRANCH  10  15
ENDBRANCH   1  10
BRANCH   6  19
ATOM     19  C   UNL     1      -0.873  10.658  22.904  0.00  0.00    +0.000 C 
ATOM     20  N   UNL     1      -1.473  11.213  23.724  0.00  0.00    +0.000 NA
ENDBRANCH   6  19
BRANCH   3  21
ATOM     21  C   UNL     1      -0.395  10.666  17.411  0.00  0.00    +0.000 C 
BRANCH  21  22
ATOM     22  C   UNL     1      -1.899  10.319  17.380  0.00  0.00    +0.000 C 
ATOM     23  C   UNL     1      -2.403  10.145  15.936  0.00  0.00    +0.000 C 
ATOM     24  C   UNL     1      -3.913  10.260  15.806  0.00  0.00    +0.000 C 
ATOM     25  O   UNL     1      -4.375  11.455  16.426  0.00  0.00    +0.000 OA
ATOM     26  C   UNL     1      -4.159  11.421  17.832  0.00  0.00    +0.000 C 
ATOM     27  C   UNL     1      -2.671  11.411  18.139  0.00  0.00    +0.000 C 
ENDBRANCH  21  22
ENDBRANCH   3  21
TORSDOF 5
ENDMDL
MODEL 3
REMARK VINA RESULT:      -7.0      2.435      3.604
REMARK  Name = 
REMARK  9 active torsions:
REMARK  status: ('A' for Active; 'I' for Inactive)
REMARK    1  A    between atoms: C_1  and  C_2
REMARK    2  A    between atoms: C_2  and  C_3
REMARK    3  A    between atoms: C_4  and  C_5
REMARK    4  A    between atoms: C_5  and  C_7
REMARK    5  A    between atoms: N_9  and  C_10
REMARK    6  A    between atoms: C_10  and  C_11
REMARK    7  A    between atoms: C_19  and  C_20
REMARK    8  A    between atoms: C_25  and  C_26
REMARK    9  A    between atoms: C_25  and  C_27
REMARK                            x       y       z     vdW  Elec       q    Type
REMARK                         _______ _______ _______ _____ _____    ______ ____
ROOT
ATOM      1  C   UNL     1      -4.031  12.811  20.177  0.00  0.00    +0.000 A 
ATOM      2  C   UNL     1      -2.761  12.622  20.690  0.00  0.00    +0.000 A 
ATOM      3  N   UNL     1      -2.011  11.921  19.792  0.00  0.00    +0.000 N 
ATOM      4  C   UNL     1      -2.740  11.704  18.644  0.00  0.00    +0.000 A 
ATOM      5  C   UNL     1      -2.377  11.083  17.438  0.00  0.00    +0.000 A 
ATOM      6  C   UNL     1      -3.324  11.027  16.408  0.00  0.00    +0.000 A 
ATOM      7  C   UNL     1      -4.596  11.572  16.583  0.00  0.00    +0.000 A 
ATOM      8  C   UNL     1      -4.947  12.186  17.793  0.00  0.00    +0.000 A 
ATOM      9  C   UNL     1      -4.016  12.256  18.855  0.00  0.00    +0.000 A 
ENDROOT
BRANCH   1  10
ATOM     10  C   UNL     1      -5.063  13.493  20.948  0.00  0.00    +0.000 C 
ATOM     11  O   UNL     1      -5.063  14.716  21.054  0.00  0.00    +0.000 OA
BRANCH  10  15
ATOM     12  C   UNL     1      -7.808  12.744  19.697  0.00  0.00    +0.000 C 
ATOM     13  C   UNL     1      -7.405  12.229  21.064  0.00  0.00    +0.000 C 
ATOM     14  C   UNL     1      -7.897  10.816  21.294  0.00  0.00    +0.000 C 
ATOM     15  C   UNL     1      -6.060  12.637  21.666  0.00  0.00    +0.000 C 
ATOM     16  C   UNL     1      -7.353  13.197  22.264  0.00  0.00    +0.000 C 
ATOM     17  C   UNL     1      -7.760  14.645  22.075  0.00  0.00    +0.000 C 
ATOM     18  C   UNL     1      -7.701  12.718  23.662  0.00  0.00    +0.000 C 
ENDBRANCH  10  15
ENDBRANCH   1  10
BRANCH   6  19
ATOM     19  C   UNL     1      -2.973  10.414  15.161  0.00  0.00    +0.000 C 
ATOM     20  N   UNL     1      -2.691   9.911  14.157  0.00  0.00    +0.000 NA
ENDBRANCH   6  19
BRANCH   3  21
ATOM     21  C   UNL     1      -0.623  11.552  20.016  0.00  0.00    +0.000 C 
BRANCH  21  22
ATOM     22  C   UNL     1      -0.434  10.288  20.881  0.00  0.00    +0.000 C 
ATOM     23  C   UNL     1      -0.510  10.621  22.382  0.00  0.00    +0.000 C 
ATOM     24  C   UNL     1       0.107   9.552  23.270  0.00  0.00    +0.000 C 
ATOM     25  O   UNL     1       1.424   9.240  22.827  0.00  0.00    +0.000 OA
ATOM     26  C   UNL     1       1.403   8.637  21.538  0.00  0.00    +0.000 C 
ATOM     27  C   UNL     1       0.901   9.626  20.499  0.00  0.00    +0.000 C 
ENDBRANCH  21  22
ENDBRANCH   3  21
TORSDOF 5
ENDMDL
MODEL 4
REMARK VINA RESULT:      -7.0      2.832      8.114
REMARK  Name = 
REMARK  9 active torsions:
REMARK  status: ('A' for Active; 'I' for Inactive)
REMARK    1  A    between atoms: C_1  and  C_2
REMARK    2  A    between atoms: C_2  and  C_3
REMARK    3  A    between atoms: C_4  and  C_5
REMARK    4  A    between atoms: C_5  and  C_7
REMARK    5  A    between atoms: N_9  and  C_10
REMARK    6  A    between atoms: C_10  and  C_11
REMARK    7  A    between atoms: C_19  and  C_20
REMARK    8  A    between atoms: C_25  and  C_26
REMARK    9  A    between atoms: C_25  and  C_27
REMARK                            x       y       z     vdW  Elec       q    Type
REMARK                         _______ _______ _______ _____ _____    ______ ____
ROOT
ATOM      1  C   UNL     1       1.775   8.089  18.662  0.00  0.00    +0.000 A 
ATOM      2  C   UNL     1       1.209   8.837  17.647  0.00  0.00    +0.000 A 
ATOM      3  N   UNL     1       0.316   9.719  18.179  0.00  0.00    +0.000 N 
ATOM      4  C   UNL     1       0.332   9.627  19.553  0.00  0.00    +0.000 A 
ATOM      5  C   UNL     1      -0.366  10.363  20.524  0.00  0.00    +0.000 A 
ATOM      6  C   UNL     1      -0.130  10.075  21.874  0.00  0.00    +0.000 A 
ATOM      7  C   UNL     1       0.775   9.078  22.239  0.00  0.00    +0.000 A 
ATOM      8  C   UNL     1       1.463   8.348  21.260  0.00  0.00    +0.000 A 
ATOM      9  C   UNL     1       1.245   8.612  19.888  0.00  0.00    +0.000 A 
ENDROOT
BRANCH   1  10
ATOM     10  C   UNL     1       2.737   7.032  18.376  0.00  0.00    +0.000 C 
ATOM     11  O   UNL     1       3.923   7.292  18.200  0.00  0.00    +0.000 OA
BRANCH  10  15
ATOM     12  C   UNL     1       2.605   5.036  20.755  0.00  0.00    +0.000 C 
ATOM     13  C   UNL     1       2.097   4.649  19.380  0.00  0.00    +0.000 C 
ATOM     14  C   UNL     1       0.867   3.771  19.469  0.00  0.00    +0.000 C 
ATOM     15  C   UNL     1       2.201   5.642  18.222  0.00  0.00    +0.000 C 
ATOM     16  C   UNL     1       3.099   4.402  18.234  0.00  0.00    +0.000 C 
ATOM     17  C   UNL     1       4.587   4.495  18.507  0.00  0.00    +0.000 C 
ATOM     18  C   UNL     1       2.812   3.364  17.164  0.00  0.00    +0.000 C 
ENDBRANCH  10  15
ENDBRANCH   1  10
BRANCH   6  19
ATOM     19  C   UNL     1      -0.818  10.822  22.885  0.00  0.00    +0.000 C 
ATOM     20  N   UNL     1      -1.380  11.421  23.701  0.00  0.00    +0.000 NA
ENDBRANCH   6  19
BRANCH   3  21
ATOM     21  C   UNL     1      -0.457  10.661  17.386  0.00  0.00    +0.000 C 
BRANCH  21  22
ATOM     22  C   UNL     1      -1.969  10.356  17.334  0.00  0.00    +0.000 C 
ATOM     23  C   UNL     1      -2.469  10.250  15.882  0.00  0.00    +0.000 C 
ATOM     24  C   UNL     1      -3.975  10.410  15.749  0.00  0.00    +0.000 C 
ATOM     25  O   UNL     1      -4.408  11.594  16.412  0.00  0.00    +0.000 OA
ATOM     26  C   UNL     1      -4.202  11.501  17.816  0.00  0.00    +0.000 C 
ATOM     27  C   UNL     1      -2.716  11.439  18.130  0.00  0.00    +0.000 C 
ENDBRANCH  21  22
ENDBRANCH   3  21
TORSDOF 5
ENDMDL
MODEL 5
REMARK VINA RESULT:      -7.0      3.848      6.593
REMARK  Name = 
REMARK  9 active torsions:
REMARK  status: ('A' for Active; 'I' for Inactive)
REMARK    1  A    between atoms: C_1  and  C_2
REMARK    2  A    between atoms: C_2  and  C_3
REMARK    3  A    between atoms: C_4  and  C_5
REMARK    4  A    between atoms: C_5  and  C_7
REMARK    5  A    between atoms: N_9  and  C_10
REMARK    6  A    between atoms: C_10  and  C_11
REMARK    7  A    between atoms: C_19  and  C_20
REMARK    8  A    between atoms: C_25  and  C_26
REMARK    9  A    between atoms: C_25  and  C_27
REMARK                            x       y       z     vdW  Elec       q    Type
REMARK                         _______ _______ _______ _____ _____    ______ ____
ROOT
ATOM      1  C   UNL     1       2.532   8.116  18.138  0.00  0.00    +0.000 A 
ATOM      2  C   UNL     1       3.319   7.588  17.131  0.00  0.00    +0.000 A 
ATOM      3  N   UNL     1       3.720   6.333  17.483  0.00  0.00    +0.000 N 
ATOM      4  C   UNL     1       3.145   5.979  18.683  0.00  0.00    +0.000 A 
ATOM      5  C   UNL     1       3.216   4.778  19.408  0.00  0.00    +0.000 A 
ATOM      6  C   UNL     1       2.493   4.680  20.603  0.00  0.00    +0.000 A 
ATOM      7  C   UNL     1       1.726   5.753  21.059  0.00  0.00    +0.000 A 
ATOM      8  C   UNL     1       1.666   6.947  20.328  0.00  0.00    +0.000 A 
ATOM      9  C   UNL     1       2.387   7.080  19.119  0.00  0.00    +0.000 A 
ENDROOT
BRANCH   1  10
ATOM     10  C   UNL     1       2.001   9.470  18.049  0.00  0.00    +0.000 C 
ATOM     11  O   UNL     1       2.695  10.393  17.635  0.00  0.00    +0.000 OA
BRANCH  10  15
ATOM     12  C   UNL     1       0.838  12.321  18.483  0.00  0.00    +0.000 C 
ATOM     13  C   UNL     1       0.004  11.085  18.760  0.00  0.00    +0.000 C 
ATOM     14  C   UNL     1      -1.446  11.297  18.380  0.00  0.00    +0.000 C 
ATOM     15  C   UNL     1       0.612   9.696  18.564  0.00  0.00    +0.000 C 
ATOM     16  C   UNL     1       0.326  10.200  19.981  0.00  0.00    +0.000 C 
ATOM     17  C   UNL     1       1.441  10.605  20.926  0.00  0.00    +0.000 C 
ATOM     18  C   UNL     1      -0.781   9.482  20.731  0.00  0.00    +0.000 C 
ENDBRANCH  10  15
ENDBRANCH   1  10
BRANCH   6  19
ATOM     19  C   UNL     1       2.536   3.460  21.355  0.00  0.00    +0.000 C 
ATOM     20  N   UNL     1       2.573   2.471  21.955  0.00  0.00    +0.000 NA
ENDBRANCH   6  19
BRANCH   3  21
ATOM     21  C   UNL     1       4.561   5.492  16.646  0.00  0.00    +0.000 C 
BRANCH  21  22
ATOM     22  C   UNL     1       6.074   5.660  16.896  0.00  0.00    +0.000 C 
ATOM     23  C   UNL     1       6.562   4.733  18.024  0.00  0.00    +0.000 C 
ATOM     24  C   UNL     1       7.892   5.159  18.624  0.00  0.00    +0.000 C 
ATOM     25  O   UNL     1       7.850   6.532  18.999  0.00  0.00    +0.000 OA
ATOM     26  C   UNL     1       7.708   7.372  17.860  0.00  0.00    +0.000 C 
ATOM     27  C   UNL     1       6.362   7.142  17.195  0.00  0.00    +0.000 C 
ENDBRANCH  21  22
ENDBRANCH   3  21
TORSDOF 5
ENDMDL
MODEL 6
REMARK VINA RESULT:      -7.0      2.353      3.713
REMARK  Name = 
REMARK  9 active torsions:
REMARK  status: ('A' for Active; 'I' for Inactive)
REMARK    1  A    between atoms: C_1  and  C_2
REMARK    2  A    between atoms: C_2  and  C_3
REMARK    3  A    between atoms: C_4  and  C_5
REMARK    4  A    between atoms: C_5  and  C_7
REMARK    5  A    between atoms: N_9  and  C_10
REMARK    6  A    between atoms: C_10  and  C_11
REMARK    7  A    between atoms: C_19  and  C_20
REMARK    8  A    between atoms: C_25  and  C_26
REMARK    9  A    between atoms: C_25  and  C_27
REMARK                            x       y       z     vdW  Elec       q    Type
REMARK                         _______ _______ _______ _____ _____    ______ ____
ROOT
ATOM      1  C   UNL     1      -4.197  12.499  20.723  0.00  0.00    +0.000 A 
ATOM      2  C   UNL     1      -2.879  12.698  21.088  0.00  0.00    +0.000 A 
ATOM      3  N   UNL     1      -2.063  12.284  20.077  0.00  0.00    +0.000 N 
ATOM      4  C   UNL     1      -2.821  11.879  19.001  0.00  0.00    +0.000 A 
ATOM      5  C   UNL     1      -2.431  11.429  17.729  0.00  0.00    +0.000 A 
ATOM      6  C   UNL     1      -3.431  11.108  16.802  0.00  0.00    +0.000 A 
ATOM      7  C   UNL     1      -4.778  11.231  17.141  0.00  0.00    +0.000 A 
ATOM      8  C   UNL     1      -5.154  11.678  18.415  0.00  0.00    +0.000 A 
ATOM      9  C   UNL     1      -4.170  12.007  19.376  0.00  0.00    +0.000 A 
ENDROOT
BRANCH   1  10
ATOM     10  C   UNL     1      -5.290  12.813  21.635  0.00  0.00    +0.000 C 
ATOM     11  O   UNL     1      -6.335  12.171  21.608  0.00  0.00    +0.000 OA
BRANCH  10  15
ATOM     12  C   UNL     1      -4.317  12.525  24.573  0.00  0.00    +0.000 C 
ATOM     13  C   UNL     1      -4.608  13.888  23.975  0.00  0.00    +0.000 C 
ATOM     14  C   UNL     1      -3.637  14.935  24.479  0.00  0.00    +0.000 C 
ATOM     15  C   UNL     1      -5.112  13.996  22.536  0.00  0.00    +0.000 C 
ATOM     16  C   UNL     1      -6.065  14.307  23.693  0.00  0.00    +0.000 C 
ATOM     17  C   UNL     1      -7.198  13.373  24.068  0.00  0.00    +0.000 C 
ATOM     18  C   UNL     1      -6.494  15.756  23.828  0.00  0.00    +0.000 C 
ENDBRANCH  10  15
ENDBRANCH   1  10
BRANCH   6  19
ATOM     19  C   UNL     1      -3.059  10.662  15.492  0.00  0.00    +0.000 C 
ATOM     20  N   UNL     1      -2.759  10.308  14.432  0.00  0.00    +0.000 NA
ENDBRANCH   6  19
BRANCH   3  21
ATOM     21  C   UNL     1      -0.612  12.354  20.133  0.00  0.00    +0.000 C 
BRANCH  21  22
ATOM     22  C   UNL     1       0.045  11.247  20.984  0.00  0.00    +0.000 C 
ATOM     23  C   UNL     1      -0.048   9.877  20.288  0.00  0.00    +0.000 C 
ATOM     24  C   UNL     1       0.152   8.704  21.234  0.00  0.00    +0.000 C 
ATOM     25  O   UNL     1      -0.709   8.825  22.361  0.00  0.00    +0.000 OA
ATOM     26  C   UNL     1      -0.366   9.957  23.151  0.00  0.00    +0.000 C 
ATOM     27  C   UNL     1      -0.613  11.239  22.374  0.00  0.00    +0.000 C 
ENDBRANCH  21  22
ENDBRANCH   3  21
TORSDOF 5
ENDMDL
MODEL 7
REMARK VINA RESULT:      -7.0      3.806      6.631
REMARK  Name = 
REMARK  9 active torsions:
REMARK  status: ('A' for Active; 'I' for Inactive)
REMARK    1  A    between atoms: C_1  and  C_2
REMARK    2  A    between atoms: C_2  and  C_3
REMARK    3  A    between atoms: C_4  and  C_5
REMARK    4  A    between atoms: C_5  and  C_7
REMARK    5  A    between atoms: N_9  and  C_10
REMARK    6  A    between atoms: C_10  and  C_11
REMARK    7  A    between atoms: C_19  and  C_20
REMARK    8  A    between atoms: C_25  and  C_26
REMARK    9  A    between atoms: C_25  and  C_27
REMARK                            x       y       z     vdW  Elec       q    Type
REMARK                         _______ _______ _______ _____ _____    ______ ____
ROOT
ATOM      1  C   UNL     1       2.563   8.135  18.259  0.00  0.00    +0.000 A 
ATOM      2  C   UNL     1       3.336   7.587  17.252  0.00  0.00    +0.000 A 
ATOM      3  N   UNL     1       3.660   6.303  17.580  0.00  0.00    +0.000 N 
ATOM      4  C   UNL     1       3.046   5.955  18.763  0.00  0.00    +0.000 A 
ATOM      5  C   UNL     1       3.039   4.736  19.460  0.00  0.00    +0.000 A 
ATOM      6  C   UNL     1       2.292   4.652  20.642  0.00  0.00    +0.000 A 
ATOM      7  C   UNL     1       1.579   5.755  21.112  0.00  0.00    +0.000 A 
ATOM      8  C   UNL     1       1.598   6.967  20.408  0.00  0.00    +0.000 A 
ATOM      9  C   UNL     1       2.345   7.087  19.213  0.00  0.00    +0.000 A 
ENDROOT
BRANCH   1  10
ATOM     10  C   UNL     1       2.110   9.519  18.194  0.00  0.00    +0.000 C 
ATOM     11  O   UNL     1       2.338  10.210  17.207  0.00  0.00    +0.000 OA
BRANCH  10  15
ATOM     12  C   UNL     1      -0.923  10.200  18.244  0.00  0.00    +0.000 C 
ATOM     13  C   UNL     1      -0.057  10.393  19.473  0.00  0.00    +0.000 C 
ATOM     14  C   UNL     1      -0.812  10.060  20.743  0.00  0.00    +0.000 C 
ATOM     15  C   UNL     1       1.437  10.076  19.411  0.00  0.00    +0.000 C 
ATOM     16  C   UNL     1       0.980  11.534  19.510  0.00  0.00    +0.000 C 
ATOM     17  C   UNL     1       1.086  12.487  18.335  0.00  0.00    +0.000 C 
ATOM     18  C   UNL     1       1.304  12.246  20.811  0.00  0.00    +0.000 C 
ENDBRANCH  10  15
ENDBRANCH   1  10
BRANCH   6  19
ATOM     19  C   UNL     1       2.255   3.414  21.365  0.00  0.00    +0.000 C 
ATOM     20  N   UNL     1       2.232   2.416  21.950  0.00  0.00    +0.000 NA
ENDBRANCH   6  19
BRANCH   3  21
ATOM     21  C   UNL     1       4.466   5.436  16.737  0.00  0.00    +0.000 C 
BRANCH  21  22
ATOM     22  C   UNL     1       5.988   5.599  16.930  0.00  0.00    +0.000 C 
ATOM     23  C   UNL     1       6.502   4.726  18.089  0.00  0.00    +0.000 C 
ATOM     24  C   UNL     1       7.855   5.167  18.624  0.00  0.00    +0.000 C 
ATOM     25  O   UNL     1       7.838   6.558  18.928  0.00  0.00    +0.000 OA
ATOM     26  C   UNL     1       7.669   7.339  17.751  0.00  0.00    +0.000 C 
ATOM     27  C   UNL     1       6.300   7.090  17.141  0.00  0.00    +0.000 C 
ENDBRANCH  21  22
ENDBRANCH   3  21
TORSDOF 5
ENDMDL
MODEL 8
REMARK VINA RESULT:      -6.9      3.514      6.520
REMARK  Name = 
REMARK  9 active torsions:
REMARK  status: ('A' for Active; 'I' for Inactive)
REMARK    1  A    between atoms: C_1  and  C_2
REMARK    2  A    between atoms: C_2  and  C_3
REMARK    3  A    between atoms: C_4  and  C_5
REMARK    4  A    between atoms: C_5  and  C_7
REMARK    5  A    between atoms: N_9  and  C_10
REMARK    6  A    between atoms: C_10  and  C_11
REMARK    7  A    between atoms: C_19  and  C_20
REMARK    8  A    between atoms: C_25  and  C_26
REMARK    9  A    between atoms: C_25  and  C_27
REMARK                            x       y       z     vdW  Elec       q    Type
REMARK                         _______ _______ _______ _____ _____    ______ ____
ROOT
ATOM      1  C   UNL     1       1.926   8.347  18.736  0.00  0.00    +0.000 A 
ATOM      2  C   UNL     1       2.823   8.436  17.688  0.00  0.00    +0.000 A 
ATOM      3  N   UNL     1       3.621   7.331  17.682  0.00  0.00    +0.000 N 
ATOM      4  C   UNL     1       3.218   6.459  18.669  0.00  0.00    +0.000 A 
ATOM      5  C   UNL     1       3.695   5.181  19.006  0.00  0.00    +0.000 A 
ATOM      6  C   UNL     1       3.069   4.493  20.052  0.00  0.00    +0.000 A 
ATOM      7  C   UNL     1       2.001   5.069  20.741  0.00  0.00    +0.000 A 
ATOM      8  C   UNL     1       1.536   6.345  20.396  0.00  0.00    +0.000 A 
ATOM      9  C   UNL     1       2.150   7.069  19.348  0.00  0.00    +0.000 A 
ENDROOT
BRANCH   1  10
ATOM     10  C   UNL     1       0.976   9.418  19.011  0.00  0.00    +0.000 C 
ATOM     11  O   UNL     1       0.209   9.817  18.141  0.00  0.00    +0.000 OA
BRANCH  10  15
ATOM     12  C   UNL     1      -0.811   8.478  21.375  0.00  0.00    +0.000 C 
ATOM     13  C   UNL     1       0.194   9.599  21.552  0.00  0.00    +0.000 C 
ATOM     14  C   UNL     1       0.838   9.557  22.921  0.00  0.00    +0.000 C 
ATOM     15  C   UNL     1       1.040  10.059  20.364  0.00  0.00    +0.000 C 
ATOM     16  C   UNL     1      -0.066  10.973  20.900  0.00  0.00    +0.000 C 
ATOM     17  C   UNL     1      -1.352  11.205  20.133  0.00  0.00    +0.000 C 
ATOM     18  C   UNL     1       0.397  12.251  21.574  0.00  0.00    +0.000 C 
ENDBRANCH  10  15
ENDBRANCH   1  10
BRANCH   6  19
ATOM     19  C   UNL     1       3.526   3.182  20.406  0.00  0.00    +0.000 C 
ATOM     20  N   UNL     1       3.901   2.124  20.688  0.00  0.00    +0.000 NA
ENDBRANCH   6  19
BRANCH   3  21
ATOM     21  C   UNL     1       4.676   7.105  16.707  0.00  0.00    +0.000 C 
BRANCH  21  22
ATOM     22  C   UNL     1       5.360   5.727  16.821  0.00  0.00    +0.000 C 
ATOM     23  C   UNL     1       6.696   5.826  17.581  0.00  0.00    +0.000 C 
ATOM     24  C   UNL     1       7.619   4.644  17.338  0.00  0.00    +0.000 C 
ATOM     25  O   UNL     1       7.779   4.419  15.941  0.00  0.00    +0.000 OA
ATOM     26  C   UNL     1       6.553   4.019  15.341  0.00  0.00    +0.000 C 
ATOM     27  C   UNL     1       5.538   5.147  15.407  0.00  0.00    +0.000 C 
ENDBRANCH  21  22
ENDBRANCH   3  21
TORSDOF 5
ENDMDL
MODEL 9
REMARK VINA RESULT:      -6.9      4.198      9.067
REMARK  Name = 
REMARK  9 active torsions:
REMARK  status: ('A' for Active; 'I' for Inactive)
REMARK    1  A    between atoms: C_1  and  C_2
REMARK    2  A    between atoms: C_2  and  C_3
REMARK    3  A    between atoms: C_4  and  C_5
REMARK    4  A    between atoms: C_5  and  C_7
REMARK    5  A    between atoms: N_9  and  C_10
REMARK    6  A    between atoms: C_10  and  C_11
REMARK    7  A    between atoms: C_19  and  C_20
REMARK    8  A    between atoms: C_25  and  C_26
REMARK    9  A    between atoms: C_25  and  C_27
REMARK                            x       y       z     vdW  Elec       q    Type
REMARK                         _______ _______ _______ _____ _____    ______ ____
ROOT
ATOM      1  C   UNL     1       3.514   6.734  18.029  0.00  0.00    +0.000 A 
ATOM      2  C   UNL     1       3.347   5.714  18.947  0.00  0.00    +0.000 A 
ATOM      3  N   UNL     1       2.512   6.131  19.940  0.00  0.00    +0.000 N 
ATOM      4  C   UNL     1       2.050   7.398  19.659  0.00  0.00    +0.000 A 
ATOM      5  C   UNL     1       1.136   8.209  20.352  0.00  0.00    +0.000 A 
ATOM      6  C   UNL     1       0.819   9.462  19.813  0.00  0.00    +0.000 A 
ATOM      7  C   UNL     1       1.403   9.891  18.620  0.00  0.00    +0.000 A 
ATOM      8  C   UNL     1       2.316   9.073  17.941  0.00  0.00    +0.000 A 
ATOM      9  C   UNL     1       2.660   7.803  18.460  0.00  0.00    +0.000 A 
ENDROOT
BRANCH   1  10
ATOM     10  C   UNL     1       4.397   6.580  16.881  0.00  0.00    +0.000 C 
ATOM     11  O   UNL     1       4.311   7.332  15.916  0.00  0.00    +0.000 OA
BRANCH  10  15
ATOM     12  C   UNL     1       7.478   6.960  17.051  0.00  0.00    +0.000 C 
ATOM     13  C   UNL     1       6.862   5.576  17.008  0.00  0.00    +0.000 C 
ATOM     14  C   UNL     1       7.623   4.601  17.881  0.00  0.00    +0.000 C 
ATOM     15  C   UNL     1       5.345   5.420  16.896  0.00  0.00    +0.000 C 
ATOM     16  C   UNL     1       6.230   5.057  15.700  0.00  0.00    +0.000 C 
ATOM     17  C   UNL     1       6.279   5.918  14.453  0.00  0.00    +0.000 C 
ATOM     18  C   UNL     1       6.291   3.584  15.341  0.00  0.00    +0.000 C 
ENDBRANCH  10  15
ENDBRANCH   1  10
BRANCH   6  19
ATOM     19  C   UNL     1      -0.122  10.303  20.492  0.00  0.00    +0.000 C 
ATOM     20  N   UNL     1      -0.881  10.988  21.036  0.00  0.00    +0.000 NA
ENDBRANCH   6  19
BRANCH   3  21
ATOM     21  C   UNL     1       2.123   5.301  21.068  0.00  0.00    +0.000 C 
BRANCH  21  22
ATOM     22  C   UNL     1       1.911   3.813  20.718  0.00  0.00    +0.000 C 
ATOM     23  C   UNL     1       3.217   3.162  20.228  0.00  0.00    +0.000 C 
ATOM     24  C   UNL     1       2.995   1.875  19.450  0.00  0.00    +0.000 C 
ATOM     25  O   UNL     1       2.042   2.080  18.413  0.00  0.00    +0.000 OA
ATOM     26  C   UNL     1       0.757   2.377  18.947  0.00  0.00    +0.000 C 
ATOM     27  C   UNL     1       0.782   3.709  19.678  0.00  0.00    +0.000 C 
ENDBRANCH  21  22
ENDBRANCH   3  21
TORSDOF 5
ENDMDL
