MODEL 1
REMARK VINA RESULT:      -7.2      0.000      0.000
REMARK  Name = 
REMARK  8 active torsions:
REMARK  status: ('A' for Active; 'I' for Inactive)
REMARK    1  A    between atoms: C_1  and  C_2
REMARK    2  A    between atoms: C_2  and  N_3
REMARK    3  A    between atoms: C_4  and  S_5
REMARK    4  A    between atoms: S_5  and  C_6
REMARK    5  A    between atoms: C_6  and  C_7
REMARK    6  A    between atoms: N_9  and  N_10
REMARK    7  A    between atoms: C_11  and  C_12
REMARK    8  A    between atoms: C_13  and  C_14
REMARK                            x       y       z     vdW  Elec       q    Type
REMARK                         _______ _______ _______ _____ _____    ______ ____
ROOT
ATOM      1  C   UNL     1       5.406   4.414  18.926  0.00  0.00    +0.000 C 
ENDROOT
BRANCH   1   2
ATOM      2  C   UNL     1       6.311   5.052  17.878  0.00  0.00    +0.000 C 
ATOM      3  O   UNL     1       6.576   6.254  17.918  0.00  0.00    +0.000 OA
ATOM      4  N   UNL     1       6.689   4.201  16.848  0.00  0.00    +0.000 N 
ATOM      5  H   UNL     1       6.409   3.226  16.876  0.00  0.00    +0.000 HD
BRANCH   4   6
ATOM      6  N   UNL     1       7.518   4.631  15.853  0.00  0.00    +0.000 NA
ATOM      7  C   UNL     1       6.938   4.814  14.712  0.00  0.00    +0.000 C 
BRANCH   7   8
ATOM      8  C   UNL     1       7.695   5.247  13.518  0.00  0.00    +0.000 C 
ATOM      9  C   UNL     1       7.608   4.666  12.314  0.00  0.00    +0.000 C 
BRANCH   9  10
ATOM     10  C   UNL     1       6.660   3.660  11.982  0.00  0.00    +0.000 A 
ATOM     11  C   UNL     1       6.891   2.350  11.562  0.00  0.00    +0.000 A 
ATOM     12  C   UNL     1       5.636   1.752  11.294  0.00  0.00    +0.000 A 
ATOM     13  C   UNL     1       4.698   2.716  11.549  0.00  0.00    +0.000 A 
ATOM     14  O   UNL     1       5.297   3.854  11.973  0.00  0.00    +0.000 OA
ENDBRANCH   9  10
ENDBRANCH   7   8
ENDBRANCH   4   6
ENDBRANCH   1   2
BRANCH   1  15
ATOM     15  S   UNL     1       3.708   4.181  18.307  0.00  0.00    +0.000 S 
BRANCH  15  17
ATOM     16  N   UNL     1       2.358   6.066  19.753  0.00  0.00    +0.000 N 
ATOM     17  C   UNL     1       3.010   5.744  18.588  0.00  0.00    +0.000 A 
ATOM     18  N   UNL     1       3.025   6.745  17.742  0.00  0.00    +0.000 NA
ATOM     19  C   UNL     1       2.375   7.773  18.386  0.00  0.00    +0.000 A 
ATOM     20  C   UNL     1       2.095   9.077  17.946  0.00  0.00    +0.000 A 
ATOM     21  C   UNL     1       1.408   9.952  18.801  0.00  0.00    +0.000 A 
ATOM     22  C   UNL     1       1.018   9.541  20.076  0.00  0.00    +0.000 A 
ATOM     23  C   UNL     1       1.286   8.247  20.533  0.00  0.00    +0.000 A 
ATOM     24  C   UNL     1       1.961   7.385  19.658  0.00  0.00    +0.000 A 
BRANCH  16  26
ATOM     25  C   UNL     1       0.859   4.293  20.613  0.00  0.00    +0.000 C 
ATOM     26  C   UNL     1       2.047   5.200  20.875  0.00  0.00    +0.000 C 
ENDBRANCH  16  26
ENDBRANCH  15  17
ENDBRANCH   1  15
TORSDOF 7
ENDMDL
MODEL 2
REMARK VINA RESULT:      -6.8      2.861      7.909
REMARK  Name = 
REMARK  8 active torsions:
REMARK  status: ('A' for Active; 'I' for Inactive)
REMARK    1  A    between atoms: C_1  and  C_2
REMARK    2  A    between atoms: C_2  and  N_3
REMARK    3  A    between atoms: C_4  and  S_5
REMARK    4  A    between atoms: S_5  and  C_6
REMARK    5  A    between atoms: C_6  and  C_7
REMARK    6  A    between atoms: N_9  and  N_10
REMARK    7  A    between atoms: C_11  and  C_12
REMARK    8  A    between atoms: C_13  and  C_14
REMARK                            x       y       z     vdW  Elec       q    Type
REMARK                         _______ _______ _______ _____ _____    ______ ____
ROOT
ATOM      1  C   UNL     1       2.389   3.343  19.448  0.00  0.00    +0.000 C 
ENDROOT
BRANCH   1   2
ATOM      2  C   UNL     1       1.840   4.423  18.522  0.00  0.00    +0.000 C 
ATOM      3  O   UNL     1       1.124   4.132  17.564  0.00  0.00    +0.000 OA
ATOM      4  N   UNL     1       2.310   5.702  18.787  0.00  0.00    +0.000 N 
ATOM      5  H   UNL     1       2.918   5.858  19.585  0.00  0.00    +0.000 HD
BRANCH   4   6
ATOM      6  N   UNL     1       1.884   6.770  18.053  0.00  0.00    +0.000 NA
ATOM      7  C   UNL     1       2.368   7.909  18.428  0.00  0.00    +0.000 C 
BRANCH   7   8
ATOM      8  C   UNL     1       1.985   9.173  17.763  0.00  0.00    +0.000 C 
ATOM      9  C   UNL     1       1.206  10.114  18.313  0.00  0.00    +0.000 C 
BRANCH   9  10
ATOM     10  C   UNL     1       0.775  10.098  19.668  0.00  0.00    +0.000 A 
ATOM     11  C   UNL     1      -0.004   9.143  20.322  0.00  0.00    +0.000 A 
ATOM     12  C   UNL     1      -0.221   9.593  21.647  0.00  0.00    +0.000 A 
ATOM     13  C   UNL     1       0.421  10.799  21.744  0.00  0.00    +0.000 A 
ATOM     14  O   UNL     1       1.029  11.104  20.572  0.00  0.00    +0.000 OA
ENDBRANCH   9  10
ENDBRANCH   7   8
ENDBRANCH   4   6
ENDBRANCH   1   2
BRANCH   1  15
ATOM     15  S   UNL     1       3.804   2.467  18.706  0.00  0.00    +0.000 S 
BRANCH  15  17
ATOM     16  N   UNL     1       5.114   4.482  17.405  0.00  0.00    +0.000 N 
ATOM     17  C   UNL     1       4.971   3.742  18.553  0.00  0.00    +0.000 A 
ATOM     18  N   UNL     1       5.815   4.114  19.485  0.00  0.00    +0.000 NA
ATOM     19  C   UNL     1       6.526   5.154  18.934  0.00  0.00    +0.000 A 
ATOM     20  C   UNL     1       7.564   5.925  19.483  0.00  0.00    +0.000 A 
ATOM     21  C   UNL     1       8.138   6.945  18.709  0.00  0.00    +0.000 A 
ATOM     22  C   UNL     1       7.679   7.202  17.417  0.00  0.00    +0.000 A 
ATOM     23  C   UNL     1       6.647   6.446  16.851  0.00  0.00    +0.000 A 
ATOM     24  C   UNL     1       6.098   5.423  17.636  0.00  0.00    +0.000 A 
BRANCH  16  26
ATOM     25  C   UNL     1       5.392   3.964  15.000  0.00  0.00    +0.000 C 
ATOM     26  C   UNL     1       4.440   4.303  16.133  0.00  0.00    +0.000 C 
ENDBRANCH  16  26
ENDBRANCH  15  17
ENDBRANCH   1  15
TORSDOF 7
ENDMDL
MODEL 3
REMARK VINA RESULT:      -6.8      3.735      9.528
REMARK  Name = 
REMARK  8 active torsions:
REMARK  status: ('A' for Active; 'I' for Inactive)
REMARK    1  A    between atoms: C_1  and  C_2
REMARK    2  A    between atoms: C_2  and  N_3
REMARK    3  A    between atoms: C_4  and  S_5
REMARK    4  A    between atoms: S_5  and  C_6
REMARK    5  A    between atoms: C_6  and  C_7
REMARK    6  A    between atoms: N_9  and  N_10
REMARK    7  A    between atoms: C_11  and  C_12
REMARK    8  A    between atoms: C_13  and  C_14
REMARK                            x       y       z     vdW  Elec       q    Type
REMARK                         _______ _______ _______ _____ _____    ______ ____
ROOT
ATOM      1  C   UNL     1       1.856   8.532  17.633  0.00  0.00    +0.000 C 
ENDROOT
BRANCH   1   2
ATOM      2  C   UNL     1       1.488   9.274  18.913  0.00  0.00    +0.000 C 
ATOM      3  O   UNL     1       1.308  10.492  18.910  0.00  0.00    +0.000 OA
ATOM      4  N   UNL     1       1.496   8.487  20.057  0.00  0.00    +0.000 N 
ATOM      5  H   UNL     1       1.677   7.491  19.980  0.00  0.00    +0.000 HD
BRANCH   4   6
ATOM      6  N   UNL     1       1.163   9.014  21.271  0.00  0.00    +0.000 NA
ATOM      7  C   UNL     1      -0.071   8.836  21.615  0.00  0.00    +0.000 C 
BRANCH   7   8
ATOM      8  C   UNL     1      -0.608   9.371  22.884  0.00  0.00    +0.000 C 
ATOM      9  C   UNL     1      -0.831  10.670  23.125  0.00  0.00    +0.000 C 
BRANCH   9  10
ATOM     10  C   UNL     1      -0.734  11.691  22.140  0.00  0.00    +0.000 A 
ATOM     11  C   UNL     1      -1.715  12.147  21.260  0.00  0.00    +0.000 A 
ATOM     12  C   UNL     1      -1.129  13.132  20.428  0.00  0.00    +0.000 A 
ATOM     13  C   UNL     1       0.178  13.228  20.824  0.00  0.00    +0.000 A 
ATOM     14  O   UNL     1       0.422  12.381  21.853  0.00  0.00    +0.000 OA
ENDBRANCH   9  10
ENDBRANCH   7   8
ENDBRANCH   4   6
ENDBRANCH   1   2
BRANCH   1  15
ATOM     15  S   UNL     1       3.524   7.804  17.725  0.00  0.00    +0.000 S 
BRANCH  15  17
ATOM     16  N   UNL     1       4.061   5.124  17.716  0.00  0.00    +0.000 N 
ATOM     17  C   UNL     1       3.164   6.127  17.991  0.00  0.00    +0.000 A 
ATOM     18  N   UNL     1       2.032   5.659  18.458  0.00  0.00    +0.000 NA
ATOM     19  C   UNL     1       2.200   4.295  18.513  0.00  0.00    +0.000 A 
ATOM     20  C   UNL     1       1.307   3.293  18.928  0.00  0.00    +0.000 A 
ATOM     21  C   UNL     1       1.721   1.953  18.890  0.00  0.00    +0.000 A 
ATOM     22  C   UNL     1       3.004   1.615  18.458  0.00  0.00    +0.000 A 
ATOM     23  C   UNL     1       3.908   2.597  18.039  0.00  0.00    +0.000 A 
ATOM     24  C   UNL     1       3.470   3.928  18.072  0.00  0.00    +0.000 A 
BRANCH  16  26
ATOM     25  C   UNL     1       5.330   5.032  15.593  0.00  0.00    +0.000 C 
ATOM     26  C   UNL     1       5.367   5.235  17.096  0.00  0.00    +0.000 C 
ENDBRANCH  16  26
ENDBRANCH  15  17
ENDBRANCH   1  15
TORSDOF 7
ENDMDL
MODEL 4
REMARK VINA RESULT:      -6.8      0.856      1.004
REMARK  Name = 
REMARK  8 active torsions:
REMARK  status: ('A' for Active; 'I' for Inactive)
REMARK    1  A    between atoms: C_1  and  C_2
REMARK    2  A    between atoms: C_2  and  N_3
REMARK    3  A    between atoms: C_4  and  S_5
REMARK    4  A    between atoms: S_5  and  C_6
REMARK    5  A    between atoms: C_6  and  C_7
REMARK    6  A    between atoms: N_9  and  N_10
REMARK    7  A    between atoms: C_11  and  C_12
REMARK    8  A    between atoms: C_13  and  C_14
REMARK                            x       y       z     vdW  Elec       q    Type
REMARK                         _______ _______ _______ _____ _____    ______ ____
ROOT
ATOM      1  C   UNL     1       5.326   3.697  18.835  0.00  0.00    +0.000 C 
ENDROOT
BRANCH   1   2
ATOM      2  C   UNL     1       5.942   4.591  17.764  0.00  0.00    +0.000 C 
ATOM      3  O   UNL     1       6.718   5.498  18.066  0.00  0.00    +0.000 OA
ATOM      4  N   UNL     1       5.464   4.365  16.481  0.00  0.00    +0.000 N 
ATOM      5  H   UNL     1       4.805   3.610  16.316  0.00  0.00    +0.000 HD
BRANCH   4   6
ATOM      6  N   UNL     1       5.944   5.076  15.420  0.00  0.00    +0.000 NA
ATOM      7  C   UNL     1       6.917   4.507  14.787  0.00  0.00    +0.000 C 
BRANCH   7   8
ATOM      8  C   UNL     1       7.577   5.155  13.633  0.00  0.00    +0.000 C 
ATOM      9  C   UNL     1       7.486   4.722  12.368  0.00  0.00    +0.000 C 
BRANCH   9  10
ATOM     10  C   UNL     1       6.616   3.681  11.942  0.00  0.00    +0.000 A 
ATOM     11  C   UNL     1       5.224   3.688  11.865  0.00  0.00    +0.000 A 
ATOM     12  C   UNL     1       4.806   2.402  11.444  0.00  0.00    +0.000 A 
ATOM     13  C   UNL     1       5.951   1.666  11.293  0.00  0.00    +0.000 A 
ATOM     14  O   UNL     1       7.037   2.423  11.575  0.00  0.00    +0.000 OA
ENDBRANCH   9  10
ENDBRANCH   7   8
ENDBRANCH   4   6
ENDBRANCH   1   2
BRANCH   1  15
ATOM     15  S   UNL     1       3.539   3.454  18.572  0.00  0.00    +0.000 S 
BRANCH  15  17
ATOM     16  N   UNL     1       2.403   5.524  19.950  0.00  0.00    +0.000 N 
ATOM     17  C   UNL     1       2.930   5.067  18.766  0.00  0.00    +0.000 A 
ATOM     18  N   UNL     1       2.901   5.985  17.830  0.00  0.00    +0.000 NA
ATOM     19  C   UNL     1       2.355   7.096  18.430  0.00  0.00    +0.000 A 
ATOM     20  C   UNL     1       2.082   8.366  17.895  0.00  0.00    +0.000 A 
ATOM     21  C   UNL     1       1.513   9.346  18.723  0.00  0.00    +0.000 A 
ATOM     22  C   UNL     1       1.230   9.071  20.061  0.00  0.00    +0.000 A 
ATOM     23  C   UNL     1       1.492   7.813  20.613  0.00  0.00    +0.000 A 
ATOM     24  C   UNL     1       2.048   6.845  19.766  0.00  0.00    +0.000 A 
BRANCH  16  26
ATOM     25  C   UNL     1       1.224   3.606  20.980  0.00  0.00    +0.000 C 
ATOM     26  C   UNL     1       2.168   4.779  21.172  0.00  0.00    +0.000 C 
ENDBRANCH  16  26
ENDBRANCH  15  17
ENDBRANCH   1  15
TORSDOF 7
ENDMDL
MODEL 5
REMARK VINA RESULT:      -6.8      4.276      6.741
REMARK  Name = 
REMARK  8 active torsions:
REMARK  status: ('A' for Active; 'I' for Inactive)
REMARK    1  A    between atoms: C_1  and  C_2
REMARK    2  A    between atoms: C_2  and  N_3
REMARK    3  A    between atoms: C_4  and  S_5
REMARK    4  A    between atoms: S_5  and  C_6
REMARK    5  A    between atoms: C_6  and  C_7
REMARK    6  A    between atoms: N_9  and  N_10
REMARK    7  A    between atoms: C_11  and  C_12
REMARK    8  A    between atoms: C_13  and  C_14
REMARK                            x       y       z     vdW  Elec       q    Type
REMARK                         _______ _______ _______ _____ _____    ______ ____
ROOT
ATOM      1  C   UNL     1       1.966   8.878  17.965  0.00  0.00    +0.000 C 
ENDROOT
BRANCH   1   2
ATOM      2  C   UNL     1       2.606   7.586  18.462  0.00  0.00    +0.000 C 
ATOM      3  O   UNL     1       2.215   7.042  19.495  0.00  0.00    +0.000 OA
ATOM      4  N   UNL     1       3.707   7.170  17.726  0.00  0.00    +0.000 N 
ATOM      5  H   UNL     1       3.982   7.687  16.897  0.00  0.00    +0.000 HD
BRANCH   4   6
ATOM      6  N   UNL     1       4.364   6.016  18.043  0.00  0.00    +0.000 NA
ATOM      7  C   UNL     1       3.905   4.958  17.460  0.00  0.00    +0.000 C 
BRANCH   7   8
ATOM      8  C   UNL     1       4.479   3.619  17.715  0.00  0.00    +0.000 C 
ATOM      9  C   UNL     1       4.030   2.768  18.648  0.00  0.00    +0.000 C 
BRANCH   9  10
ATOM     10  C   UNL     1       2.844   2.969  19.405  0.00  0.00    +0.000 A 
ATOM     11  C   UNL     1       1.517   2.864  18.989  0.00  0.00    +0.000 A 
ATOM     12  C   UNL     1       0.690   3.217  20.083  0.00  0.00    +0.000 A 
ATOM     13  C   UNL     1       1.539   3.531  21.110  0.00  0.00    +0.000 A 
ATOM     14  O   UNL     1       2.826   3.374  20.721  0.00  0.00    +0.000 OA
ENDBRANCH   9  10
ENDBRANCH   7   8
ENDBRANCH   4   6
ENDBRANCH   1   2
BRANCH   1  15
ATOM     15  S   UNL     1       1.074   9.749  19.295  0.00  0.00    +0.000 S 
BRANCH  15  17
ATOM     16  N   UNL     1      -1.372  10.952  19.090  0.00  0.00    +0.000 N 
ATOM     17  C   UNL     1      -0.436  10.120  18.525  0.00  0.00    +0.000 A 
ATOM     18  N   UNL     1      -0.831   9.654  17.364  0.00  0.00    +0.000 NA
ATOM     19  C   UNL     1      -2.066  10.219  17.150  0.00  0.00    +0.000 A 
ATOM     20  C   UNL     1      -2.951  10.066  16.070  0.00  0.00    +0.000 A 
ATOM     21  C   UNL     1      -4.171  10.759  16.084  0.00  0.00    +0.000 A 
ATOM     22  C   UNL     1      -4.500  11.600  17.148  0.00  0.00    +0.000 A 
ATOM     23  C   UNL     1      -3.634  11.766  18.233  0.00  0.00    +0.000 A 
ATOM     24  C   UNL     1      -2.427  11.054  18.205  0.00  0.00    +0.000 A 
BRANCH  16  26
ATOM     25  C   UNL     1      -0.780  12.980  20.381  0.00  0.00    +0.000 C 
ATOM     26  C   UNL     1      -1.345  11.571  20.401  0.00  0.00    +0.000 C 
ENDBRANCH  16  26
ENDBRANCH  15  17
ENDBRANCH   1  15
TORSDOF 7
ENDMDL
MODEL 6
REMARK VINA RESULT:      -6.7      5.083      8.044
REMARK  Name = 
REMARK  8 active torsions:
REMARK  status: ('A' for Active; 'I' for Inactive)
REMARK    1  A    between atoms: C_1  and  C_2
REMARK    2  A    between atoms: C_2  and  N_3
REMARK    3  A    between atoms: C_4  and  S_5
REMARK    4  A    between atoms: S_5  and  C_6
REMARK    5  A    between atoms: C_6  and  C_7
REMARK    6  A    between atoms: N_9  and  N_10
REMARK    7  A    between atoms: C_11  and  C_12
REMARK    8  A    between atoms: C_13  and  C_14
REMARK                            x       y       z     vdW  Elec       q    Type
REMARK                         _______ _______ _______ _____ _____    ______ ____
ROOT
ATOM      1  C   UNL     1       5.931   6.908  17.778  0.00  0.00    +0.000 C 
ENDROOT
BRANCH   1   2
ATOM      2  C   UNL     1       7.213   7.574  17.290  0.00  0.00    +0.000 C 
ATOM      3  O   UNL     1       7.947   7.015  16.475  0.00  0.00    +0.000 OA
ATOM      4  N   UNL     1       7.517   8.771  17.924  0.00  0.00    +0.000 N 
ATOM      5  H   UNL     1       6.870   9.157  18.605  0.00  0.00    +0.000 HD
BRANCH   4   6
ATOM      6  N   UNL     1       8.623   9.489  17.572  0.00  0.00    +0.000 NA
ATOM      7  C   UNL     1       9.003  10.358  18.450  0.00  0.00    +0.000 C 
BRANCH   7   8
ATOM      8  C   UNL     1      10.164  11.243  18.215  0.00  0.00    +0.000 C 
ATOM      9  C   UNL     1      10.419  12.359  18.911  0.00  0.00    +0.000 C 
BRANCH   9  10
ATOM     10  C   UNL     1       9.699  12.756  20.071  0.00  0.00    +0.000 A 
ATOM     11  C   UNL     1       9.892  12.358  21.394  0.00  0.00    +0.000 A 
ATOM     12  C   UNL     1       8.892  12.974  22.184  0.00  0.00    +0.000 A 
ATOM     13  C   UNL     1       8.129  13.710  21.317  0.00  0.00    +0.000 A 
ATOM     14  O   UNL     1       8.609  13.597  20.055  0.00  0.00    +0.000 OA
ENDBRANCH   9  10
ENDBRANCH   7   8
ENDBRANCH   4   6
ENDBRANCH   1   2
BRANCH   1  15
ATOM     15  S   UNL     1       6.274   5.532  18.923  0.00  0.00    +0.000 S 
BRANCH  15  17
ATOM     16  N   UNL     1       4.291   3.818  18.147  0.00  0.00    +0.000 N 
ATOM     17  C   UNL     1       4.719   4.771  19.039  0.00  0.00    +0.000 A 
ATOM     18  N   UNL     1       3.817   5.025  19.956  0.00  0.00    +0.000 NA
ATOM     19  C   UNL     1       2.763   4.189  19.667  0.00  0.00    +0.000 A 
ATOM     20  C   UNL     1       1.526   4.042  20.317  0.00  0.00    +0.000 A 
ATOM     21  C   UNL     1       0.603   3.108  19.822  0.00  0.00    +0.000 A 
ATOM     22  C   UNL     1       0.910   2.326  18.708  0.00  0.00    +0.000 A 
ATOM     23  C   UNL     1       2.134   2.457  18.046  0.00  0.00    +0.000 A 
ATOM     24  C   UNL     1       3.036   3.406  18.548  0.00  0.00    +0.000 A 
BRANCH  16  26
ATOM     25  C   UNL     1       4.791   4.297  15.770  0.00  0.00    +0.000 C 
ATOM     26  C   UNL     1       4.957   3.352  16.946  0.00  0.00    +0.000 C 
ENDBRANCH  16  26
ENDBRANCH  15  17
ENDBRANCH   1  15
TORSDOF 7
ENDMDL
MODEL 7
REMARK VINA RESULT:      -6.7      3.179      8.227
REMARK  Name = 
REMARK  8 active torsions:
REMARK  status: ('A' for Active; 'I' for Inactive)
REMARK    1  A    between atoms: C_1  and  C_2
REMARK    2  A    between atoms: C_2  and  N_3
REMARK    3  A    between atoms: C_4  and  S_5
REMARK    4  A    between atoms: S_5  and  C_6
REMARK    5  A    between atoms: C_6  and  C_7
REMARK    6  A    between atoms: N_9  and  N_10
REMARK    7  A    between atoms: C_11  and  C_12
REMARK    8  A    between atoms: C_13  and  C_14
REMARK                            x       y       z     vdW  Elec       q    Type
REMARK                         _______ _______ _______ _____ _____    ______ ____
ROOT
ATOM      1  C   UNL     1       2.033   3.643  18.060  0.00  0.00    +0.000 C 
ENDROOT
BRANCH   1   2
ATOM      2  C   UNL     1       1.719   4.268  19.415  0.00  0.00    +0.000 C 
ATOM      3  O   UNL     1       1.134   3.627  20.289  0.00  0.00    +0.000 OA
ATOM      4  N   UNL     1       2.037   5.616  19.515  0.00  0.00    +0.000 N 
ATOM      5  H   UNL     1       2.498   6.081  18.739  0.00  0.00    +0.000 HD
BRANCH   4   6
ATOM      6  N   UNL     1       1.832   6.299  20.678  0.00  0.00    +0.000 NA
ATOM      7  C   UNL     1       1.528   7.546  20.523  0.00  0.00    +0.000 C 
BRANCH   7   8
ATOM      8  C   UNL     1       1.305   8.440  21.680  0.00  0.00    +0.000 C 
ATOM      9  C   UNL     1       0.876   9.706  21.587  0.00  0.00    +0.000 C 
BRANCH   9  10
ATOM     10  C   UNL     1       0.425  10.308  20.380  0.00  0.00    +0.000 A 
ATOM     11  C   UNL     1       1.011  11.341  19.650  0.00  0.00    +0.000 A 
ATOM     12  C   UNL     1       0.162  11.637  18.556  0.00  0.00    +0.000 A 
ATOM     13  C   UNL     1      -0.905  10.785  18.668  0.00  0.00    +0.000 A 
ATOM     14  O   UNL     1      -0.752   9.979  19.746  0.00  0.00    +0.000 OA
ENDBRANCH   9  10
ENDBRANCH   7   8
ENDBRANCH   4   6
ENDBRANCH   1   2
BRANCH   1  15
ATOM     15  S   UNL     1       3.532   2.608  18.121  0.00  0.00    +0.000 S 
BRANCH  15  17
ATOM     16  N   UNL     1       5.110   4.606  17.127  0.00  0.00    +0.000 N 
ATOM     17  C   UNL     1       4.786   3.804  18.195  0.00  0.00    +0.000 A 
ATOM     18  N   UNL     1       5.537   4.053  19.241  0.00  0.00    +0.000 NA
ATOM     19  C   UNL     1       6.372   5.074  18.851  0.00  0.00    +0.000 A 
ATOM     20  C   UNL     1       7.385   5.732  19.568  0.00  0.00    +0.000 A 
ATOM     21  C   UNL     1       8.109   6.757  18.940  0.00  0.00    +0.000 A 
ATOM     22  C   UNL     1       7.822   7.130  17.626  0.00  0.00    +0.000 A 
ATOM     23  C   UNL     1       6.818   6.487  16.894  0.00  0.00    +0.000 A 
ATOM     24  C   UNL     1       6.117   5.457  17.536  0.00  0.00    +0.000 A 
BRANCH  16  26
ATOM     25  C   UNL     1       5.603   4.096  14.755  0.00  0.00    +0.000 C 
ATOM     26  C   UNL     1       4.581   4.557  15.778  0.00  0.00    +0.000 C 
ENDBRANCH  16  26
ENDBRANCH  15  17
ENDBRANCH   1  15
TORSDOF 7
ENDMDL
MODEL 8
REMARK VINA RESULT:      -6.7      5.086      7.934
REMARK  Name = 
REMARK  8 active torsions:
REMARK  status: ('A' for Active; 'I' for Inactive)
REMARK    1  A    between atoms: C_1  and  C_2
REMARK    2  A    between atoms: C_2  and  N_3
REMARK    3  A    between atoms: C_4  and  S_5
REMARK    4  A    between atoms: S_5  and  C_6
REMARK    5  A    between atoms: C_6  and  C_7
REMARK    6  A    between atoms: N_9  and  N_10
REMARK    7  A    between atoms: C_11  and  C_12
REMARK    8  A    between atoms: C_13  and  C_14
REMARK                            x       y       z     vdW  Elec       q    Type
REMARK                         _______ _______ _______ _____ _____    ______ ____
ROOT
ATOM      1  C   UNL     1       7.624   6.149  18.743  0.00  0.00    +0.000 C 
ENDROOT
BRANCH   1   2
ATOM      2  C   UNL     1       7.830   7.429  17.940  0.00  0.00    +0.000 C 
ATOM      3  O   UNL     1       7.637   7.451  16.724  0.00  0.00    +0.000 OA
ATOM      4  N   UNL     1       8.353   8.489  18.669  0.00  0.00    +0.000 N 
ATOM      5  H   UNL     1       8.507   8.384  19.667  0.00  0.00    +0.000 HD
BRANCH   4   6
ATOM      6  N   UNL     1       8.567   9.702  18.083  0.00  0.00    +0.000 NA
ATOM      7  C   UNL     1       9.622  10.323  18.501  0.00  0.00    +0.000 C 
BRANCH   7   8
ATOM      8  C   UNL     1       9.985  11.664  17.996  0.00  0.00    +0.000 C 
ATOM      9  C   UNL     1       9.824  12.802  18.685  0.00  0.00    +0.000 C 
BRANCH   9  10
ATOM     10  C   UNL     1       9.434  12.857  20.051  0.00  0.00    +0.000 A 
ATOM     11  C   UNL     1      10.090  12.335  21.165  0.00  0.00    +0.000 A 
ATOM     12  C   UNL     1       9.285  12.588  22.302  0.00  0.00    +0.000 A 
ATOM     13  C   UNL     1       8.174  13.242  21.838  0.00  0.00    +0.000 A 
ATOM     14  O   UNL     1       8.259  13.419  20.498  0.00  0.00    +0.000 OA
ENDBRANCH   9  10
ENDBRANCH   7   8
ENDBRANCH   4   6
ENDBRANCH   1   2
BRANCH   1  15
ATOM     15  S   UNL     1       6.849   4.837  17.744  0.00  0.00    +0.000 S 
BRANCH  15  17
ATOM     16  N   UNL     1       4.389   5.360  18.813  0.00  0.00    +0.000 N 
ATOM     17  C   UNL     1       5.430   4.474  18.673  0.00  0.00    +0.000 A 
ATOM     18  N   UNL     1       5.214   3.357  19.325  0.00  0.00    +0.000 NA
ATOM     19  C   UNL     1       3.972   3.506  19.897  0.00  0.00    +0.000 A 
ATOM     20  C   UNL     1       3.243   2.623  20.710  0.00  0.00    +0.000 A 
ATOM     21  C   UNL     1       1.979   3.013  21.177  0.00  0.00    +0.000 A 
ATOM     22  C   UNL     1       1.443   4.253  20.832  0.00  0.00    +0.000 A 
ATOM     23  C   UNL     1       2.152   5.148  20.024  0.00  0.00    +0.000 A 
ATOM     24  C   UNL     1       3.419   4.745  19.579  0.00  0.00    +0.000 A 
BRANCH  16  26
ATOM     25  C   UNL     1       3.083   6.977  17.468  0.00  0.00    +0.000 C 
ATOM     26  C   UNL     1       4.304   6.726  18.333  0.00  0.00    +0.000 C 
ENDBRANCH  16  26
ENDBRANCH  15  17
ENDBRANCH   1  15
TORSDOF 7
ENDMDL
MODEL 9
REMARK VINA RESULT:      -6.7      4.034      6.438
REMARK  Name = 
REMARK  8 active torsions:
REMARK  status: ('A' for Active; 'I' for Inactive)
REMARK    1  A    between atoms: C_1  and  C_2
REMARK    2  A    between atoms: C_2  and  N_3
REMARK    3  A    between atoms: C_4  and  S_5
REMARK    4  A    between atoms: S_5  and  C_6
REMARK    5  A    between atoms: C_6  and  C_7
REMARK    6  A    between atoms: N_9  and  N_10
REMARK    7  A    between atoms: C_11  and  C_12
REMARK    8  A    between atoms: C_13  and  C_14
REMARK                            x       y       z     vdW  Elec       q    Type
REMARK                         _______ _______ _______ _____ _____    ______ ____
ROOT
ATOM      1  C   UNL     1       1.462   8.597  19.993  0.00  0.00    +0.000 C 
ENDROOT
BRANCH   1   2
ATOM      2  C   UNL     1       2.161   7.260  19.771  0.00  0.00    +0.000 C 
ATOM      3  O   UNL     1       2.822   7.052  18.754  0.00  0.00    +0.000 OA
ATOM      4  N   UNL     1       1.887   6.300  20.736  0.00  0.00    +0.000 N 
ATOM      5  H   UNL     1       1.312   6.543  21.537  0.00  0.00    +0.000 HD
BRANCH   4   6
ATOM      6  N   UNL     1       2.464   5.065  20.677  0.00  0.00    +0.000 NA
ATOM      7  C   UNL     1       1.708   4.141  20.180  0.00  0.00    +0.000 C 
BRANCH   7   8
ATOM      8  C   UNL     1       2.164   2.738  20.074  0.00  0.00    +0.000 C 
ATOM      9  C   UNL     1       3.177   2.328  19.299  0.00  0.00    +0.000 C 
BRANCH   9  10
ATOM     10  C   UNL     1       4.052   3.205  18.602  0.00  0.00    +0.000 A 
ATOM     11  C   UNL     1       3.949   3.677  17.294  0.00  0.00    +0.000 A 
ATOM     12  C   UNL     1       5.089   4.474  17.028  0.00  0.00    +0.000 A 
ATOM     13  C   UNL     1       5.840   4.448  18.173  0.00  0.00    +0.000 A 
ATOM     14  O   UNL     1       5.224   3.704  19.123  0.00  0.00    +0.000 OA
ENDBRANCH   9  10
ENDBRANCH   7   8
ENDBRANCH   4   6
ENDBRANCH   1   2
BRANCH   1  15
ATOM     15  S   UNL     1       1.500   9.640  18.499  0.00  0.00    +0.000 S 
BRANCH  15  17
ATOM     16  N   UNL     1      -0.732  11.072  19.160  0.00  0.00    +0.000 N 
ATOM     17  C   UNL     1      -0.163  10.115  18.356  0.00  0.00    +0.000 A 
ATOM     18  N   UNL     1      -1.022   9.620  17.498  0.00  0.00    +0.000 NA
ATOM     19  C   UNL     1      -2.198  10.295  17.734  0.00  0.00    +0.000 A 
ATOM     20  C   UNL     1      -3.451  10.166  17.113  0.00  0.00    +0.000 A 
ATOM     21  C   UNL     1      -4.510  10.980  17.539  0.00  0.00    +0.000 A 
ATOM     22  C   UNL     1      -4.324  11.915  18.558  0.00  0.00    +0.000 A 
ATOM     23  C   UNL     1      -3.086  12.060  19.191  0.00  0.00    +0.000 A 
ATOM     24  C   UNL     1      -2.044  11.226  18.759  0.00  0.00    +0.000 A 
BRANCH  16  26
ATOM     25  C   UNL     1      -0.537  11.177  21.626  0.00  0.00    +0.000 C 
ATOM     26  C   UNL     1      -0.137  11.766  20.286  0.00  0.00    +0.000 C 
ENDBRANCH  16  26
ENDBRANCH  15  17
ENDBRANCH   1  15
TORSDOF 7
ENDMDL
