MODEL 1
REMARK VINA RESULT:      -6.8      0.000      0.000
REMARK  Name = 
REMARK  5 active torsions:
REMARK  status: ('A' for Active; 'I' for Inactive)
REMARK    1  A    between atoms: C_1  and  N_2
REMARK    2  A    between atoms: C_6  and  C_7
REMARK    3  A    between atoms: C_14  and  C_15
REMARK    4  A    between atoms: C_22  and  C_23
REMARK    5  A    between atoms: C_30  and  C_31
REMARK                            x       y       z     vdW  Elec       q    Type
REMARK                         _______ _______ _______ _____ _____    ______ ____
ROOT
ATOM      1  C   UNL     1      -1.201  10.956  22.702  0.00  0.00    +0.000 C 
ATOM      2  N   UNL     1      -2.163  11.841  22.062  0.00  0.00    +0.000 N 
ATOM      3  C   UNL     1      -2.023  12.303  20.752  0.00  0.00    +0.000 A 
ATOM      4  N   UNL     1      -0.986  11.801  19.956  0.00  0.00    +0.000 N 
ATOM      5  N   UNL     1      -0.485  10.525  20.059  0.00  0.00    +0.000 NA
ATOM      6  C   UNL     1       0.565  10.439  19.306  0.00  0.00    +0.000 C 
ATOM      7  C   UNL     1       0.904  11.673  18.535  0.00  0.00    +0.000 C 
ATOM      8  C   UNL     1      -0.242  12.592  18.969  0.00  0.00    +0.000 C 
ATOM      9  N   UNL     1      -2.844  13.212  20.284  0.00  0.00    +0.000 NA
ATOM     10  C   UNL     1      -3.865  13.692  21.077  0.00  0.00    +0.000 A 
ATOM     11  C   UNL     1      -4.096  13.296  22.342  0.00  0.00    +0.000 A 
ATOM     12  C   UNL     1      -3.163  12.303  22.902  0.00  0.00    +0.000 A 
ATOM     13  O   UNL     1      -3.278  11.938  24.071  0.00  0.00    +0.000 OA
ENDROOT
BRANCH  10  14
ATOM     14  C   UNL     1      -4.754  14.701  20.443  0.00  0.00    +0.000 A 
ATOM     15  C   UNL     1      -4.400  16.059  20.452  0.00  0.00    +0.000 A 
ATOM     16  C   UNL     1      -5.202  17.010  19.808  0.00  0.00    +0.000 A 
ATOM     17  C   UNL     1      -6.368  16.610  19.157  0.00  0.00    +0.000 A 
ATOM     18 CL   UNL     1      -7.343  17.777  18.351  0.00  0.00    +0.000 Cl
ATOM     19  C   UNL     1      -6.745  15.270  19.155  0.00  0.00    +0.000 A 
ATOM     20  C   UNL     1      -5.947  14.320  19.804  0.00  0.00    +0.000 A 
ENDBRANCH  10  14
BRANCH   6  21
ATOM     21  C   UNL     1       1.361   9.206  19.173  0.00  0.00    +0.000 A 
ATOM     22  C   UNL     1       1.995   8.924  17.959  0.00  0.00    +0.000 A 
ATOM     23  C   UNL     1       2.737   7.751  17.822  0.00  0.00    +0.000 A 
ATOM     24  C   UNL     1       2.835   6.860  18.890  0.00  0.00    +0.000 A 
ATOM     25  C   UNL     1       2.208   7.146  20.103  0.00  0.00    +0.000 A 
ATOM     26  C   UNL     1       1.474   8.324  20.248  0.00  0.00    +0.000 A 
ENDBRANCH   6  21
BRANCH   8  27
ATOM     27  C   UNL     1       0.246  13.921  19.514  0.00  0.00    +0.000 A 
ATOM     28  C   UNL     1       1.155  13.937  20.588  0.00  0.00    +0.000 A 
ATOM     29  C   UNL     1       1.614  15.143  21.115  0.00  0.00    +0.000 A 
ATOM     30  C   UNL     1       1.168  16.349  20.581  0.00  0.00    +0.000 A 
ATOM     31  C   UNL     1       0.275  16.351  19.511  0.00  0.00    +0.000 A 
ATOM     32  C   UNL     1      -0.177  15.145  18.975  0.00  0.00    +0.000 A 
ENDBRANCH   8  27
BRANCH  11  33
ATOM     33  C   UNL     1      -5.152  13.765  23.159  0.00  0.00    +0.000 C 
ATOM     34  N   UNL     1      -6.039  14.154  23.820  0.00  0.00    +0.000 NA
ENDBRANCH  11  33
TORSDOF 4
ENDMDL
MODEL 2
REMARK VINA RESULT:      -6.8      0.340      1.220
REMARK  Name = 
REMARK  5 active torsions:
REMARK  status: ('A' for Active; 'I' for Inactive)
REMARK    1  A    between atoms: C_1  and  N_2
REMARK    2  A    between atoms: C_6  and  C_7
REMARK    3  A    between atoms: C_14  and  C_15
REMARK    4  A    between atoms: C_22  and  C_23
REMARK    5  A    between atoms: C_30  and  C_31
REMARK                            x       y       z     vdW  Elec       q    Type
REMARK                         _______ _______ _______ _____ _____    ______ ____
ROOT
ATOM      1  C   UNL     1      -1.465  11.197  22.871  0.00  0.00    +0.000 C 
ATOM      2  N   UNL     1      -2.410  12.071  22.192  0.00  0.00    +0.000 N 
ATOM      3  C   UNL     1      -2.257  12.477  20.865  0.00  0.00    +0.000 A 
ATOM      4  N   UNL     1      -1.225  11.927  20.095  0.00  0.00    +0.000 N 
ATOM      5  N   UNL     1      -0.745  10.648  20.251  0.00  0.00    +0.000 NA
ATOM      6  C   UNL     1       0.307  10.516  19.506  0.00  0.00    +0.000 C 
ATOM      7  C   UNL     1       0.668  11.712  18.688  0.00  0.00    +0.000 C 
ATOM      8  C   UNL     1      -0.465  12.667  19.080  0.00  0.00    +0.000 C 
ATOM      9  N   UNL     1      -3.061  13.380  20.357  0.00  0.00    +0.000 NA
ATOM     10  C   UNL     1      -4.078  13.907  21.125  0.00  0.00    +0.000 A 
ATOM     11  C   UNL     1      -4.320  13.566  22.404  0.00  0.00    +0.000 A 
ATOM     12  C   UNL     1      -3.406  12.582  23.008  0.00  0.00    +0.000 A 
ATOM     13  O   UNL     1      -3.531  12.266  24.190  0.00  0.00    +0.000 OA
ENDROOT
BRANCH  10  14
ATOM     14  C   UNL     1      -4.948  14.904  20.447  0.00  0.00    +0.000 A 
ATOM     15  C   UNL     1      -4.601  16.264  20.452  0.00  0.00    +0.000 A 
ATOM     16  C   UNL     1      -5.384  17.203  19.768  0.00  0.00    +0.000 A 
ATOM     17  C   UNL     1      -6.523  16.789  19.080  0.00  0.00    +0.000 A 
ATOM     18 CL   UNL     1      -7.474  17.941  18.225  0.00  0.00    +0.000 Cl
ATOM     19  C   UNL     1      -6.894  15.447  19.082  0.00  0.00    +0.000 A 
ATOM     20  C   UNL     1      -6.115  14.509  19.770  0.00  0.00    +0.000 A 
ENDBRANCH  10  14
BRANCH   6  21
ATOM     21  C   UNL     1       1.083   9.266  19.426  0.00  0.00    +0.000 A 
ATOM     22  C   UNL     1       1.096   8.395  20.520  0.00  0.00    +0.000 A 
ATOM     23  C   UNL     1       1.841   7.217  20.456  0.00  0.00    +0.000 A 
ATOM     24  C   UNL     1       2.576   6.918  19.309  0.00  0.00    +0.000 A 
ATOM     25  C   UNL     1       2.555   7.785  18.217  0.00  0.00    +0.000 A 
ATOM     26  C   UNL     1       1.803   8.958  18.271  0.00  0.00    +0.000 A 
ENDBRANCH   6  21
BRANCH   8  27
ATOM     27  C   UNL     1       0.042  14.008  19.574  0.00  0.00    +0.000 A 
ATOM     28  C   UNL     1      -0.391  15.187  18.940  0.00  0.00    +0.000 A 
ATOM     29  C   UNL     1       0.065  16.434  19.367  0.00  0.00    +0.000 A 
ATOM     30  C   UNL     1       0.963  16.519  20.427  0.00  0.00    +0.000 A 
ATOM     31  C   UNL     1       1.396  15.362  21.070  0.00  0.00    +0.000 A 
ATOM     32  C   UNL     1       0.932  14.114  20.653  0.00  0.00    +0.000 A 
ENDBRANCH   8  27
BRANCH  11  33
ATOM     33  C   UNL     1      -5.371  14.085  23.197  0.00  0.00    +0.000 C 
ATOM     34  N   UNL     1      -6.242  14.498  23.866  0.00  0.00    +0.000 NA
ENDBRANCH  11  33
TORSDOF 4
ENDMDL
MODEL 3
REMARK VINA RESULT:      -6.8      0.201      1.188
REMARK  Name = 
REMARK  5 active torsions:
REMARK  status: ('A' for Active; 'I' for Inactive)
REMARK    1  A    between atoms: C_1  and  N_2
REMARK    2  A    between atoms: C_6  and  C_7
REMARK    3  A    between atoms: C_14  and  C_15
REMARK    4  A    between atoms: C_22  and  C_23
REMARK    5  A    between atoms: C_30  and  C_31
REMARK                            x       y       z     vdW  Elec       q    Type
REMARK                         _______ _______ _______ _____ _____    ______ ____
ROOT
ATOM      1  C   UNL     1      -1.172  10.873  22.816  0.00  0.00    +0.000 C 
ATOM      2  N   UNL     1      -2.112  11.762  22.150  0.00  0.00    +0.000 N 
ATOM      3  C   UNL     1      -1.953  12.193  20.832  0.00  0.00    +0.000 A 
ATOM      4  N   UNL     1      -0.921  11.654  20.055  0.00  0.00    +0.000 N 
ATOM      5  N   UNL     1      -0.445  10.371  20.189  0.00  0.00    +0.000 NA
ATOM      6  C   UNL     1       0.609  10.250  19.445  0.00  0.00    +0.000 C 
ATOM      7  C   UNL     1       0.976  11.460  18.651  0.00  0.00    +0.000 C 
ATOM      8  C   UNL     1      -0.155  12.410  19.057  0.00  0.00    +0.000 C 
ATOM      9  N   UNL     1      -2.753  13.107  20.338  0.00  0.00    +0.000 NA
ATOM     10  C   UNL     1      -3.771  13.623  21.113  0.00  0.00    +0.000 A 
ATOM     11  C   UNL     1      -4.018  13.259  22.385  0.00  0.00    +0.000 A 
ATOM     12  C   UNL     1      -3.109  12.261  22.972  0.00  0.00    +0.000 A 
ATOM     13  O   UNL     1      -3.239  11.923  24.148  0.00  0.00    +0.000 OA
ENDROOT
BRANCH  10  14
ATOM     14  C   UNL     1      -4.636  14.636  20.451  0.00  0.00    +0.000 A 
ATOM     15  C   UNL     1      -5.809  14.240  19.791  0.00  0.00    +0.000 A 
ATOM     16  C   UNL     1      -6.659  15.191  19.213  0.00  0.00    +0.000 A 
ATOM     17  C   UNL     1      -6.337  16.545  19.285  0.00  0.00    +0.000 A 
ATOM     18 CL   UNL     1      -7.392  17.715  18.591  0.00  0.00    +0.000 Cl
ATOM     19  C   UNL     1      -5.167  16.955  19.918  0.00  0.00    +0.000 A 
ATOM     20  C   UNL     1      -4.314  16.004  20.490  0.00  0.00    +0.000 A 
ENDBRANCH  10  14
BRANCH   6  21
ATOM     21  C   UNL     1       1.381   8.999  19.345  0.00  0.00    +0.000 A 
ATOM     22  C   UNL     1       2.030   8.686  18.146  0.00  0.00    +0.000 A 
ATOM     23  C   UNL     1       2.751   7.497  18.040  0.00  0.00    +0.000 A 
ATOM     24  C   UNL     1       2.813   6.620  19.123  0.00  0.00    +0.000 A 
ATOM     25  C   UNL     1       2.171   6.937  20.320  0.00  0.00    +0.000 A 
ATOM     26  C   UNL     1       1.458   8.131  20.435  0.00  0.00    +0.000 A 
ENDBRANCH   6  21
BRANCH   8  27
ATOM     27  C   UNL     1       0.355  13.741  19.577  0.00  0.00    +0.000 A 
ATOM     28  C   UNL     1      -0.041  14.930  18.938  0.00  0.00    +0.000 A 
ATOM     29  C   UNL     1       0.418  16.167  19.389  0.00  0.00    +0.000 A 
ATOM     30  C   UNL     1       1.282  16.232  20.479  0.00  0.00    +0.000 A 
ATOM     31  C   UNL     1       1.677  15.064  21.127  0.00  0.00    +0.000 A 
ATOM     32  C   UNL     1       1.209  13.826  20.685  0.00  0.00    +0.000 A 
ENDBRANCH   8  27
BRANCH  11  33
ATOM     33  C   UNL     1      -5.070  13.766  23.183  0.00  0.00    +0.000 C 
ATOM     34  N   UNL     1      -5.931  14.201  23.852  0.00  0.00    +0.000 NA
ENDBRANCH  11  33
TORSDOF 4
ENDMDL
MODEL 4
REMARK VINA RESULT:      -6.7      0.118      1.178
REMARK  Name = 
REMARK  5 active torsions:
REMARK  status: ('A' for Active; 'I' for Inactive)
REMARK    1  A    between atoms: C_1  and  N_2
REMARK    2  A    between atoms: C_6  and  C_7
REMARK    3  A    between atoms: C_14  and  C_15
REMARK    4  A    between atoms: C_22  and  C_23
REMARK    5  A    between atoms: C_30  and  C_31
REMARK                            x       y       z     vdW  Elec       q    Type
REMARK                         _______ _______ _______ _____ _____    ______ ____
ROOT
ATOM      1  C   UNL     1      -1.165  10.894  22.673  0.00  0.00    +0.000 C 
ATOM      2  N   UNL     1      -2.110  11.800  22.039  0.00  0.00    +0.000 N 
ATOM      3  C   UNL     1      -1.956  12.277  20.736  0.00  0.00    +0.000 A 
ATOM      4  N   UNL     1      -0.922  11.771  19.940  0.00  0.00    +0.000 N 
ATOM      5  N   UNL     1      -0.439  10.487  20.029  0.00  0.00    +0.000 NA
ATOM      6  C   UNL     1       0.615  10.397  19.281  0.00  0.00    +0.000 C 
ATOM      7  C   UNL     1       0.975  11.635  18.528  0.00  0.00    +0.000 C 
ATOM      8  C   UNL     1      -0.161  12.565  18.967  0.00  0.00    +0.000 C 
ATOM      9  N   UNL     1      -2.762  13.203  20.275  0.00  0.00    +0.000 NA
ATOM     10  C   UNL     1      -3.781  13.687  21.068  0.00  0.00    +0.000 A 
ATOM     11  C   UNL     1      -4.025  13.278  22.327  0.00  0.00    +0.000 A 
ATOM     12  C   UNL     1      -3.109  12.265  22.879  0.00  0.00    +0.000 A 
ATOM     13  O   UNL     1      -3.236  11.886  24.042  0.00  0.00    +0.000 OA
ENDROOT
BRANCH  10  14
ATOM     14  C   UNL     1      -4.652  14.716  20.442  0.00  0.00    +0.000 A 
ATOM     15  C   UNL     1      -5.828  14.337  19.777  0.00  0.00    +0.000 A 
ATOM     16  C   UNL     1      -6.684  15.304  19.233  0.00  0.00    +0.000 A 
ATOM     17  C   UNL     1      -6.366  16.656  19.345  0.00  0.00    +0.000 A 
ATOM     18 CL   UNL     1      -7.427  17.844  18.693  0.00  0.00    +0.000 Cl
ATOM     19  C   UNL     1      -5.192  17.050  19.984  0.00  0.00    +0.000 A 
ATOM     20  C   UNL     1      -4.334  16.083  20.522  0.00  0.00    +0.000 A 
ENDBRANCH  10  14
BRANCH   6  21
ATOM     21  C   UNL     1       1.394   9.154  19.136  0.00  0.00    +0.000 A 
ATOM     22  C   UNL     1       1.460   8.256  20.205  0.00  0.00    +0.000 A 
ATOM     23  C   UNL     1       2.208   7.086  20.081  0.00  0.00    +0.000 A 
ATOM     24  C   UNL     1       2.895   6.821  18.896  0.00  0.00    +0.000 A 
ATOM     25  C   UNL     1       2.822   7.714  17.827  0.00  0.00    +0.000 A 
ATOM     26  C   UNL     1       2.066   8.881  17.944  0.00  0.00    +0.000 A 
ENDBRANCH   6  21
BRANCH   8  27
ATOM     27  C   UNL     1       0.342  13.880  19.532  0.00  0.00    +0.000 A 
ATOM     28  C   UNL     1       1.235  13.869  20.619  0.00  0.00    +0.000 A 
ATOM     29  C   UNL     1       1.708  15.062  21.164  0.00  0.00    +0.000 A 
ATOM     30  C   UNL     1       1.290  16.281  20.636  0.00  0.00    +0.000 A 
ATOM     31  C   UNL     1       0.412  16.308  19.554  0.00  0.00    +0.000 A 
ATOM     32  C   UNL     1      -0.053  15.115  18.999  0.00  0.00    +0.000 A 
ENDBRANCH   8  27
BRANCH  11  33
ATOM     33  C   UNL     1      -5.079  13.751  23.143  0.00  0.00    +0.000 C 
ATOM     34  N   UNL     1      -5.940  14.146  23.836  0.00  0.00    +0.000 NA
ENDBRANCH  11  33
TORSDOF 4
ENDMDL
MODEL 5
REMARK VINA RESULT:      -6.5      6.960     10.848
REMARK  Name = 
REMARK  5 active torsions:
REMARK  status: ('A' for Active; 'I' for Inactive)
REMARK    1  A    between atoms: C_1  and  N_2
REMARK    2  A    between atoms: C_6  and  C_7
REMARK    3  A    between atoms: C_14  and  C_15
REMARK    4  A    between atoms: C_22  and  C_23
REMARK    5  A    between atoms: C_30  and  C_31
REMARK                            x       y       z     vdW  Elec       q    Type
REMARK                         _______ _______ _______ _____ _____    ______ ____
ROOT
ATOM      1  C   UNL     1       4.269   2.229  16.891  0.00  0.00    +0.000 C 
ATOM      2  N   UNL     1       3.676   3.478  17.343  0.00  0.00    +0.000 N 
ATOM      3  C   UNL     1       4.024   4.724  16.818  0.00  0.00    +0.000 A 
ATOM      4  N   UNL     1       4.885   4.786  15.717  0.00  0.00    +0.000 N 
ATOM      5  N   UNL     1       4.946   3.830  14.731  0.00  0.00    +0.000 NA
ATOM      6  C   UNL     1       5.951   4.103  13.962  0.00  0.00    +0.000 C 
ATOM      7  C   UNL     1       6.706   5.345  14.309  0.00  0.00    +0.000 C 
ATOM      8  C   UNL     1       5.893   5.834  15.512  0.00  0.00    +0.000 C 
ATOM      9  N   UNL     1       3.562   5.821  17.368  0.00  0.00    +0.000 NA
ATOM     10  C   UNL     1       2.708   5.744  18.448  0.00  0.00    +0.000 A 
ATOM     11  C   UNL     1       2.297   4.593  19.013  0.00  0.00    +0.000 A 
ATOM     12  C   UNL     1       2.833   3.349  18.436  0.00  0.00    +0.000 A 
ATOM     13  O   UNL     1       2.547   2.262  18.936  0.00  0.00    +0.000 OA
ENDROOT
BRANCH  10  14
ATOM     14  C   UNL     1       2.222   7.045  18.981  0.00  0.00    +0.000 A 
ATOM     15  C   UNL     1       1.936   8.104  18.106  0.00  0.00    +0.000 A 
ATOM     16  C   UNL     1       1.424   9.313  18.593  0.00  0.00    +0.000 A 
ATOM     17  C   UNL     1       1.203   9.475  19.960  0.00  0.00    +0.000 A 
ATOM     18 CL   UNL     1       0.557  10.955  20.555  0.00  0.00    +0.000 Cl
ATOM     19  C   UNL     1       1.501   8.442  20.845  0.00  0.00    +0.000 A 
ATOM     20  C   UNL     1       2.018   7.235  20.359  0.00  0.00    +0.000 A 
ENDBRANCH  10  14
BRANCH   6  21
ATOM     21  C   UNL     1       6.316   3.282  12.794  0.00  0.00    +0.000 A 
ATOM     22  C   UNL     1       5.396   2.359  12.288  0.00  0.00    +0.000 A 
ATOM     23  C   UNL     1       5.741   1.567  11.193  0.00  0.00    +0.000 A 
ATOM     24  C   UNL     1       7.004   1.692  10.613  0.00  0.00    +0.000 A 
ATOM     25  C   UNL     1       7.918   2.619  11.114  0.00  0.00    +0.000 A 
ATOM     26  C   UNL     1       7.573   3.420  12.203  0.00  0.00    +0.000 A 
ENDBRANCH   6  21
BRANCH   8  27
ATOM     27  C   UNL     1       6.751   6.084  16.737  0.00  0.00    +0.000 A 
ATOM     28  C   UNL     1       7.150   4.998  17.537  0.00  0.00    +0.000 A 
ATOM     29  C   UNL     1       7.932   5.199  18.673  0.00  0.00    +0.000 A 
ATOM     30  C   UNL     1       8.321   6.487  19.030  0.00  0.00    +0.000 A 
ATOM     31  C   UNL     1       7.942   7.573  18.243  0.00  0.00    +0.000 A 
ATOM     32  C   UNL     1       7.169   7.373  17.099  0.00  0.00    +0.000 A 
ENDBRANCH   8  27
BRANCH  11  33
ATOM     33  C   UNL     1       1.406   4.500  20.108  0.00  0.00    +0.000 C 
ATOM     34  N   UNL     1       0.665   4.402  21.012  0.00  0.00    +0.000 NA
ENDBRANCH  11  33
TORSDOF 4
ENDMDL
MODEL 6
REMARK VINA RESULT:      -6.5      1.440      2.294
REMARK  Name = 
REMARK  5 active torsions:
REMARK  status: ('A' for Active; 'I' for Inactive)
REMARK    1  A    between atoms: C_1  and  N_2
REMARK    2  A    between atoms: C_6  and  C_7
REMARK    3  A    between atoms: C_14  and  C_15
REMARK    4  A    between atoms: C_22  and  C_23
REMARK    5  A    between atoms: C_30  and  C_31
REMARK                            x       y       z     vdW  Elec       q    Type
REMARK                         _______ _______ _______ _____ _____    ______ ____
ROOT
ATOM      1  C   UNL     1       0.657   9.828  22.366  0.00  0.00    +0.000 C 
ATOM      2  N   UNL     1      -0.488  10.603  21.911  0.00  0.00    +0.000 N 
ATOM      3  C   UNL     1      -0.679  10.974  20.578  0.00  0.00    +0.000 A 
ATOM      4  N   UNL     1       0.189  10.477  19.598  0.00  0.00    +0.000 N 
ATOM      5  N   UNL     1       0.795   9.245  19.659  0.00  0.00    +0.000 NA
ATOM      6  C   UNL     1       1.654   9.167  18.693  0.00  0.00    +0.000 C 
ATOM      7  C   UNL     1       1.717  10.358  17.793  0.00  0.00    +0.000 C 
ATOM      8  C   UNL     1       0.631  11.236  18.423  0.00  0.00    +0.000 C 
ATOM      9  N   UNL     1      -1.650  11.794  20.257  0.00  0.00    +0.000 NA
ATOM     10  C   UNL     1      -2.502  12.269  21.233  0.00  0.00    +0.000 A 
ATOM     11  C   UNL     1      -2.413  11.956  22.538  0.00  0.00    +0.000 A 
ATOM     12  C   UNL     1      -1.307  11.065  22.928  0.00  0.00    +0.000 A 
ATOM     13  O   UNL     1      -1.130  10.782  24.112  0.00  0.00    +0.000 OA
ENDROOT
BRANCH  10  14
ATOM     14  C   UNL     1      -3.583  13.173  20.760  0.00  0.00    +0.000 A 
ATOM     15  C   UNL     1      -4.711  12.647  20.110  0.00  0.00    +0.000 A 
ATOM     16  C   UNL     1      -5.761  13.484  19.712  0.00  0.00    +0.000 A 
ATOM     17  C   UNL     1      -5.687  14.855  19.954  0.00  0.00    +0.000 A 
ATOM     18 CL   UNL     1      -6.986  15.880  19.480  0.00  0.00    +0.000 Cl
ATOM     19  C   UNL     1      -4.567  15.398  20.578  0.00  0.00    +0.000 A 
ATOM     20  C   UNL     1      -3.515  14.561  20.971  0.00  0.00    +0.000 A 
ENDBRANCH  10  14
BRANCH   6  21
ATOM     21  C   UNL     1       2.490   7.977  18.455  0.00  0.00    +0.000 A 
ATOM     22  C   UNL     1       2.394   6.885  19.322  0.00  0.00    +0.000 A 
ATOM     23  C   UNL     1       3.194   5.762  19.111  0.00  0.00    +0.000 A 
ATOM     24  C   UNL     1       4.092   5.737  18.044  0.00  0.00    +0.000 A 
ATOM     25  C   UNL     1       4.182   6.824  17.176  0.00  0.00    +0.000 A 
ATOM     26  C   UNL     1       3.376   7.945  17.376  0.00  0.00    +0.000 A 
ENDBRANCH   6  21
BRANCH   8  27
ATOM     27  C   UNL     1       1.127  12.629  18.763  0.00  0.00    +0.000 A 
ATOM     28  C   UNL     1       2.393  12.787  19.354  0.00  0.00    +0.000 A 
ATOM     29  C   UNL     1       2.871  14.055  19.685  0.00  0.00    +0.000 A 
ATOM     30  C   UNL     1       2.089  15.179  19.435  0.00  0.00    +0.000 A 
ATOM     31  C   UNL     1       0.836  15.040  18.842  0.00  0.00    +0.000 A 
ATOM     32  C   UNL     1       0.360  13.774  18.500  0.00  0.00    +0.000 A 
ENDBRANCH   8  27
BRANCH  11  33
ATOM     33  C   UNL     1      -3.292  12.420  23.545  0.00  0.00    +0.000 C 
ATOM     34  N   UNL     1      -4.013  12.792  24.393  0.00  0.00    +0.000 NA
ENDBRANCH  11  33
TORSDOF 4
ENDMDL
MODEL 7
REMARK VINA RESULT:      -6.4      1.655      2.526
REMARK  Name = 
REMARK  5 active torsions:
REMARK  status: ('A' for Active; 'I' for Inactive)
REMARK    1  A    between atoms: C_1  and  N_2
REMARK    2  A    between atoms: C_6  and  C_7
REMARK    3  A    between atoms: C_14  and  C_15
REMARK    4  A    between atoms: C_22  and  C_23
REMARK    5  A    between atoms: C_30  and  C_31
REMARK                            x       y       z     vdW  Elec       q    Type
REMARK                         _______ _______ _______ _____ _____    ______ ____
ROOT
ATOM      1  C   UNL     1       0.772   9.439  22.245  0.00  0.00    +0.000 C 
ATOM      2  N   UNL     1      -0.296  10.345  21.851  0.00  0.00    +0.000 N 
ATOM      3  C   UNL     1      -0.421  10.865  20.562  0.00  0.00    +0.000 A 
ATOM      4  N   UNL     1       0.435  10.406  19.553  0.00  0.00    +0.000 N 
ATOM      5  N   UNL     1       0.943   9.130  19.496  0.00  0.00    +0.000 NA
ATOM      6  C   UNL     1       1.821   9.086  18.544  0.00  0.00    +0.000 C 
ATOM      7  C   UNL     1       2.001  10.355  17.777  0.00  0.00    +0.000 C 
ATOM      8  C   UNL     1       0.967  11.246  18.473  0.00  0.00    +0.000 C 
ATOM      9  N   UNL     1      -1.317  11.788  20.309  0.00  0.00    +0.000 NA
ATOM     10  C   UNL     1      -2.157  12.225  21.311  0.00  0.00    +0.000 A 
ATOM     11  C   UNL     1      -2.131  11.772  22.578  0.00  0.00    +0.000 A 
ATOM     12  C   UNL     1      -1.107  10.762  22.894  0.00  0.00    +0.000 A 
ATOM     13  O   UNL     1      -0.986  10.344  24.045  0.00  0.00    +0.000 OA
ENDROOT
BRANCH  10  14
ATOM     14  C   UNL     1      -3.153  13.256  20.914  0.00  0.00    +0.000 A 
ATOM     15  C   UNL     1      -4.380  12.873  20.350  0.00  0.00    +0.000 A 
ATOM     16  C   UNL     1      -5.347  13.833  20.025  0.00  0.00    +0.000 A 
ATOM     17  C   UNL     1      -5.091  15.183  20.255  0.00  0.00    +0.000 A 
ATOM     18 CL   UNL     1      -6.287  16.360  19.872  0.00  0.00    +0.000 Cl
ATOM     19  C   UNL     1      -3.871  15.583  20.795  0.00  0.00    +0.000 A 
ATOM     20  C   UNL     1      -2.902  14.624  21.114  0.00  0.00    +0.000 A 
ENDBRANCH  10  14
BRANCH   6  21
ATOM     21  C   UNL     1       2.572   7.865  18.200  0.00  0.00    +0.000 A 
ATOM     22  C   UNL     1       3.650   7.948  17.314  0.00  0.00    +0.000 A 
ATOM     23  C   UNL     1       4.355   6.794  16.972  0.00  0.00    +0.000 A 
ATOM     24  C   UNL     1       3.976   5.563  17.505  0.00  0.00    +0.000 A 
ATOM     25  C   UNL     1       2.904   5.482  18.394  0.00  0.00    +0.000 A 
ATOM     26  C   UNL     1       2.203   6.635  18.747  0.00  0.00    +0.000 A 
ENDBRANCH   6  21
BRANCH   8  27
ATOM     27  C   UNL     1       1.557  12.553  18.969  0.00  0.00    +0.000 A 
ATOM     28  C   UNL     1       1.439  13.709  18.176  0.00  0.00    +0.000 A 
ATOM     29  C   UNL     1       1.979  14.922  18.602  0.00  0.00    +0.000 A 
ATOM     30  C   UNL     1       2.648  14.995  19.821  0.00  0.00    +0.000 A 
ATOM     31  C   UNL     1       2.766  13.861  20.621  0.00  0.00    +0.000 A 
ATOM     32  C   UNL     1       2.217  12.648  20.203  0.00  0.00    +0.000 A 
ENDBRANCH   8  27
BRANCH  11  33
ATOM     33  C   UNL     1      -3.000  12.197  23.610  0.00  0.00    +0.000 C 
ATOM     34  N   UNL     1      -3.729  12.564  24.453  0.00  0.00    +0.000 NA
ENDBRANCH  11  33
TORSDOF 4
ENDMDL
MODEL 8
REMARK VINA RESULT:      -6.4      1.467      2.323
REMARK  Name = 
REMARK  5 active torsions:
REMARK  status: ('A' for Active; 'I' for Inactive)
REMARK    1  A    between atoms: C_1  and  N_2
REMARK    2  A    between atoms: C_6  and  C_7
REMARK    3  A    between atoms: C_14  and  C_15
REMARK    4  A    between atoms: C_22  and  C_23
REMARK    5  A    between atoms: C_30  and  C_31
REMARK                            x       y       z     vdW  Elec       q    Type
REMARK                         _______ _______ _______ _____ _____    ______ ____
ROOT
ATOM      1  C   UNL     1       0.702   9.720  22.335  0.00  0.00    +0.000 C 
ATOM      2  N   UNL     1      -0.439  10.517  21.913  0.00  0.00    +0.000 N 
ATOM      3  C   UNL     1      -0.640  10.926  20.593  0.00  0.00    +0.000 A 
ATOM      4  N   UNL     1       0.215  10.450  19.591  0.00  0.00    +0.000 N 
ATOM      5  N   UNL     1       0.810   9.211  19.613  0.00  0.00    +0.000 NA
ATOM      6  C   UNL     1       1.660   9.152  18.636  0.00  0.00    +0.000 C 
ATOM      7  C   UNL     1       1.726  10.367  17.770  0.00  0.00    +0.000 C 
ATOM      8  C   UNL     1       0.653  11.237  18.433  0.00  0.00    +0.000 C 
ATOM      9  N   UNL     1      -1.606  11.764  20.303  0.00  0.00    +0.000 NA
ATOM     10  C   UNL     1      -2.445  12.219  21.299  0.00  0.00    +0.000 A 
ATOM     11  C   UNL     1      -2.348  11.869  22.595  0.00  0.00    +0.000 A 
ATOM     12  C   UNL     1      -1.246  10.959  22.949  0.00  0.00    +0.000 A 
ATOM     13  O   UNL     1      -1.060  10.641  24.123  0.00  0.00    +0.000 OA
ENDROOT
BRANCH  10  14
ATOM     14  C   UNL     1      -3.523  13.145  20.861  0.00  0.00    +0.000 A 
ATOM     15  C   UNL     1      -3.377  14.530  21.031  0.00  0.00    +0.000 A 
ATOM     16  C   UNL     1      -4.361  15.413  20.570  0.00  0.00    +0.000 A 
ATOM     17  C   UNL     1      -5.502  14.917  19.943  0.00  0.00    +0.000 A 
ATOM     18 CL   UNL     1      -6.703  16.004  19.361  0.00  0.00    +0.000 Cl
ATOM     19  C   UNL     1      -5.674  13.544  19.784  0.00  0.00    +0.000 A 
ATOM     20  C   UNL     1      -4.693  12.661  20.250  0.00  0.00    +0.000 A 
ENDBRANCH  10  14
BRANCH   6  21
ATOM     21  C   UNL     1       2.484   7.963  18.358  0.00  0.00    +0.000 A 
ATOM     22  C   UNL     1       2.273   6.793  19.094  0.00  0.00    +0.000 A 
ATOM     23  C   UNL     1       3.059   5.668  18.846  0.00  0.00    +0.000 A 
ATOM     24  C   UNL     1       4.058   5.717  17.873  0.00  0.00    +0.000 A 
ATOM     25  C   UNL     1       4.263   6.882  17.135  0.00  0.00    +0.000 A 
ATOM     26  C   UNL     1       3.471   8.007  17.372  0.00  0.00    +0.000 A 
ENDBRANCH   6  21
BRANCH   8  27
ATOM     27  C   UNL     1       1.164  12.616  18.807  0.00  0.00    +0.000 A 
ATOM     28  C   UNL     1       0.407  13.750  18.464  0.00  0.00    +0.000 A 
ATOM     29  C   UNL     1       0.855  15.030  18.788  0.00  0.00    +0.000 A 
ATOM     30  C   UNL     1       2.068  15.194  19.451  0.00  0.00    +0.000 A 
ATOM     31  C   UNL     1       2.826  14.080  19.805  0.00  0.00    +0.000 A 
ATOM     32  C   UNL     1       2.374  12.798  19.493  0.00  0.00    +0.000 A 
ENDBRANCH   8  27
BRANCH  11  33
ATOM     33  C   UNL     1      -3.213  12.312  23.622  0.00  0.00    +0.000 C 
ATOM     34  N   UNL     1      -3.944  12.687  24.460  0.00  0.00    +0.000 NA
ENDBRANCH  11  33
TORSDOF 4
ENDMDL
MODEL 9
REMARK VINA RESULT:      -6.3      7.047     10.887
REMARK  Name = 
REMARK  5 active torsions:
REMARK  status: ('A' for Active; 'I' for Inactive)
REMARK    1  A    between atoms: C_1  and  N_2
REMARK    2  A    between atoms: C_6  and  C_7
REMARK    3  A    between atoms: C_14  and  C_15
REMARK    4  A    between atoms: C_22  and  C_23
REMARK    5  A    between atoms: C_30  and  C_31
REMARK                            x       y       z     vdW  Elec       q    Type
REMARK                         _______ _______ _______ _____ _____    ______ ____
ROOT
ATOM      1  C   UNL     1       4.321   2.183  16.901  0.00  0.00    +0.000 C 
ATOM      2  N   UNL     1       3.698   3.418  17.354  0.00  0.00    +0.000 N 
ATOM      3  C   UNL     1       4.012   4.671  16.827  0.00  0.00    +0.000 A 
ATOM      4  N   UNL     1       4.866   4.754  15.720  0.00  0.00    +0.000 N 
ATOM      5  N   UNL     1       4.946   3.798  14.736  0.00  0.00    +0.000 NA
ATOM      6  C   UNL     1       5.940   4.095  13.961  0.00  0.00    +0.000 C 
ATOM      7  C   UNL     1       6.665   5.356  14.303  0.00  0.00    +0.000 C 
ATOM      8  C   UNL     1       5.847   5.825  15.510  0.00  0.00    +0.000 C 
ATOM      9  N   UNL     1       3.526   5.757  17.377  0.00  0.00    +0.000 NA
ATOM     10  C   UNL     1       2.680   5.660  18.462  0.00  0.00    +0.000 A 
ATOM     11  C   UNL     1       2.301   4.500  19.030  0.00  0.00    +0.000 A 
ATOM     12  C   UNL     1       2.865   3.269  18.452  0.00  0.00    +0.000 A 
ATOM     13  O   UNL     1       2.608   2.176  18.955  0.00  0.00    +0.000 OA
ENDROOT
BRANCH  10  14
ATOM     14  C   UNL     1       2.164   6.949  18.996  0.00  0.00    +0.000 A 
ATOM     15  C   UNL     1       1.971   7.116  20.375  0.00  0.00    +0.000 A 
ATOM     16  C   UNL     1       1.541   8.345  20.892  0.00  0.00    +0.000 A 
ATOM     17  C   UNL     1       1.293   9.413  20.032  0.00  0.00    +0.000 A 
ATOM     18 CL   UNL     1       0.781  10.927  20.671  0.00  0.00    +0.000 Cl
ATOM     19  C   UNL     1       1.459   9.259  18.658  0.00  0.00    +0.000 A 
ATOM     20  C   UNL     1       1.884   8.029  18.141  0.00  0.00    +0.000 A 
ENDBRANCH  10  14
BRANCH   6  21
ATOM     21  C   UNL     1       6.320   3.282  12.792  0.00  0.00    +0.000 A 
ATOM     22  C   UNL     1       5.413   2.350  12.279  0.00  0.00    +0.000 A 
ATOM     23  C   UNL     1       5.771   1.566  11.183  0.00  0.00    +0.000 A 
ATOM     24  C   UNL     1       7.035   1.707  10.610  0.00  0.00    +0.000 A 
ATOM     25  C   UNL     1       7.937   2.642  11.118  0.00  0.00    +0.000 A 
ATOM     26  C   UNL     1       7.578   3.436  12.208  0.00  0.00    +0.000 A 
ENDBRANCH   6  21
BRANCH   8  27
ATOM     27  C   UNL     1       6.705   6.099  16.730  0.00  0.00    +0.000 A 
ATOM     28  C   UNL     1       7.098   7.419  17.018  0.00  0.00    +0.000 A 
ATOM     29  C   UNL     1       7.893   7.699  18.128  0.00  0.00    +0.000 A 
ATOM     30  C   UNL     1       8.311   6.666  18.962  0.00  0.00    +0.000 A 
ATOM     31  C   UNL     1       7.923   5.354  18.696  0.00  0.00    +0.000 A 
ATOM     32  C   UNL     1       7.117   5.072  17.592  0.00  0.00    +0.000 A 
ENDBRANCH   8  27
BRANCH  11  33
ATOM     33  C   UNL     1       1.418   4.386  20.129  0.00  0.00    +0.000 C 
ATOM     34  N   UNL     1       0.680   4.273  21.035  0.00  0.00    +0.000 NA
ENDBRANCH  11  33
TORSDOF 4
ENDMDL
