MODEL 1
REMARK VINA RESULT:      -6.4      0.000      0.000
REMARK  Name = 
REMARK  4 active torsions:
REMARK  status: ('A' for Active; 'I' for Inactive)
REMARK    1  A    between atoms: C_1  and  O_2
REMARK    2  A    between atoms: O_2  and  C_3
REMARK    3  A    between atoms: C_8  and  C_9
REMARK    4  A    between atoms: N_10  and  N_11
REMARK                            x       y       z     vdW  Elec       q    Type
REMARK                         _______ _______ _______ _____ _____    ______ ____
ROOT
ATOM      1  C   UNL     1       5.067   4.106  17.822  0.00  0.00    +0.000 C 
ATOM      2  N   UNL     1       4.191   3.155  17.918  0.00  0.00    +0.000 NA
ENDROOT
BRANCH   2   3
ATOM      3  N   UNL     1       3.417   2.994  19.046  0.00  0.00    +0.000 N 
ATOM      4  C   UNL     1       3.897   2.465  20.241  0.00  0.00    +0.000 C 
ATOM      5  O   UNL     1       5.010   1.987  20.453  0.00  0.00    +0.000 OA
ATOM      6  C   UNL     1       2.880   2.581  21.344  0.00  0.00    +0.000 C 
ATOM      7  S   UNL     1       1.483   3.507  20.692  0.00  0.00    +0.000 S 
ATOM      8  C   UNL     1       2.192   3.649  19.093  0.00  0.00    +0.000 C 
ATOM      9  S   UNL     1       1.415   4.475  17.862  0.00  0.00    +0.000 S 
ENDBRANCH   2   3
BRANCH   1  15
ATOM     10  C   UNL     1       7.000   4.986  16.447  0.00  0.00    +0.000 A 
ATOM     11  C   UNL     1       7.590   5.167  15.187  0.00  0.00    +0.000 A 
ATOM     12  C   UNL     1       6.939   4.747  14.024  0.00  0.00    +0.000 A 
ATOM     13  C   UNL     1       5.704   4.119  14.105  0.00  0.00    +0.000 A 
ATOM     14  C   UNL     1       5.125   3.894  15.351  0.00  0.00    +0.000 A 
ATOM     15  C   UNL     1       5.766   4.321  16.527  0.00  0.00    +0.000 A 
BRANCH  10  17
ATOM     16  C   UNL     1       7.538   6.820  17.836  0.00  0.00    +0.000 C 
ATOM     17  O   UNL     1       7.592   5.410  17.610  0.00  0.00    +0.000 OA
ENDBRANCH  10  17
ENDBRANCH   1  15
TORSDOF 3
ENDMDL
MODEL 2
REMARK VINA RESULT:      -6.1      1.693      2.112
REMARK  Name = 
REMARK  4 active torsions:
REMARK  status: ('A' for Active; 'I' for Inactive)
REMARK    1  A    between atoms: C_1  and  O_2
REMARK    2  A    between atoms: O_2  and  C_3
REMARK    3  A    between atoms: C_8  and  C_9
REMARK    4  A    between atoms: N_10  and  N_11
REMARK                            x       y       z     vdW  Elec       q    Type
REMARK                         _______ _______ _______ _____ _____    ______ ____
ROOT
ATOM      1  C   UNL     1       4.534   4.517  17.515  0.00  0.00    +0.000 C 
ATOM      2  N   UNL     1       3.843   3.444  17.741  0.00  0.00    +0.000 NA
ENDROOT
BRANCH   2   3
ATOM      3  N   UNL     1       2.872   3.402  18.719  0.00  0.00    +0.000 N 
ATOM      4  C   UNL     1       1.539   3.741  18.496  0.00  0.00    +0.000 C 
ATOM      5  O   UNL     1       1.047   4.202  17.469  0.00  0.00    +0.000 OA
ATOM      6  C   UNL     1       0.683   3.424  19.693  0.00  0.00    +0.000 C 
ATOM      7  S   UNL     1       1.726   2.586  20.893  0.00  0.00    +0.000 S 
ATOM      8  C   UNL     1       3.162   2.721  19.894  0.00  0.00    +0.000 C 
ATOM      9  S   UNL     1       4.632   2.088  20.385  0.00  0.00    +0.000 S 
ENDBRANCH   2   3
BRANCH   1  15
ATOM     10  C   UNL     1       6.752   5.096  16.444  0.00  0.00    +0.000 A 
ATOM     11  C   UNL     1       7.563   5.108  15.299  0.00  0.00    +0.000 A 
ATOM     12  C   UNL     1       7.081   4.640  14.073  0.00  0.00    +0.000 A 
ATOM     13  C   UNL     1       5.792   4.132  13.981  0.00  0.00    +0.000 A 
ATOM     14  C   UNL     1       4.990   4.074  15.116  0.00  0.00    +0.000 A 
ATOM     15  C   UNL     1       5.462   4.550  16.353  0.00  0.00    +0.000 A 
BRANCH  10  17
ATOM     16  C   UNL     1       7.455   6.974  17.693  0.00  0.00    +0.000 C 
ATOM     17  O   UNL     1       7.178   5.572  17.658  0.00  0.00    +0.000 OA
ENDBRANCH  10  17
ENDBRANCH   1  15
TORSDOF 3
ENDMDL
MODEL 3
REMARK VINA RESULT:      -6.0      1.754      2.018
REMARK  Name = 
REMARK  4 active torsions:
REMARK  status: ('A' for Active; 'I' for Inactive)
REMARK    1  A    between atoms: C_1  and  O_2
REMARK    2  A    between atoms: O_2  and  C_3
REMARK    3  A    between atoms: C_8  and  C_9
REMARK    4  A    between atoms: N_10  and  N_11
REMARK                            x       y       z     vdW  Elec       q    Type
REMARK                         _______ _______ _______ _____ _____    ______ ____
ROOT
ATOM      1  C   UNL     1       4.988   4.418  17.696  0.00  0.00    +0.000 C 
ATOM      2  N   UNL     1       3.697   4.536  17.718  0.00  0.00    +0.000 NA
ENDROOT
BRANCH   2   3
ATOM      3  N   UNL     1       2.995   4.600  18.903  0.00  0.00    +0.000 N 
ATOM      4  C   UNL     1       2.611   5.795  19.506  0.00  0.00    +0.000 C 
ATOM      5  O   UNL     1       2.898   6.937  19.153  0.00  0.00    +0.000 OA
ATOM      6  C   UNL     1       1.706   5.551  20.684  0.00  0.00    +0.000 C 
ATOM      7  S   UNL     1       1.368   3.786  20.745  0.00  0.00    +0.000 S 
ATOM      8  C   UNL     1       2.395   3.437  19.367  0.00  0.00    +0.000 C 
ATOM      9  S   UNL     1       2.566   1.880  18.775  0.00  0.00    +0.000 S 
ENDBRANCH   2   3
BRANCH   1  15
ATOM     10  C   UNL     1       6.960   5.114  16.273  0.00  0.00    +0.000 A 
ATOM     11  C   UNL     1       7.565   5.172  15.008  0.00  0.00    +0.000 A 
ATOM     12  C   UNL     1       6.906   4.684  13.876  0.00  0.00    +0.000 A 
ATOM     13  C   UNL     1       5.647   4.112  13.996  0.00  0.00    +0.000 A 
ATOM     14  C   UNL     1       5.053   4.008  15.250  0.00  0.00    +0.000 A 
ATOM     15  C   UNL     1       5.702   4.503  16.395  0.00  0.00    +0.000 A 
BRANCH  10  17
ATOM     16  C   UNL     1       7.496   7.026  17.552  0.00  0.00    +0.000 C 
ATOM     17  O   UNL     1       7.561   5.607  17.405  0.00  0.00    +0.000 OA
ENDBRANCH  10  17
ENDBRANCH   1  15
TORSDOF 3
ENDMDL
MODEL 4
REMARK VINA RESULT:      -5.9      1.229      1.258
REMARK  Name = 
REMARK  4 active torsions:
REMARK  status: ('A' for Active; 'I' for Inactive)
REMARK    1  A    between atoms: C_1  and  O_2
REMARK    2  A    between atoms: O_2  and  C_3
REMARK    3  A    between atoms: C_8  and  C_9
REMARK    4  A    between atoms: N_10  and  N_11
REMARK                            x       y       z     vdW  Elec       q    Type
REMARK                         _______ _______ _______ _____ _____    ______ ____
ROOT
ATOM      1  C   UNL     1       4.970   4.031  17.311  0.00  0.00    +0.000 C 
ATOM      2  N   UNL     1       3.674   4.001  17.270  0.00  0.00    +0.000 NA
ENDROOT
BRANCH   2   3
ATOM      3  N   UNL     1       2.915   3.929  18.418  0.00  0.00    +0.000 N 
ATOM      4  C   UNL     1       2.721   2.754  19.141  0.00  0.00    +0.000 C 
ATOM      5  O   UNL     1       3.095   1.622  18.842  0.00  0.00    +0.000 OA
ATOM      6  C   UNL     1       2.004   3.017  20.438  0.00  0.00    +0.000 C 
ATOM      7  S   UNL     1       1.815   4.799  20.595  0.00  0.00    +0.000 S 
ATOM      8  C   UNL     1       2.568   5.119  19.043  0.00  0.00    +0.000 C 
ATOM      9  S   UNL     1       2.784   6.682  18.482  0.00  0.00    +0.000 S 
ENDBRANCH   2   3
BRANCH   1  15
ATOM     10  C   UNL     1       6.939   4.973  16.031  0.00  0.00    +0.000 A 
ATOM     11  C   UNL     1       7.590   5.163  14.803  0.00  0.00    +0.000 A 
ATOM     12  C   UNL     1       7.022   4.702  13.612  0.00  0.00    +0.000 A 
ATOM     13  C   UNL     1       5.809   4.025  13.635  0.00  0.00    +0.000 A 
ATOM     14  C   UNL     1       5.172   3.792  14.850  0.00  0.00    +0.000 A 
ATOM     15  C   UNL     1       5.730   4.259  16.053  0.00  0.00    +0.000 A 
BRANCH  10  17
ATOM     16  C   UNL     1       7.374   6.850  17.397  0.00  0.00    +0.000 C 
ATOM     17  O   UNL     1       7.448   5.435  17.219  0.00  0.00    +0.000 OA
ENDBRANCH  10  17
ENDBRANCH   1  15
TORSDOF 3
ENDMDL
MODEL 5
REMARK VINA RESULT:      -5.8      4.652      5.970
REMARK  Name = 
REMARK  4 active torsions:
REMARK  status: ('A' for Active; 'I' for Inactive)
REMARK    1  A    between atoms: C_1  and  O_2
REMARK    2  A    between atoms: O_2  and  C_3
REMARK    3  A    between atoms: C_8  and  C_9
REMARK    4  A    between atoms: N_10  and  N_11
REMARK                            x       y       z     vdW  Elec       q    Type
REMARK                         _______ _______ _______ _____ _____    ______ ____
ROOT
ATOM      1  C   UNL     1       2.449   6.572  19.495  0.00  0.00    +0.000 C 
ATOM      2  N   UNL     1       2.232   5.686  18.574  0.00  0.00    +0.000 NA
ENDROOT
BRANCH   2   3
ATOM      3  N   UNL     1       2.470   4.345  18.789  0.00  0.00    +0.000 N 
ATOM      4  C   UNL     1       1.624   3.523  19.530  0.00  0.00    +0.000 C 
ATOM      5  O   UNL     1       0.625   3.855  20.164  0.00  0.00    +0.000 OA
ATOM      6  C   UNL     1       2.042   2.080  19.440  0.00  0.00    +0.000 C 
ATOM      7  S   UNL     1       3.406   1.987  18.271  0.00  0.00    +0.000 S 
ATOM      8  C   UNL     1       3.429   3.721  18.002  0.00  0.00    +0.000 C 
ATOM      9  S   UNL     1       4.503   4.425  16.929  0.00  0.00    +0.000 S 
ENDBRANCH   2   3
BRANCH   1  15
ATOM     10  C   UNL     1       1.264   8.698  20.185  0.00  0.00    +0.000 A 
ATOM     11  C   UNL     1       0.897  10.019  19.883  0.00  0.00    +0.000 A 
ATOM     12  C   UNL     1       1.242  10.596  18.657  0.00  0.00    +0.000 A 
ATOM     13  C   UNL     1       1.976   9.870  17.729  0.00  0.00    +0.000 A 
ATOM     14  C   UNL     1       2.384   8.575  18.031  0.00  0.00    +0.000 A 
ATOM     15  C   UNL     1       2.036   7.981  19.258  0.00  0.00    +0.000 A 
BRANCH  10  17
ATOM     16  C   UNL     1      -0.236   8.622  22.009  0.00  0.00    +0.000 C 
ATOM     17  O   UNL     1       0.922   8.086  21.365  0.00  0.00    +0.000 OA
ENDBRANCH  10  17
ENDBRANCH   1  15
TORSDOF 3
ENDMDL
MODEL 6
REMARK VINA RESULT:      -5.8      3.420      4.315
REMARK  Name = 
REMARK  4 active torsions:
REMARK  status: ('A' for Active; 'I' for Inactive)
REMARK    1  A    between atoms: C_1  and  O_2
REMARK    2  A    between atoms: O_2  and  C_3
REMARK    3  A    between atoms: C_8  and  C_9
REMARK    4  A    between atoms: N_10  and  N_11
REMARK                            x       y       z     vdW  Elec       q    Type
REMARK                         _______ _______ _______ _____ _____    ______ ____
ROOT
ATOM      1  C   UNL     1       4.257   6.301  17.919  0.00  0.00    +0.000 C 
ATOM      2  N   UNL     1       2.973   6.475  17.968  0.00  0.00    +0.000 NA
ENDROOT
BRANCH   2   3
ATOM      3  N   UNL     1       2.395   7.354  18.860  0.00  0.00    +0.000 N 
ATOM      4  C   UNL     1       1.978   8.637  18.516  0.00  0.00    +0.000 C 
ATOM      5  O   UNL     1       2.132   9.210  17.440  0.00  0.00    +0.000 OA
ATOM      6  C   UNL     1       1.224   9.292  19.643  0.00  0.00    +0.000 C 
ATOM      7  S   UNL     1       1.041   8.069  20.948  0.00  0.00    +0.000 S 
ATOM      8  C   UNL     1       1.945   6.847  20.072  0.00  0.00    +0.000 C 
ATOM      9  S   UNL     1       2.180   5.313  20.702  0.00  0.00    +0.000 S 
ENDBRANCH   2   3
BRANCH   1  15
ATOM     10  C   UNL     1       5.000   4.069  16.988  0.00  0.00    +0.000 A 
ATOM     11  C   UNL     1       5.568   3.340  15.932  0.00  0.00    +0.000 A 
ATOM     12  C   UNL     1       6.014   3.984  14.775  0.00  0.00    +0.000 A 
ATOM     13  C   UNL     1       5.879   5.360  14.647  0.00  0.00    +0.000 A 
ATOM     14  C   UNL     1       5.278   6.091  15.667  0.00  0.00    +0.000 A 
ATOM     15  C   UNL     1       4.833   5.455  16.840  0.00  0.00    +0.000 A 
BRANCH  10  17
ATOM     16  C   UNL     1       3.491   2.559  18.000  0.00  0.00    +0.000 C 
ATOM     17  O   UNL     1       4.574   3.479  18.151  0.00  0.00    +0.000 OA
ENDBRANCH  10  17
ENDBRANCH   1  15
TORSDOF 3
ENDMDL
MODEL 7
REMARK VINA RESULT:      -5.8      3.158      6.025
REMARK  Name = 
REMARK  4 active torsions:
REMARK  status: ('A' for Active; 'I' for Inactive)
REMARK    1  A    between atoms: C_1  and  O_2
REMARK    2  A    between atoms: O_2  and  C_3
REMARK    3  A    between atoms: C_8  and  C_9
REMARK    4  A    between atoms: N_10  and  N_11
REMARK                            x       y       z     vdW  Elec       q    Type
REMARK                         _______ _______ _______ _____ _____    ______ ____
ROOT
ATOM      1  C   UNL     1       3.904   5.414  19.533  0.00  0.00    +0.000 C 
ATOM      2  N   UNL     1       4.995   4.998  18.970  0.00  0.00    +0.000 NA
ENDROOT
BRANCH   2   3
ATOM      3  N   UNL     1       6.042   5.853  18.700  0.00  0.00    +0.000 N 
ATOM      4  C   UNL     1       7.245   5.844  19.402  0.00  0.00    +0.000 C 
ATOM      5  O   UNL     1       7.528   5.172  20.391  0.00  0.00    +0.000 OA
ATOM      6  C   UNL     1       8.259   6.758  18.769  0.00  0.00    +0.000 C 
ATOM      7  S   UNL     1       7.536   7.393  17.249  0.00  0.00    +0.000 S 
ATOM      8  C   UNL     1       6.015   6.554  17.501  0.00  0.00    +0.000 C 
ATOM      9  S   UNL     1       4.766   6.656  16.392  0.00  0.00    +0.000 S 
ENDBRANCH   2   3
BRANCH   1  15
ATOM     10  C   UNL     1       1.972   3.866  19.010  0.00  0.00    +0.000 A 
ATOM     11  C   UNL     1       1.013   2.950  19.468  0.00  0.00    +0.000 A 
ATOM     12  C   UNL     1       0.911   2.636  20.826  0.00  0.00    +0.000 A 
ATOM     13  C   UNL     1       1.780   3.216  21.741  0.00  0.00    +0.000 A 
ATOM     14  C   UNL     1       2.765   4.093  21.298  0.00  0.00    +0.000 A 
ATOM     15  C   UNL     1       2.871   4.422  19.935  0.00  0.00    +0.000 A 
BRANCH  10  17
ATOM     16  C   UNL     1       2.736   3.257  16.860  0.00  0.00    +0.000 C 
ATOM     17  O   UNL     1       2.086   4.222  17.690  0.00  0.00    +0.000 OA
ENDBRANCH  10  17
ENDBRANCH   1  15
TORSDOF 3
ENDMDL
MODEL 8
REMARK VINA RESULT:      -5.7      4.899      6.244
REMARK  Name = 
REMARK  4 active torsions:
REMARK  status: ('A' for Active; 'I' for Inactive)
REMARK    1  A    between atoms: C_1  and  O_2
REMARK    2  A    between atoms: O_2  and  C_3
REMARK    3  A    between atoms: C_8  and  C_9
REMARK    4  A    between atoms: N_10  and  N_11
REMARK                            x       y       z     vdW  Elec       q    Type
REMARK                         _______ _______ _______ _____ _____    ______ ____
ROOT
ATOM      1  C   UNL     1       2.190   6.798  20.200  0.00  0.00    +0.000 C 
ATOM      2  N   UNL     1       2.622   5.936  19.333  0.00  0.00    +0.000 NA
ENDROOT
BRANCH   2   3
ATOM      3  N   UNL     1       2.888   4.630  19.681  0.00  0.00    +0.000 N 
ATOM      4  C   UNL     1       1.899   3.692  19.968  0.00  0.00    +0.000 C 
ATOM      5  O   UNL     1       0.688   3.884  20.049  0.00  0.00    +0.000 OA
ATOM      6  C   UNL     1       2.479   2.313  20.135  0.00  0.00    +0.000 C 
ATOM      7  S   UNL     1       4.231   2.417  19.744  0.00  0.00    +0.000 S 
ATOM      8  C   UNL     1       4.171   4.146  19.457  0.00  0.00    +0.000 C 
ATOM      9  S   UNL     1       5.530   5.003  18.987  0.00  0.00    +0.000 S 
ENDBRANCH   2   3
BRANCH   1  15
ATOM     10  C   UNL     1       1.104   9.052  20.575  0.00  0.00    +0.000 A 
ATOM     11  C   UNL     1       0.732  10.304  20.061  0.00  0.00    +0.000 A 
ATOM     12  C   UNL     1       0.975  10.630  18.724  0.00  0.00    +0.000 A 
ATOM     13  C   UNL     1       1.612   9.721  17.890  0.00  0.00    +0.000 A 
ATOM     14  C   UNL     1       2.025   8.492  18.396  0.00  0.00    +0.000 A 
ATOM     15  C   UNL     1       1.779   8.150  19.737  0.00  0.00    +0.000 A 
BRANCH  10  17
ATOM     16  C   UNL     1      -0.256   9.332  22.486  0.00  0.00    +0.000 C 
ATOM     17  O   UNL     1       0.860   8.682  21.874  0.00  0.00    +0.000 OA
ENDBRANCH  10  17
ENDBRANCH   1  15
TORSDOF 3
ENDMDL
MODEL 9
REMARK VINA RESULT:      -5.5      4.088      6.258
REMARK  Name = 
REMARK  4 active torsions:
REMARK  status: ('A' for Active; 'I' for Inactive)
REMARK    1  A    between atoms: C_1  and  O_2
REMARK    2  A    between atoms: O_2  and  C_3
REMARK    3  A    between atoms: C_8  and  C_9
REMARK    4  A    between atoms: N_10  and  N_11
REMARK                            x       y       z     vdW  Elec       q    Type
REMARK                         _______ _______ _______ _____ _____    ______ ____
ROOT
ATOM      1  C   UNL     1       3.233   6.363  17.856  0.00  0.00    +0.000 C 
ATOM      2  N   UNL     1       4.451   6.042  18.162  0.00  0.00    +0.000 NA
ENDROOT
BRANCH   2   3
ATOM      3  N   UNL     1       5.241   5.304  17.307  0.00  0.00    +0.000 N 
ATOM      4  C   UNL     1       4.800   4.163  16.642  0.00  0.00    +0.000 C 
ATOM      5  O   UNL     1       3.717   3.595  16.770  0.00  0.00    +0.000 OA
ATOM      6  C   UNL     1       5.817   3.678  15.644  0.00  0.00    +0.000 C 
ATOM      7  S   UNL     1       7.155   4.879  15.614  0.00  0.00    +0.000 S 
ATOM      8  C   UNL     1       6.427   5.874  16.863  0.00  0.00    +0.000 C 
ATOM      9  S   UNL     1       7.148   7.294  17.380  0.00  0.00    +0.000 S 
ENDBRANCH   2   3
BRANCH   1  15
ATOM     10  C   UNL     1       2.079   6.908  20.041  0.00  0.00    +0.000 A 
ATOM     11  C   UNL     1       1.355   7.825  20.818  0.00  0.00    +0.000 A 
ATOM     12  C   UNL     1       0.987   9.070  20.300  0.00  0.00    +0.000 A 
ATOM     13  C   UNL     1       1.356   9.423  19.009  0.00  0.00    +0.000 A 
ATOM     14  C   UNL     1       2.111   8.542  18.241  0.00  0.00    +0.000 A 
ATOM     15  C   UNL     1       2.480   7.284  18.749  0.00  0.00    +0.000 A 
BRANCH  10  17
ATOM     16  C   UNL     1       1.366   4.721  20.581  0.00  0.00    +0.000 C 
ATOM     17  O   UNL     1       2.436   5.666  20.502  0.00  0.00    +0.000 OA
ENDBRANCH  10  17
ENDBRANCH   1  15
TORSDOF 3
ENDMDL
