MODEL 1
REMARK VINA RESULT:      -8.5      0.000      0.000
REMARK  Name = 
REMARK  7 active torsions:
REMARK  status: ('A' for Active; 'I' for Inactive)
REMARK    1  A    between atoms: C_4  and  C_5
REMARK    2  A    between atoms: C_5  and  N_6
REMARK    3  A    between atoms: C_14  and  O_15
REMARK    4  A    between atoms: O_15  and  C_16
REMARK    5  A    between atoms: C_16  and  C_17
REMARK    6  A    between atoms: C_21  and  O_22
REMARK    7  A    between atoms: O_22  and  C_23
REMARK                            x       y       z     vdW  Elec       q    Type
REMARK                         _______ _______ _______ _____ _____    ______ ____
ROOT
ATOM      1  O   UNL     1       0.086   9.606  23.798  0.00  0.00    +0.000 OA
ATOM      2  C   UNL     1       0.349   9.591  22.601  0.00  0.00    +0.000 A 
ATOM      3  C   UNL     1      -0.086  10.696  21.730  0.00  0.00    +0.000 A 
ATOM      4  C   UNL     1       0.129  10.729  20.408  0.00  0.00    +0.000 A 
ATOM      5  C   UNL     1       0.822   9.587  19.804  0.00  0.00    +0.000 A 
ATOM      6  C   UNL     1       1.032   9.471  18.431  0.00  0.00    +0.000 A 
ATOM      7  C   UNL     1       1.715   8.384  17.904  0.00  0.00    +0.000 A 
ATOM      8  C   UNL     1       2.248   7.401  18.742  0.00  0.00    +0.000 A 
ATOM      9  C   UNL     1       2.012   7.470  20.115  0.00  0.00    +0.000 A 
ATOM     10  C   UNL     1       1.300   8.558  20.622  0.00  0.00    +0.000 A 
ATOM     11  O   UNL     1       1.086   8.578  22.014  0.00  0.00    +0.000 OA
ENDROOT
BRANCH   4  12
ATOM     12  C   UNL     1      -0.283  11.917  19.563  0.00  0.00    +0.000 C 
BRANCH  12  13
ATOM     13  N   UNL     1      -1.672  11.847  19.135  0.00  0.00    +0.000 N 
ATOM     14  C   UNL     1      -2.144  11.204  18.024  0.00  0.00    +0.000 A 
ATOM     15  C   UNL     1      -3.492  11.476  18.003  0.00  0.00    +0.000 A 
ATOM     16  N   UNL     1      -3.858  12.202  19.106  0.00  0.00    +0.000 NA
ATOM     17  C   UNL     1      -2.746  12.392  19.780  0.00  0.00    +0.000 A 
ENDBRANCH  12  13
ENDBRANCH   4  12
BRANCH   8  18
ATOM     18  O   UNL     1       3.008   6.361  18.286  0.00  0.00    +0.000 OA
BRANCH  18  19
ATOM     19  C   UNL     1       4.027   5.965  19.214  0.00  0.00    +0.000 C 
BRANCH  19  20
ATOM     20  C   UNL     1       5.234   5.407  18.515  0.00  0.00    +0.000 A 
ATOM     21  C   UNL     1       6.528   5.644  18.987  0.00  0.00    +0.000 A 
ATOM     22  C   UNL     1       7.625   5.187  18.263  0.00  0.00    +0.000 A 
ATOM     23  C   UNL     1       7.429   4.487  17.074  0.00  0.00    +0.000 A 
ATOM     24  C   UNL     1       6.142   4.227  16.599  0.00  0.00    +0.000 A 
ATOM     25  C   UNL     1       5.052   4.731  17.300  0.00  0.00    +0.000 A 
BRANCH  24  26
ATOM     26  O   UNL     1       6.073   3.553  15.422  0.00  0.00    +0.000 OA
BRANCH  26  27
ATOM     27  C   UNL     1       6.013   4.281  14.201  0.00  0.00    +0.000 C 
ATOM     28  F   UNL     1       6.079   5.623  14.336  0.00  0.00    +0.000 F 
ATOM     29  F   UNL     1       7.030   3.885  13.403  0.00  0.00    +0.000 F 
ATOM     30  F   UNL     1       4.850   3.988  13.579  0.00  0.00    +0.000 F 
ENDBRANCH  26  27
ENDBRANCH  24  26
ENDBRANCH  19  20
ENDBRANCH  18  19
ENDBRANCH   8  18
TORSDOF 7
ENDMDL
MODEL 2
REMARK VINA RESULT:      -8.5      4.947      9.107
REMARK  Name = 
REMARK  7 active torsions:
REMARK  status: ('A' for Active; 'I' for Inactive)
REMARK    1  A    between atoms: C_4  and  C_5
REMARK    2  A    between atoms: C_5  and  N_6
REMARK    3  A    between atoms: C_14  and  O_15
REMARK    4  A    between atoms: O_15  and  C_16
REMARK    5  A    between atoms: C_16  and  C_17
REMARK    6  A    between atoms: C_21  and  O_22
REMARK    7  A    between atoms: O_22  and  C_23
REMARK                            x       y       z     vdW  Elec       q    Type
REMARK                         _______ _______ _______ _____ _____    ______ ____
ROOT
ATOM      1  O   UNL     1       2.202   3.492  21.909  0.00  0.00    +0.000 OA
ATOM      2  C   UNL     1       2.392   4.237  20.955  0.00  0.00    +0.000 A 
ATOM      3  C   UNL     1       3.092   3.747  19.756  0.00  0.00    +0.000 A 
ATOM      4  C   UNL     1       3.372   4.513  18.693  0.00  0.00    +0.000 A 
ATOM      5  C   UNL     1       2.969   5.921  18.747  0.00  0.00    +0.000 A 
ATOM      6  C   UNL     1       3.275   6.833  17.737  0.00  0.00    +0.000 A 
ATOM      7  C   UNL     1       2.851   8.153  17.817  0.00  0.00    +0.000 A 
ATOM      8  C   UNL     1       2.070   8.588  18.890  0.00  0.00    +0.000 A 
ATOM      9  C   UNL     1       1.789   7.707  19.935  0.00  0.00    +0.000 A 
ATOM     10  C   UNL     1       2.246   6.392  19.848  0.00  0.00    +0.000 A 
ATOM     11  O   UNL     1       1.939   5.544  20.930  0.00  0.00    +0.000 OA
ENDROOT
BRANCH   4  12
ATOM     12  C   UNL     1       4.039   3.948  17.456  0.00  0.00    +0.000 C 
BRANCH  12  13
ATOM     13  N   UNL     1       5.463   4.245  17.400  0.00  0.00    +0.000 N 
ATOM     14  C   UNL     1       6.250   4.624  18.453  0.00  0.00    +0.000 A 
ATOM     15  C   UNL     1       7.489   4.859  17.902  0.00  0.00    +0.000 A 
ATOM     16  N   UNL     1       7.488   4.562  16.564  0.00  0.00    +0.000 NA
ATOM     17  C   UNL     1       6.262   4.175  16.295  0.00  0.00    +0.000 A 
ENDBRANCH  12  13
ENDBRANCH   4  12
BRANCH   8  18
ATOM     18  O   UNL     1       1.547   9.848  18.974  0.00  0.00    +0.000 OA
BRANCH  18  19
ATOM     19  C   UNL     1       0.806  10.068  20.181  0.00  0.00    +0.000 C 
BRANCH  19  20
ATOM     20  C   UNL     1      -0.433  10.880  19.938  0.00  0.00    +0.000 A 
ATOM     21  C   UNL     1      -1.068  11.575  20.971  0.00  0.00    +0.000 A 
ATOM     22  C   UNL     1      -2.265  12.241  20.726  0.00  0.00    +0.000 A 
ATOM     23  C   UNL     1      -2.822  12.221  19.449  0.00  0.00    +0.000 A 
ATOM     24  C   UNL     1      -2.191  11.545  18.402  0.00  0.00    +0.000 A 
ATOM     25  C   UNL     1      -1.023  10.838  18.666  0.00  0.00    +0.000 A 
BRANCH  24  26
ATOM     26  O   UNL     1      -2.834  11.578  17.206  0.00  0.00    +0.000 OA
BRANCH  26  27
ATOM     27  C   UNL     1      -3.398  10.381  16.683  0.00  0.00    +0.000 C 
ATOM     28  F   UNL     1      -3.738   9.460  17.609  0.00  0.00    +0.000 F 
ATOM     29  F   UNL     1      -4.504  10.692  15.969  0.00  0.00    +0.000 F 
ATOM     30  F   UNL     1      -2.504   9.810  15.847  0.00  0.00    +0.000 F 
ENDBRANCH  26  27
ENDBRANCH  24  26
ENDBRANCH  19  20
ENDBRANCH  18  19
ENDBRANCH   8  18
TORSDOF 7
ENDMDL
MODEL 3
REMARK VINA RESULT:      -8.1      5.777      9.699
REMARK  Name = 
REMARK  7 active torsions:
REMARK  status: ('A' for Active; 'I' for Inactive)
REMARK    1  A    between atoms: C_4  and  C_5
REMARK    2  A    between atoms: C_5  and  N_6
REMARK    3  A    between atoms: C_14  and  O_15
REMARK    4  A    between atoms: O_15  and  C_16
REMARK    5  A    between atoms: C_16  and  C_17
REMARK    6  A    between atoms: C_21  and  O_22
REMARK    7  A    between atoms: O_22  and  C_23
REMARK                            x       y       z     vdW  Elec       q    Type
REMARK                         _______ _______ _______ _____ _____    ______ ____
ROOT
ATOM      1  O   UNL     1       2.217   4.459  21.667  0.00  0.00    +0.000 OA
ATOM      2  C   UNL     1       2.289   5.288  20.767  0.00  0.00    +0.000 A 
ATOM      3  C   UNL     1       3.117   5.025  19.578  0.00  0.00    +0.000 A 
ATOM      4  C   UNL     1       3.277   5.899  18.575  0.00  0.00    +0.000 A 
ATOM      5  C   UNL     1       2.598   7.193  18.688  0.00  0.00    +0.000 A 
ATOM      6  C   UNL     1       2.752   8.211  17.748  0.00  0.00    +0.000 A 
ATOM      7  C   UNL     1       2.069   9.413  17.882  0.00  0.00    +0.000 A 
ATOM      8  C   UNL     1       1.178   9.614  18.938  0.00  0.00    +0.000 A 
ATOM      9  C   UNL     1       1.041   8.629  19.916  0.00  0.00    +0.000 A 
ATOM     10  C   UNL     1       1.756   7.438  19.778  0.00  0.00    +0.000 A 
ATOM     11  O   UNL     1       1.585   6.478  20.794  0.00  0.00    +0.000 OA
ENDROOT
BRANCH   4  12
ATOM     12  C   UNL     1       4.089   5.558  17.342  0.00  0.00    +0.000 C 
BRANCH  12  13
ATOM     13  N   UNL     1       5.479   5.256  17.651  0.00  0.00    +0.000 N 
ATOM     14  C   UNL     1       6.415   4.776  16.777  0.00  0.00    +0.000 A 
ATOM     15  C   UNL     1       7.544   4.583  17.538  0.00  0.00    +0.000 A 
ATOM     16  N   UNL     1       7.338   5.000  18.827  0.00  0.00    +0.000 NA
ATOM     17  C   UNL     1       6.093   5.420  18.861  0.00  0.00    +0.000 A 
ENDBRANCH  12  13
ENDBRANCH   4  12
BRANCH   8  18
ATOM     18  O   UNL     1       0.411  10.738  19.067  0.00  0.00    +0.000 OA
BRANCH  18  19
ATOM     19  C   UNL     1      -0.941  10.452  19.451  0.00  0.00    +0.000 C 
BRANCH  19  20
ATOM     20  C   UNL     1      -1.874  10.476  18.275  0.00  0.00    +0.000 A 
ATOM     21  C   UNL     1      -1.582   9.788  17.094  0.00  0.00    +0.000 A 
ATOM     22  C   UNL     1      -2.426   9.907  15.994  0.00  0.00    +0.000 A 
ATOM     23  C   UNL     1      -3.565  10.705  16.078  0.00  0.00    +0.000 A 
ATOM     24  C   UNL     1      -3.880  11.385  17.257  0.00  0.00    +0.000 A 
ATOM     25  C   UNL     1      -3.005  11.302  18.334  0.00  0.00    +0.000 A 
BRANCH  24  26
ATOM     26  O   UNL     1      -5.005  12.147  17.216  0.00  0.00    +0.000 OA
BRANCH  26  27
ATOM     27  C   UNL     1      -6.129  11.775  18.004  0.00  0.00    +0.000 C 
ATOM     28  F   UNL     1      -6.102  12.218  19.279  0.00  0.00    +0.000 F 
ATOM     29  F   UNL     1      -7.252  12.246  17.416  0.00  0.00    +0.000 F 
ATOM     30  F   UNL     1      -6.206  10.427  18.040  0.00  0.00    +0.000 F 
ENDBRANCH  26  27
ENDBRANCH  24  26
ENDBRANCH  19  20
ENDBRANCH  18  19
ENDBRANCH   8  18
TORSDOF 7
ENDMDL
MODEL 4
REMARK VINA RESULT:      -8.1      4.944      9.124
REMARK  Name = 
REMARK  7 active torsions:
REMARK  status: ('A' for Active; 'I' for Inactive)
REMARK    1  A    between atoms: C_4  and  C_5
REMARK    2  A    between atoms: C_5  and  N_6
REMARK    3  A    between atoms: C_14  and  O_15
REMARK    4  A    between atoms: O_15  and  C_16
REMARK    5  A    between atoms: C_16  and  C_17
REMARK    6  A    between atoms: C_21  and  O_22
REMARK    7  A    between atoms: O_22  and  C_23
REMARK                            x       y       z     vdW  Elec       q    Type
REMARK                         _______ _______ _______ _____ _____    ______ ____
ROOT
ATOM      1  O   UNL     1       6.779   3.968  16.011  0.00  0.00    +0.000 OA
ATOM      2  C   UNL     1       5.730   4.304  16.547  0.00  0.00    +0.000 A 
ATOM      3  C   UNL     1       4.769   3.286  17.006  0.00  0.00    +0.000 A 
ATOM      4  C   UNL     1       3.586   3.578  17.563  0.00  0.00    +0.000 A 
ATOM      5  C   UNL     1       3.232   4.994  17.701  0.00  0.00    +0.000 A 
ATOM      6  C   UNL     1       1.997   5.419  18.192  0.00  0.00    +0.000 A 
ATOM      7  C   UNL     1       1.713   6.771  18.330  0.00  0.00    +0.000 A 
ATOM      8  C   UNL     1       2.674   7.737  18.022  0.00  0.00    +0.000 A 
ATOM      9  C   UNL     1       3.899   7.339  17.487  0.00  0.00    +0.000 A 
ATOM     10  C   UNL     1       4.156   5.976  17.331  0.00  0.00    +0.000 A 
ATOM     11  O   UNL     1       5.405   5.628  16.784  0.00  0.00    +0.000 OA
ENDROOT
BRANCH   4  12
ATOM     12  C   UNL     1       2.658   2.496  18.076  0.00  0.00    +0.000 C 
BRANCH  12  13
ATOM     13  N   UNL     1       2.463   2.560  19.517  0.00  0.00    +0.000 N 
ATOM     14  C   UNL     1       1.261   2.591  20.169  0.00  0.00    +0.000 A 
ATOM     15  C   UNL     1       1.583   2.723  21.500  0.00  0.00    +0.000 A 
ATOM     16  N   UNL     1       2.942   2.697  21.675  0.00  0.00    +0.000 NA
ATOM     17  C   UNL     1       3.445   2.577  20.467  0.00  0.00    +0.000 A 
ENDBRANCH  12  13
ENDBRANCH   4  12
BRANCH   8  18
ATOM     18  O   UNL     1       2.482   9.075  18.227  0.00  0.00    +0.000 OA
BRANCH  18  19
ATOM     19  C   UNL     1       1.418   9.353  19.145  0.00  0.00    +0.000 C 
BRANCH  19  20
ATOM     20  C   UNL     1       0.650  10.583  18.756  0.00  0.00    +0.000 A 
ATOM     21  C   UNL     1       1.224  11.856  18.818  0.00  0.00    +0.000 A 
ATOM     22  C   UNL     1       0.455  12.980  18.536  0.00  0.00    +0.000 A 
ATOM     23  C   UNL     1      -0.886  12.833  18.185  0.00  0.00    +0.000 A 
ATOM     24  C   UNL     1      -1.470  11.567  18.102  0.00  0.00    +0.000 A 
ATOM     25  C   UNL     1      -0.709  10.452  18.435  0.00  0.00    +0.000 A 
BRANCH  24  26
ATOM     26  O   UNL     1      -2.787  11.546  17.768  0.00  0.00    +0.000 OA
BRANCH  26  27
ATOM     27  C   UNL     1      -3.199  10.863  16.589  0.00  0.00    +0.000 C 
ATOM     28  F   UNL     1      -3.166   9.517  16.671  0.00  0.00    +0.000 F 
ATOM     29  F   UNL     1      -4.461  11.239  16.282  0.00  0.00    +0.000 F 
ATOM     30  F   UNL     1      -2.391  11.232  15.571  0.00  0.00    +0.000 F 
ENDBRANCH  26  27
ENDBRANCH  24  26
ENDBRANCH  19  20
ENDBRANCH  18  19
ENDBRANCH   8  18
TORSDOF 7
ENDMDL
MODEL 5
REMARK VINA RESULT:      -8.1      1.613      2.047
REMARK  Name = 
REMARK  7 active torsions:
REMARK  status: ('A' for Active; 'I' for Inactive)
REMARK    1  A    between atoms: C_4  and  C_5
REMARK    2  A    between atoms: C_5  and  N_6
REMARK    3  A    between atoms: C_14  and  O_15
REMARK    4  A    between atoms: O_15  and  C_16
REMARK    5  A    between atoms: C_16  and  C_17
REMARK    6  A    between atoms: C_21  and  O_22
REMARK    7  A    between atoms: O_22  and  C_23
REMARK                            x       y       z     vdW  Elec       q    Type
REMARK                         _______ _______ _______ _____ _____    ______ ____
ROOT
ATOM      1  O   UNL     1       0.267  10.075  23.217  0.00  0.00    +0.000 OA
ATOM      2  C   UNL     1       0.671   9.772  22.101  0.00  0.00    +0.000 A 
ATOM      3  C   UNL     1       0.676  10.768  21.016  0.00  0.00    +0.000 A 
ATOM      4  C   UNL     1       1.065  10.501  19.762  0.00  0.00    +0.000 A 
ATOM      5  C   UNL     1       1.490   9.130  19.461  0.00  0.00    +0.000 A 
ATOM      6  C   UNL     1       1.839   8.712  18.178  0.00  0.00    +0.000 A 
ATOM      7  C   UNL     1       2.260   7.410  17.943  0.00  0.00    +0.000 A 
ATOM      8  C   UNL     1       2.386   6.500  18.995  0.00  0.00    +0.000 A 
ATOM      9  C   UNL     1       1.999   6.880  20.279  0.00  0.00    +0.000 A 
ATOM     10  C   UNL     1       1.554   8.185  20.491  0.00  0.00    +0.000 A 
ATOM     11  O   UNL     1       1.172   8.517  21.805  0.00  0.00    +0.000 OA
ENDROOT
BRANCH   4  12
ATOM     12  C   UNL     1       1.111  11.575  18.695  0.00  0.00    +0.000 C 
BRANCH  12  13
ATOM     13  N   UNL     1       0.695  12.878  19.191  0.00  0.00    +0.000 N 
ATOM     14  C   UNL     1       1.482  13.779  19.854  0.00  0.00    +0.000 A 
ATOM     15  C   UNL     1       0.637  14.815  20.180  0.00  0.00    +0.000 A 
ATOM     16  N   UNL     1      -0.616  14.597  19.670  0.00  0.00    +0.000 NA
ATOM     17  C   UNL     1      -0.546  13.435  19.062  0.00  0.00    +0.000 A 
ENDBRANCH  12  13
ENDBRANCH   4  12
BRANCH   8  18
ATOM     18  O   UNL     1       2.884   5.237  18.836  0.00  0.00    +0.000 OA
BRANCH  18  19
ATOM     19  C   UNL     1       4.140   5.043  19.499  0.00  0.00    +0.000 C 
BRANCH  19  20
ATOM     20  C   UNL     1       5.302   5.348  18.598  0.00  0.00    +0.000 A 
ATOM     21  C   UNL     1       6.546   5.727  19.110  0.00  0.00    +0.000 A 
ATOM     22  C   UNL     1       7.573   6.089  18.243  0.00  0.00    +0.000 A 
ATOM     23  C   UNL     1       7.359   6.066  16.866  0.00  0.00    +0.000 A 
ATOM     24  C   UNL     1       6.126   5.674  16.339  0.00  0.00    +0.000 A 
ATOM     25  C   UNL     1       5.090   5.363  17.212  0.00  0.00    +0.000 A 
BRANCH  24  26
ATOM     26  O   UNL     1       6.027   5.707  14.984  0.00  0.00    +0.000 OA
BRANCH  26  27
ATOM     27  C   UNL     1       6.179   4.502  14.242  0.00  0.00    +0.000 C 
ATOM     28  F   UNL     1       6.513   3.420  14.977  0.00  0.00    +0.000 F 
ATOM     29  F   UNL     1       5.022   4.235  13.596  0.00  0.00    +0.000 F 
ATOM     30  F   UNL     1       7.147   4.683  13.317  0.00  0.00    +0.000 F 
ENDBRANCH  26  27
ENDBRANCH  24  26
ENDBRANCH  19  20
ENDBRANCH  18  19
ENDBRANCH   8  18
TORSDOF 7
ENDMDL
MODEL 6
REMARK VINA RESULT:      -8.0      3.117      5.356
REMARK  Name = 
REMARK  7 active torsions:
REMARK  status: ('A' for Active; 'I' for Inactive)
REMARK    1  A    between atoms: C_4  and  C_5
REMARK    2  A    between atoms: C_5  and  N_6
REMARK    3  A    between atoms: C_14  and  O_15
REMARK    4  A    between atoms: O_15  and  C_16
REMARK    5  A    between atoms: C_16  and  C_17
REMARK    6  A    between atoms: C_21  and  O_22
REMARK    7  A    between atoms: O_22  and  C_23
REMARK                            x       y       z     vdW  Elec       q    Type
REMARK                         _______ _______ _______ _____ _____    ______ ____
ROOT
ATOM      1  O   UNL     1      -3.689  10.069  14.256  0.00  0.00    +0.000 OA
ATOM      2  C   UNL     1      -3.450  10.423  15.405  0.00  0.00    +0.000 A 
ATOM      3  C   UNL     1      -4.437  11.214  16.159  0.00  0.00    +0.000 A 
ATOM      4  C   UNL     1      -4.230  11.670  17.403  0.00  0.00    +0.000 A 
ATOM      5  C   UNL     1      -2.938  11.373  18.028  0.00  0.00    +0.000 A 
ATOM      6  C   UNL     1      -2.578  11.860  19.284  0.00  0.00    +0.000 A 
ATOM      7  C   UNL     1      -1.353  11.531  19.850  0.00  0.00    +0.000 A 
ATOM      8  C   UNL     1      -0.471  10.670  19.194  0.00  0.00    +0.000 A 
ATOM      9  C   UNL     1      -0.789  10.207  17.918  0.00  0.00    +0.000 A 
ATOM     10  C   UNL     1      -2.013  10.568  17.355  0.00  0.00    +0.000 A 
ATOM     11  O   UNL     1      -2.284  10.077  16.063  0.00  0.00    +0.000 OA
ENDROOT
BRANCH   4  12
ATOM     12  C   UNL     1      -5.300  12.429  18.162  0.00  0.00    +0.000 C 
BRANCH  12  13
ATOM     13  N   UNL     1      -6.033  11.584  19.092  0.00  0.00    +0.000 N 
ATOM     14  C   UNL     1      -6.654  10.402  18.793  0.00  0.00    +0.000 A 
ATOM     15  C   UNL     1      -7.265  10.016  19.963  0.00  0.00    +0.000 A 
ATOM     16  N   UNL     1      -6.971  10.892  20.975  0.00  0.00    +0.000 NA
ATOM     17  C   UNL     1      -6.211  11.813  20.427  0.00  0.00    +0.000 A 
ENDBRANCH  12  13
ENDBRANCH   4  12
BRANCH   8  18
ATOM     18  O   UNL     1       0.704  10.239  19.745  0.00  0.00    +0.000 OA
BRANCH  18  19
ATOM     19  C   UNL     1       1.551   9.570  18.802  0.00  0.00    +0.000 C 
BRANCH  19  20
ATOM     20  C   UNL     1       1.842   8.156  19.215  0.00  0.00    +0.000 A 
ATOM     21  C   UNL     1       1.456   7.664  20.465  0.00  0.00    +0.000 A 
ATOM     22  C   UNL     1       1.822   6.378  20.848  0.00  0.00    +0.000 A 
ATOM     23  C   UNL     1       2.566   5.581  19.981  0.00  0.00    +0.000 A 
ATOM     24  C   UNL     1       2.945   6.052  18.721  0.00  0.00    +0.000 A 
ATOM     25  C   UNL     1       2.620   7.356  18.366  0.00  0.00    +0.000 A 
BRANCH  24  26
ATOM     26  O   UNL     1       3.683   5.195  17.968  0.00  0.00    +0.000 OA
BRANCH  26  27
ATOM     27  C   UNL     1       3.077   4.014  17.457  0.00  0.00    +0.000 C 
ATOM     28  F   UNL     1       3.228   2.917  18.228  0.00  0.00    +0.000 F 
ATOM     29  F   UNL     1       1.753   4.236  17.290  0.00  0.00    +0.000 F 
ATOM     30  F   UNL     1       3.613   3.741  16.247  0.00  0.00    +0.000 F 
ENDBRANCH  26  27
ENDBRANCH  24  26
ENDBRANCH  19  20
ENDBRANCH  18  19
ENDBRANCH   8  18
TORSDOF 7
ENDMDL
MODEL 7
REMARK VINA RESULT:      -8.0      4.964      9.209
REMARK  Name = 
REMARK  7 active torsions:
REMARK  status: ('A' for Active; 'I' for Inactive)
REMARK    1  A    between atoms: C_4  and  C_5
REMARK    2  A    between atoms: C_5  and  N_6
REMARK    3  A    between atoms: C_14  and  O_15
REMARK    4  A    between atoms: O_15  and  C_16
REMARK    5  A    between atoms: C_16  and  C_17
REMARK    6  A    between atoms: C_21  and  O_22
REMARK    7  A    between atoms: O_22  and  C_23
REMARK                            x       y       z     vdW  Elec       q    Type
REMARK                         _______ _______ _______ _____ _____    ______ ____
ROOT
ATOM      1  O   UNL     1       7.362   4.482  15.907  0.00  0.00    +0.000 OA
ATOM      2  C   UNL     1       6.260   4.693  16.400  0.00  0.00    +0.000 A 
ATOM      3  C   UNL     1       5.375   3.570  16.752  0.00  0.00    +0.000 A 
ATOM      4  C   UNL     1       4.143   3.723  17.256  0.00  0.00    +0.000 A 
ATOM      5  C   UNL     1       3.653   5.092  17.446  0.00  0.00    +0.000 A 
ATOM      6  C   UNL     1       2.362   5.377  17.887  0.00  0.00    +0.000 A 
ATOM      7  C   UNL     1       1.948   6.689  18.077  0.00  0.00    +0.000 A 
ATOM      8  C   UNL     1       2.830   7.752  17.873  0.00  0.00    +0.000 A 
ATOM      9  C   UNL     1       4.112   7.496  17.387  0.00  0.00    +0.000 A 
ATOM     10  C   UNL     1       4.501   6.172  17.178  0.00  0.00    +0.000 A 
ATOM     11  O   UNL     1       5.804   5.967  16.684  0.00  0.00    +0.000 OA
ENDROOT
BRANCH   4  12
ATOM     12  C   UNL     1       3.293   2.536  17.661  0.00  0.00    +0.000 C 
BRANCH  12  13
ATOM     13  N   UNL     1       2.934   2.558  19.071  0.00  0.00    +0.000 N 
ATOM     14  C   UNL     1       3.802   2.646  20.125  0.00  0.00    +0.000 A 
ATOM     15  C   UNL     1       3.009   2.558  21.245  0.00  0.00    +0.000 A 
ATOM     16  N   UNL     1       1.685   2.492  20.899  0.00  0.00    +0.000 NA
ATOM     17  C   UNL     1       1.669   2.515  19.585  0.00  0.00    +0.000 A 
ENDBRANCH  12  13
ENDBRANCH   4  12
BRANCH   8  18
ATOM     18  O   UNL     1       2.506   9.055  18.134  0.00  0.00    +0.000 OA
BRANCH  18  19
ATOM     19  C   UNL     1       1.341   9.187  18.960  0.00  0.00    +0.000 C 
BRANCH  19  20
ATOM     20  C   UNL     1       0.593  10.456  18.673  0.00  0.00    +0.000 A 
ATOM     21  C   UNL     1       1.204  11.708  18.784  0.00  0.00    +0.000 A 
ATOM     22  C   UNL     1       0.454  12.866  18.599  0.00  0.00    +0.000 A 
ATOM     23  C   UNL     1      -0.902  12.772  18.295  0.00  0.00    +0.000 A 
ATOM     24  C   UNL     1      -1.524  11.528  18.164  0.00  0.00    +0.000 A 
ATOM     25  C   UNL     1      -0.781  10.378  18.401  0.00  0.00    +0.000 A 
BRANCH  24  26
ATOM     26  O   UNL     1      -2.853  11.559  17.884  0.00  0.00    +0.000 OA
BRANCH  26  27
ATOM     27  C   UNL     1      -3.320  11.033  16.647  0.00  0.00    +0.000 C 
ATOM     28  F   UNL     1      -4.505  11.527  16.230  0.00  0.00    +0.000 F 
ATOM     29  F   UNL     1      -2.397  11.279  15.690  0.00  0.00    +0.000 F 
ATOM     30  F   UNL     1      -3.454   9.695  16.769  0.00  0.00    +0.000 F 
ENDBRANCH  26  27
ENDBRANCH  24  26
ENDBRANCH  19  20
ENDBRANCH  18  19
ENDBRANCH   8  18
TORSDOF 7
ENDMDL
MODEL 8
REMARK VINA RESULT:      -8.0      3.776      5.352
REMARK  Name = 
REMARK  7 active torsions:
REMARK  status: ('A' for Active; 'I' for Inactive)
REMARK    1  A    between atoms: C_4  and  C_5
REMARK    2  A    between atoms: C_5  and  N_6
REMARK    3  A    between atoms: C_14  and  O_15
REMARK    4  A    between atoms: O_15  and  C_16
REMARK    5  A    between atoms: C_16  and  C_17
REMARK    6  A    between atoms: C_21  and  O_22
REMARK    7  A    between atoms: O_22  and  C_23
REMARK                            x       y       z     vdW  Elec       q    Type
REMARK                         _______ _______ _______ _____ _____    ______ ____
ROOT
ATOM      1  O   UNL     1      -3.636  10.497  15.050  0.00  0.00    +0.000 OA
ATOM      2  C   UNL     1      -3.126  10.621  16.157  0.00  0.00    +0.000 A 
ATOM      3  C   UNL     1      -3.788  11.428  17.195  0.00  0.00    +0.000 A 
ATOM      4  C   UNL     1      -3.272  11.642  18.414  0.00  0.00    +0.000 A 
ATOM      5  C   UNL     1      -1.965  11.048  18.710  0.00  0.00    +0.000 A 
ATOM      6  C   UNL     1      -1.293  11.265  19.912  0.00  0.00    +0.000 A 
ATOM      7  C   UNL     1      -0.067  10.661  20.162  0.00  0.00    +0.000 A 
ATOM      8  C   UNL     1       0.499   9.786  19.232  0.00  0.00    +0.000 A 
ATOM      9  C   UNL     1      -0.131   9.588  18.004  0.00  0.00    +0.000 A 
ATOM     10  C   UNL     1      -1.349  10.225  17.762  0.00  0.00    +0.000 A 
ATOM     11  O   UNL     1      -1.943   9.995  16.506  0.00  0.00    +0.000 OA
ENDROOT
BRANCH   4  12
ATOM     12  C   UNL     1      -4.020  12.429  19.470  0.00  0.00    +0.000 C 
BRANCH  12  13
ATOM     13  N   UNL     1      -5.463  12.380  19.290  0.00  0.00    +0.000 N 
ATOM     14  C   UNL     1      -6.235  13.338  18.691  0.00  0.00    +0.000 A 
ATOM     15  C   UNL     1      -7.527  12.884  18.822  0.00  0.00    +0.000 A 
ATOM     16  N   UNL     1      -7.550  11.649  19.415  0.00  0.00    +0.000 NA
ATOM     17  C   UNL     1      -6.292  11.362  19.666  0.00  0.00    +0.000 A 
ENDBRANCH  12  13
ENDBRANCH   4  12
BRANCH   8  18
ATOM     18  O   UNL     1       1.655   9.093  19.464  0.00  0.00    +0.000 OA
BRANCH  18  19
ATOM     19  C   UNL     1       2.202   8.504  18.277  0.00  0.00    +0.000 C 
BRANCH  19  20
ATOM     20  C   UNL     1       2.804   7.155  18.547  0.00  0.00    +0.000 A 
ATOM     21  C   UNL     1       3.719   6.572  17.667  0.00  0.00    +0.000 A 
ATOM     22  C   UNL     1       4.186   5.283  17.904  0.00  0.00    +0.000 A 
ATOM     23  C   UNL     1       3.745   4.580  19.024  0.00  0.00    +0.000 A 
ATOM     24  C   UNL     1       2.844   5.156  19.922  0.00  0.00    +0.000 A 
ATOM     25  C   UNL     1       2.343   6.424  19.651  0.00  0.00    +0.000 A 
BRANCH  24  26
ATOM     26  O   UNL     1       2.471   4.372  20.967  0.00  0.00    +0.000 OA
BRANCH  26  27
ATOM     27  C   UNL     1       1.549   3.311  20.751  0.00  0.00    +0.000 C 
ATOM     28  F   UNL     1       2.050   2.248  20.087  0.00  0.00    +0.000 F 
ATOM     29  F   UNL     1       1.083   2.883  21.946  0.00  0.00    +0.000 F 
ATOM     30  F   UNL     1       0.504   3.784  20.037  0.00  0.00    +0.000 F 
ENDBRANCH  26  27
ENDBRANCH  24  26
ENDBRANCH  19  20
ENDBRANCH  18  19
ENDBRANCH   8  18
TORSDOF 7
ENDMDL
MODEL 9
REMARK VINA RESULT:      -8.0      5.802      9.998
REMARK  Name = 
REMARK  7 active torsions:
REMARK  status: ('A' for Active; 'I' for Inactive)
REMARK    1  A    between atoms: C_4  and  C_5
REMARK    2  A    between atoms: C_5  and  N_6
REMARK    3  A    between atoms: C_14  and  O_15
REMARK    4  A    between atoms: O_15  and  C_16
REMARK    5  A    between atoms: C_16  and  C_17
REMARK    6  A    between atoms: C_21  and  O_22
REMARK    7  A    between atoms: O_22  and  C_23
REMARK                            x       y       z     vdW  Elec       q    Type
REMARK                         _______ _______ _______ _____ _____    ______ ____
ROOT
ATOM      1  O   UNL     1       2.777   2.404  21.386  0.00  0.00    +0.000 OA
ATOM      2  C   UNL     1       2.782   3.375  20.639  0.00  0.00    +0.000 A 
ATOM      3  C   UNL     1       3.437   3.297  19.323  0.00  0.00    +0.000 A 
ATOM      4  C   UNL     1       3.519   4.328  18.470  0.00  0.00    +0.000 A 
ATOM      5  C   UNL     1       2.934   5.604  18.891  0.00  0.00    +0.000 A 
ATOM      6  C   UNL     1       3.026   6.766  18.125  0.00  0.00    +0.000 A 
ATOM      7  C   UNL     1       2.435   7.948  18.551  0.00  0.00    +0.000 A 
ATOM      8  C   UNL     1       1.697   7.991  19.735  0.00  0.00    +0.000 A 
ATOM      9  C   UNL     1       1.629   6.855  20.542  0.00  0.00    +0.000 A 
ATOM     10  C   UNL     1       2.251   5.683  20.109  0.00  0.00    +0.000 A 
ATOM     11  O   UNL     1       2.156   4.566  20.961  0.00  0.00    +0.000 OA
ENDROOT
BRANCH   4  12
ATOM     12  C   UNL     1       4.149   4.181  17.100  0.00  0.00    +0.000 C 
BRANCH  12  13
ATOM     13  N   UNL     1       5.593   4.357  17.124  0.00  0.00    +0.000 N 
ATOM     14  C   UNL     1       6.351   4.659  18.222  0.00  0.00    +0.000 A 
ATOM     15  C   UNL     1       7.633   4.792  17.741  0.00  0.00    +0.000 A 
ATOM     16  N   UNL     1       7.681   4.507  16.402  0.00  0.00    +0.000 NA
ATOM     17  C   UNL     1       6.443   4.228  16.062  0.00  0.00    +0.000 A 
ENDBRANCH  12  13
ENDBRANCH   4  12
BRANCH   8  18
ATOM     18  O   UNL     1       1.018   9.100  20.155  0.00  0.00    +0.000 OA
BRANCH  18  19
ATOM     19  C   UNL     1       0.805  10.055  19.106  0.00  0.00    +0.000 C 
BRANCH  19  20
ATOM     20  C   UNL     1      -0.503  10.776  19.263  0.00  0.00    +0.000 A 
ATOM     21  C   UNL     1      -1.542  10.616  18.342  0.00  0.00    +0.000 A 
ATOM     22  C   UNL     1      -2.705  11.369  18.470  0.00  0.00    +0.000 A 
ATOM     23  C   UNL     1      -2.833  12.275  19.521  0.00  0.00    +0.000 A 
ATOM     24  C   UNL     1      -1.811  12.434  20.459  0.00  0.00    +0.000 A 
ATOM     25  C   UNL     1      -0.631  11.716  20.295  0.00  0.00    +0.000 A 
BRANCH  24  26
ATOM     26  O   UNL     1      -2.038  13.358  21.429  0.00  0.00    +0.000 OA
BRANCH  26  27
ATOM     27  C   UNL     1      -2.125  12.939  22.786  0.00  0.00    +0.000 C 
ATOM     28  F   UNL     1      -2.581  11.682  22.966  0.00  0.00    +0.000 F 
ATOM     29  F   UNL     1      -0.901  13.032  23.353  0.00  0.00    +0.000 F 
ATOM     30  F   UNL     1      -2.958  13.775  23.444  0.00  0.00    +0.000 F 
ENDBRANCH  26  27
ENDBRANCH  24  26
ENDBRANCH  19  20
ENDBRANCH  18  19
ENDBRANCH   8  18
TORSDOF 7
ENDMDL
