MODEL 1
REMARK VINA RESULT:      -8.6      0.000      0.000
REMARK  Name = 
REMARK  9 active torsions:
REMARK  status: ('A' for Active; 'I' for Inactive)
REMARK    1  A    between atoms: C_1  and  C_2
REMARK    2  A    between atoms: C_5  and  C_6
REMARK    3  A    between atoms: C_6  and  N_7
REMARK    4  A    between atoms: C_8  and  C_10
REMARK    5  A    between atoms: N_12  and  C_13
REMARK    6  A    between atoms: C_13  and  C_14
REMARK    7  A    between atoms: N_18  and  S_19
REMARK    8  A    between atoms: S_19  and  C_22
REMARK    9  A    between atoms: C_25  and  C_26
REMARK                            x       y       z     vdW  Elec       q    Type
REMARK                         _______ _______ _______ _____ _____    ______ ____
ROOT
ATOM      1  C   UNL     1       1.691   7.671  20.486  0.00  0.00    +0.000 C 
ATOM      2  O   UNL     1       1.631   8.068  21.643  0.00  0.00    +0.000 OA
ATOM      3  N   UNL     1       1.805   6.360  20.090  0.00  0.00    +0.000 N 
ATOM      4  H   UNL     1       1.978   6.195  19.099  0.00  0.00    +0.000 HD
ENDROOT
BRANCH   1   6
ATOM      5  N   UNL     1       0.776   9.747  19.552  0.00  0.00    +0.000 N 
ATOM      6  C   UNL     1       1.619   8.687  19.313  0.00  0.00    +0.000 C 
ATOM      7  O   UNL     1       2.264   8.488  18.292  0.00  0.00    +0.000 OA
ATOM      8  H   UNL     1       0.312   9.769  20.454  0.00  0.00    +0.000 HD
BRANCH   5   9
ATOM      9  C   UNL     1       0.448  10.735  18.558  0.00  0.00    +0.000 C 
BRANCH   9  14
ATOM     10  C   UNL     1      -5.279  11.145  17.530  0.00  0.00    +0.000 C 
ATOM     11  C   UNL     1      -3.809  11.025  17.815  0.00  0.00    +0.000 A 
ATOM     12  C   UNL     1      -3.196  11.829  18.780  0.00  0.00    +0.000 A 
ATOM     13  C   UNL     1      -1.824  11.722  19.026  0.00  0.00    +0.000 A 
ATOM     14  C   UNL     1      -1.036  10.815  18.306  0.00  0.00    +0.000 A 
ATOM     15  C   UNL     1      -1.656   9.995  17.352  0.00  0.00    +0.000 A 
ATOM     16  C   UNL     1      -3.029  10.103  17.108  0.00  0.00    +0.000 A 
ENDBRANCH   9  14
ENDBRANCH   5   9
ENDBRANCH   1   6
BRANCH   3  17
ATOM     17  C   UNL     1       1.960   5.248  21.025  0.00  0.00    +0.000 C 
BRANCH  17  18
ATOM     18  C   UNL     1       2.615   4.011  20.360  0.00  0.00    +0.000 C 
ATOM     19  O   UNL     1       1.634   2.956  20.385  0.00  0.00    +0.000 OA
ATOM     20  C   UNL     1       1.228   2.680  19.043  0.00  0.00    +0.000 C 
ATOM     21  C   UNL     1       1.771   3.804  18.189  0.00  0.00    +0.000 C 
ATOM     22  N   UNL     1       2.955   4.272  18.934  0.00  0.00    +0.000 NA
BRANCH  22  23
ATOM     23  S   UNL     1       4.441   3.564  18.479  0.00  0.00    +0.000 S 
ATOM     24  O   UNL     1       4.958   2.852  19.628  0.00  0.00    +0.000 OA
ATOM     25  O   UNL     1       4.243   2.899  17.209  0.00  0.00    +0.000 OA
BRANCH  23  26
ATOM     26  C   UNL     1       5.517   4.957  18.207  0.00  0.00    +0.000 A 
ATOM     27  C   UNL     1       5.107   5.978  17.347  0.00  0.00    +0.000 A 
ATOM     28  C   UNL     1       5.934   7.087  17.147  0.00  0.00    +0.000 A 
ATOM     29  C   UNL     1       7.167   7.185  17.806  0.00  0.00    +0.000 A 
ATOM     30  C   UNL     1       8.065   8.370  17.590  0.00  0.00    +0.000 C 
ATOM     31  C   UNL     1       7.554   6.167  18.689  0.00  0.00    +0.000 A 
ATOM     32  C   UNL     1       6.733   5.054  18.892  0.00  0.00    +0.000 A 
ENDBRANCH  23  26
ENDBRANCH  22  23
ENDBRANCH  17  18
ENDBRANCH   3  17
TORSDOF 7
ENDMDL
MODEL 2
REMARK VINA RESULT:      -8.6      0.201      1.264
REMARK  Name = 
REMARK  9 active torsions:
REMARK  status: ('A' for Active; 'I' for Inactive)
REMARK    1  A    between atoms: C_1  and  C_2
REMARK    2  A    between atoms: C_5  and  C_6
REMARK    3  A    between atoms: C_6  and  N_7
REMARK    4  A    between atoms: C_8  and  C_10
REMARK    5  A    between atoms: N_12  and  C_13
REMARK    6  A    between atoms: C_13  and  C_14
REMARK    7  A    between atoms: N_18  and  S_19
REMARK    8  A    between atoms: S_19  and  C_22
REMARK    9  A    between atoms: C_25  and  C_26
REMARK                            x       y       z     vdW  Elec       q    Type
REMARK                         _______ _______ _______ _____ _____    ______ ____
ROOT
ATOM      1  C   UNL     1       1.536   7.599  20.661  0.00  0.00    +0.000 C 
ATOM      2  O   UNL     1       1.178   7.925  21.785  0.00  0.00    +0.000 OA
ATOM      3  N   UNL     1       1.938   6.341  20.277  0.00  0.00    +0.000 N 
ATOM      4  H   UNL     1       2.335   6.253  19.342  0.00  0.00    +0.000 HD
ENDROOT
BRANCH   1   6
ATOM      5  N   UNL     1       0.700   9.710  19.733  0.00  0.00    +0.000 N 
ATOM      6  C   UNL     1       1.545   8.647  19.515  0.00  0.00    +0.000 C 
ATOM      7  O   UNL     1       2.248   8.469  18.528  0.00  0.00    +0.000 OA
ATOM      8  H   UNL     1       0.184   9.713  20.607  0.00  0.00    +0.000 HD
BRANCH   5   9
ATOM      9  C   UNL     1       0.443  10.730  18.751  0.00  0.00    +0.000 C 
BRANCH   9  14
ATOM     10  C   UNL     1      -5.261  11.127  17.597  0.00  0.00    +0.000 C 
ATOM     11  C   UNL     1      -3.787  11.040  17.873  0.00  0.00    +0.000 A 
ATOM     12  C   UNL     1      -2.984  10.115  17.200  0.00  0.00    +0.000 A 
ATOM     13  C   UNL     1      -1.616  10.029  17.476  0.00  0.00    +0.000 A 
ATOM     14  C   UNL     1      -1.026  10.859  18.439  0.00  0.00    +0.000 A 
ATOM     15  C   UNL     1      -1.830  11.799  19.099  0.00  0.00    +0.000 A 
ATOM     16  C   UNL     1      -3.198  11.885  18.820  0.00  0.00    +0.000 A 
ENDBRANCH   9  14
ENDBRANCH   5   9
ENDBRANCH   1   6
BRANCH   3  17
ATOM     17  C   UNL     1       2.074   5.222  21.205  0.00  0.00    +0.000 C 
BRANCH  17  18
ATOM     18  C   UNL     1       2.719   3.981  20.536  0.00  0.00    +0.000 C 
ATOM     19  O   UNL     1       1.792   2.891  20.701  0.00  0.00    +0.000 OA
ATOM     20  C   UNL     1       1.276   2.535  19.416  0.00  0.00    +0.000 C 
ATOM     21  C   UNL     1       1.688   3.637  18.465  0.00  0.00    +0.000 C 
ATOM     22  N   UNL     1       2.913   4.187  19.074  0.00  0.00    +0.000 NA
BRANCH  22  23
ATOM     23  S   UNL     1       4.380   3.518  18.512  0.00  0.00    +0.000 S 
ATOM     24  O   UNL     1       4.962   2.761  19.600  0.00  0.00    +0.000 OA
ATOM     25  O   UNL     1       4.124   2.909  17.225  0.00  0.00    +0.000 OA
BRANCH  23  26
ATOM     26  C   UNL     1       5.427   4.934  18.250  0.00  0.00    +0.000 A 
ATOM     27  C   UNL     1       6.664   4.997  18.894  0.00  0.00    +0.000 A 
ATOM     28  C   UNL     1       7.504   6.093  18.676  0.00  0.00    +0.000 A 
ATOM     29  C   UNL     1       7.117   7.125  17.811  0.00  0.00    +0.000 A 
ATOM     30  C   UNL     1       8.010   8.310  17.576  0.00  0.00    +0.000 C 
ATOM     31  C   UNL     1       5.885   7.037  17.147  0.00  0.00    +0.000 A 
ATOM     32  C   UNL     1       5.039   5.945  17.363  0.00  0.00    +0.000 A 
ENDBRANCH  23  26
ENDBRANCH  22  23
ENDBRANCH  17  18
ENDBRANCH   3  17
TORSDOF 7
ENDMDL
MODEL 3
REMARK VINA RESULT:      -8.3      0.639      1.103
REMARK  Name = 
REMARK  9 active torsions:
REMARK  status: ('A' for Active; 'I' for Inactive)
REMARK    1  A    between atoms: C_1  and  C_2
REMARK    2  A    between atoms: C_5  and  C_6
REMARK    3  A    between atoms: C_6  and  N_7
REMARK    4  A    between atoms: C_8  and  C_10
REMARK    5  A    between atoms: N_12  and  C_13
REMARK    6  A    between atoms: C_13  and  C_14
REMARK    7  A    between atoms: N_18  and  S_19
REMARK    8  A    between atoms: S_19  and  C_22
REMARK    9  A    between atoms: C_25  and  C_26
REMARK                            x       y       z     vdW  Elec       q    Type
REMARK                         _______ _______ _______ _____ _____    ______ ____
ROOT
ATOM      1  C   UNL     1       1.596   7.873  20.566  0.00  0.00    +0.000 C 
ATOM      2  O   UNL     1       1.351   8.250  21.705  0.00  0.00    +0.000 OA
ATOM      3  N   UNL     1       2.007   6.611  20.207  0.00  0.00    +0.000 N 
ATOM      4  H   UNL     1       2.301   6.484  19.239  0.00  0.00    +0.000 HD
ENDROOT
BRANCH   1   6
ATOM      5  N   UNL     1       0.825  10.039  19.711  0.00  0.00    +0.000 N 
ATOM      6  C   UNL     1       1.434   8.854  19.373  0.00  0.00    +0.000 C 
ATOM      7  O   UNL     1       1.817   8.527  18.256  0.00  0.00    +0.000 OA
ATOM      8  H   UNL     1       0.566  10.159  20.685  0.00  0.00    +0.000 HD
BRANCH   5   9
ATOM      9  C   UNL     1       0.449  11.039  18.746  0.00  0.00    +0.000 C 
BRANCH   9  14
ATOM     10  C   UNL     1      -5.271  11.089  17.604  0.00  0.00    +0.000 C 
ATOM     11  C   UNL     1      -3.803  11.062  17.919  0.00  0.00    +0.000 A 
ATOM     12  C   UNL     1      -3.250  11.954  18.843  0.00  0.00    +0.000 A 
ATOM     13  C   UNL     1      -1.880  11.932  19.117  0.00  0.00    +0.000 A 
ATOM     14  C   UNL     1      -1.032  11.026  18.466  0.00  0.00    +0.000 A 
ATOM     15  C   UNL     1      -1.592  10.120  17.554  0.00  0.00    +0.000 A 
ATOM     16  C   UNL     1      -2.964  10.141  17.281  0.00  0.00    +0.000 A 
ENDBRANCH   9  14
ENDBRANCH   5   9
ENDBRANCH   1   6
BRANCH   3  17
ATOM     17  C   UNL     1       2.291   5.553  21.172  0.00  0.00    +0.000 C 
BRANCH  17  18
ATOM     18  C   UNL     1       2.773   4.249  20.486  0.00  0.00    +0.000 C 
ATOM     19  O   UNL     1       2.122   3.157  21.164  0.00  0.00    +0.000 OA
ATOM     20  C   UNL     1       1.197   2.548  20.260  0.00  0.00    +0.000 C 
ATOM     21  C   UNL     1       1.072   3.482  19.077  0.00  0.00    +0.000 C 
ATOM     22  N   UNL     1       2.360   4.198  19.056  0.00  0.00    +0.000 NA
BRANCH  22  23
ATOM     23  S   UNL     1       3.566   3.520  18.055  0.00  0.00    +0.000 S 
ATOM     24  O   UNL     1       4.190   2.440  18.790  0.00  0.00    +0.000 OA
ATOM     25  O   UNL     1       2.983   3.301  16.749  0.00  0.00    +0.000 OA
BRANCH  23  26
ATOM     26  C   UNL     1       4.780   4.813  17.905  0.00  0.00    +0.000 A 
ATOM     27  C   UNL     1       6.008   4.675  18.554  0.00  0.00    +0.000 A 
ATOM     28  C   UNL     1       6.977   5.674  18.422  0.00  0.00    +0.000 A 
ATOM     29  C   UNL     1       6.728   6.809  17.639  0.00  0.00    +0.000 A 
ATOM     30  C   UNL     1       7.762   7.891  17.498  0.00  0.00    +0.000 C 
ATOM     31  C   UNL     1       5.502   6.922  16.968  0.00  0.00    +0.000 A 
ATOM     32  C   UNL     1       4.527   5.929  17.098  0.00  0.00    +0.000 A 
ENDBRANCH  23  26
ENDBRANCH  22  23
ENDBRANCH  17  18
ENDBRANCH   3  17
TORSDOF 7
ENDMDL
MODEL 4
REMARK VINA RESULT:      -8.1      2.265      3.077
REMARK  Name = 
REMARK  9 active torsions:
REMARK  status: ('A' for Active; 'I' for Inactive)
REMARK    1  A    between atoms: C_1  and  C_2
REMARK    2  A    between atoms: C_5  and  C_6
REMARK    3  A    between atoms: C_6  and  N_7
REMARK    4  A    between atoms: C_8  and  C_10
REMARK    5  A    between atoms: N_12  and  C_13
REMARK    6  A    between atoms: C_13  and  C_14
REMARK    7  A    between atoms: N_18  and  S_19
REMARK    8  A    between atoms: S_19  and  C_22
REMARK    9  A    between atoms: C_25  and  C_26
REMARK                            x       y       z     vdW  Elec       q    Type
REMARK                         _______ _______ _______ _____ _____    ______ ____
ROOT
ATOM      1  C   UNL     1       1.218   8.794  20.571  0.00  0.00    +0.000 C 
ATOM      2  O   UNL     1       1.052   9.435  19.541  0.00  0.00    +0.000 OA
ATOM      3  N   UNL     1       1.730   7.521  20.653  0.00  0.00    +0.000 N 
ATOM      4  H   UNL     1       1.685   7.068  21.565  0.00  0.00    +0.000 HD
ENDROOT
BRANCH   1   6
ATOM      5  N   UNL     1      -0.343  10.101  21.940  0.00  0.00    +0.000 N 
ATOM      6  C   UNL     1       0.854   9.424  21.943  0.00  0.00    +0.000 C 
ATOM      7  O   UNL     1       1.619   9.308  22.892  0.00  0.00    +0.000 OA
ATOM      8  H   UNL     1      -0.864  10.104  21.069  0.00  0.00    +0.000 HD
BRANCH   5   9
ATOM      9  C   UNL     1      -0.817  10.875  23.057  0.00  0.00    +0.000 C 
BRANCH   9  14
ATOM     10  C   UNL     1      -5.228  14.354  21.487  0.00  0.00    +0.000 C 
ATOM     11  C   UNL     1      -4.078  13.479  21.897  0.00  0.00    +0.000 A 
ATOM     12  C   UNL     1      -3.015  13.234  21.024  0.00  0.00    +0.000 A 
ATOM     13  C   UNL     1      -1.957  12.405  21.408  0.00  0.00    +0.000 A 
ATOM     14  C   UNL     1      -1.947  11.795  22.670  0.00  0.00    +0.000 A 
ATOM     15  C   UNL     1      -3.004  12.058  23.552  0.00  0.00    +0.000 A 
ATOM     16  C   UNL     1      -4.061  12.889  23.166  0.00  0.00    +0.000 A 
ENDBRANCH   9  14
ENDBRANCH   5   9
ENDBRANCH   1   6
BRANCH   3  17
ATOM     17  C   UNL     1       2.073   6.715  19.485  0.00  0.00    +0.000 C 
BRANCH  17  18
ATOM     18  C   UNL     1       2.989   5.518  19.847  0.00  0.00    +0.000 C 
ATOM     19  O   UNL     1       2.483   4.965  21.077  0.00  0.00    +0.000 OA
ATOM     20  C   UNL     1       1.951   3.667  20.807  0.00  0.00    +0.000 C 
ATOM     21  C   UNL     1       1.869   3.539  19.302  0.00  0.00    +0.000 C 
ATOM     22  N   UNL     1       2.924   4.447  18.814  0.00  0.00    +0.000 NA
BRANCH  22  23
ATOM     23  S   UNL     1       4.445   3.726  18.527  0.00  0.00    +0.000 S 
ATOM     24  O   UNL     1       4.864   3.083  19.755  0.00  0.00    +0.000 OA
ATOM     25  O   UNL     1       4.356   2.989  17.285  0.00  0.00    +0.000 OA
BRANCH  23  26
ATOM     26  C   UNL     1       5.536   5.109  18.269  0.00  0.00    +0.000 A 
ATOM     27  C   UNL     1       6.731   5.179  18.987  0.00  0.00    +0.000 A 
ATOM     28  C   UNL     1       7.605   6.248  18.773  0.00  0.00    +0.000 A 
ATOM     29  C   UNL     1       7.295   7.246  17.839  0.00  0.00    +0.000 A 
ATOM     30  C   UNL     1       8.227   8.403  17.609  0.00  0.00    +0.000 C 
ATOM     31  C   UNL     1       6.106   7.149  17.103  0.00  0.00    +0.000 A 
ATOM     32  C   UNL     1       5.226   6.084  17.314  0.00  0.00    +0.000 A 
ENDBRANCH  23  26
ENDBRANCH  22  23
ENDBRANCH  17  18
ENDBRANCH   3  17
TORSDOF 7
ENDMDL
MODEL 5
REMARK VINA RESULT:      -8.0      2.804      3.496
REMARK  Name = 
REMARK  9 active torsions:
REMARK  status: ('A' for Active; 'I' for Inactive)
REMARK    1  A    between atoms: C_1  and  C_2
REMARK    2  A    between atoms: C_5  and  C_6
REMARK    3  A    between atoms: C_6  and  N_7
REMARK    4  A    between atoms: C_8  and  C_10
REMARK    5  A    between atoms: N_12  and  C_13
REMARK    6  A    between atoms: C_13  and  C_14
REMARK    7  A    between atoms: N_18  and  S_19
REMARK    8  A    between atoms: S_19  and  C_22
REMARK    9  A    between atoms: C_25  and  C_26
REMARK                            x       y       z     vdW  Elec       q    Type
REMARK                         _______ _______ _______ _____ _____    ______ ____
ROOT
ATOM      1  C   UNL     1       1.174   8.875  20.713  0.00  0.00    +0.000 C 
ATOM      2  O   UNL     1       0.979   9.506  19.681  0.00  0.00    +0.000 OA
ATOM      3  N   UNL     1       1.787   7.649  20.803  0.00  0.00    +0.000 N 
ATOM      4  H   UNL     1       1.759   7.188  21.712  0.00  0.00    +0.000 HD
ENDROOT
BRANCH   1   6
ATOM      5  N   UNL     1      -0.561   9.947  22.077  0.00  0.00    +0.000 N 
ATOM      6  C   UNL     1       0.727   9.466  22.078  0.00  0.00    +0.000 C 
ATOM      7  O   UNL     1       1.509   9.488  23.020  0.00  0.00    +0.000 OA
ATOM      8  H   UNL     1      -1.084   9.853  21.212  0.00  0.00    +0.000 HD
BRANCH   5   9
ATOM      9  C   UNL     1      -1.140  10.660  23.185  0.00  0.00    +0.000 C 
BRANCH   9  14
ATOM     10  C   UNL     1      -4.465  15.149  21.510  0.00  0.00    +0.000 C 
ATOM     11  C   UNL     1      -3.627  13.977  21.932  0.00  0.00    +0.000 A 
ATOM     12  C   UNL     1      -3.890  13.298  23.125  0.00  0.00    +0.000 A 
ATOM     13  C   UNL     1      -3.094  12.218  23.518  0.00  0.00    +0.000 A 
ATOM     14  C   UNL     1      -2.011  11.803  22.731  0.00  0.00    +0.000 A 
ATOM     15  C   UNL     1      -1.761  12.473  21.525  0.00  0.00    +0.000 A 
ATOM     16  C   UNL     1      -2.560  13.552  21.133  0.00  0.00    +0.000 A 
ENDBRANCH   9  14
ENDBRANCH   5   9
ENDBRANCH   1   6
BRANCH   3  17
ATOM     17  C   UNL     1       2.223   6.879  19.640  0.00  0.00    +0.000 C 
BRANCH  17  18
ATOM     18  C   UNL     1       3.126   5.683  20.034  0.00  0.00    +0.000 C 
ATOM     19  O   UNL     1       2.329   4.816  20.865  0.00  0.00    +0.000 OA
ATOM     20  C   UNL     1       2.095   3.597  20.156  0.00  0.00    +0.000 C 
ATOM     21  C   UNL     1       2.524   3.840  18.726  0.00  0.00    +0.000 C 
ATOM     22  N   UNL     1       3.545   4.897  18.840  0.00  0.00    +0.000 NA
BRANCH  22  23
ATOM     23  S   UNL     1       5.160   4.355  18.953  0.00  0.00    +0.000 S 
ATOM     24  O   UNL     1       5.906   5.349  19.697  0.00  0.00    +0.000 OA
ATOM     25  O   UNL     1       5.133   2.970  19.368  0.00  0.00    +0.000 OA
BRANCH  23  26
ATOM     26  C   UNL     1       5.753   4.414  17.275  0.00  0.00    +0.000 A 
ATOM     27  C   UNL     1       4.877   4.110  16.231  0.00  0.00    +0.000 A 
ATOM     28  C   UNL     1       5.326   4.177  14.909  0.00  0.00    +0.000 A 
ATOM     29  C   UNL     1       6.646   4.552  14.623  0.00  0.00    +0.000 A 
ATOM     30  C   UNL     1       7.139   4.620  13.205  0.00  0.00    +0.000 C 
ATOM     31  C   UNL     1       7.507   4.884  15.678  0.00  0.00    +0.000 A 
ATOM     32  C   UNL     1       7.066   4.816  17.003  0.00  0.00    +0.000 A 
ENDBRANCH  23  26
ENDBRANCH  22  23
ENDBRANCH  17  18
ENDBRANCH   3  17
TORSDOF 7
ENDMDL
MODEL 6
REMARK VINA RESULT:      -8.0      2.799      3.531
REMARK  Name = 
REMARK  9 active torsions:
REMARK  status: ('A' for Active; 'I' for Inactive)
REMARK    1  A    between atoms: C_1  and  C_2
REMARK    2  A    between atoms: C_5  and  C_6
REMARK    3  A    between atoms: C_6  and  N_7
REMARK    4  A    between atoms: C_8  and  C_10
REMARK    5  A    between atoms: N_12  and  C_13
REMARK    6  A    between atoms: C_13  and  C_14
REMARK    7  A    between atoms: N_18  and  S_19
REMARK    8  A    between atoms: S_19  and  C_22
REMARK    9  A    between atoms: C_25  and  C_26
REMARK                            x       y       z     vdW  Elec       q    Type
REMARK                         _______ _______ _______ _____ _____    ______ ____
ROOT
ATOM      1  C   UNL     1       0.978   9.097  20.574  0.00  0.00    +0.000 C 
ATOM      2  O   UNL     1       0.512   9.555  19.538  0.00  0.00    +0.000 OA
ATOM      3  N   UNL     1       1.844   8.033  20.664  0.00  0.00    +0.000 N 
ATOM      4  H   UNL     1       2.041   7.681  21.601  0.00  0.00    +0.000 HD
ENDROOT
BRANCH   1   6
ATOM      5  N   UNL     1      -0.572  10.437  21.923  0.00  0.00    +0.000 N 
ATOM      6  C   UNL     1       0.613   9.738  21.940  0.00  0.00    +0.000 C 
ATOM      7  O   UNL     1       1.367   9.612  22.896  0.00  0.00    +0.000 OA
ATOM      8  H   UNL     1      -1.085  10.446  21.047  0.00  0.00    +0.000 HD
BRANCH   5   9
ATOM      9  C   UNL     1      -1.041  11.224  23.032  0.00  0.00    +0.000 C 
BRANCH   9  14
ATOM     10  C   UNL     1      -5.708  14.464  21.711  0.00  0.00    +0.000 C 
ATOM     11  C   UNL     1      -4.521  13.608  22.047  0.00  0.00    +0.000 A 
ATOM     12  C   UNL     1      -4.379  13.042  23.317  0.00  0.00    +0.000 A 
ATOM     13  C   UNL     1      -3.261  12.261  23.625  0.00  0.00    +0.000 A 
ATOM     14  C   UNL     1      -2.257  12.039  22.674  0.00  0.00    +0.000 A 
ATOM     15  C   UNL     1      -2.411  12.592  21.394  0.00  0.00    +0.000 A 
ATOM     16  C   UNL     1      -3.530  13.372  21.086  0.00  0.00    +0.000 A 
ENDBRANCH   9  14
ENDBRANCH   5   9
ENDBRANCH   1   6
BRANCH   3  17
ATOM     17  C   UNL     1       2.265   7.238  19.513  0.00  0.00    +0.000 C 
BRANCH  17  18
ATOM     18  C   UNL     1       2.925   5.900  19.935  0.00  0.00    +0.000 C 
ATOM     19  O   UNL     1       1.976   5.214  20.774  0.00  0.00    +0.000 OA
ATOM     20  C   UNL     1       1.521   4.048  20.085  0.00  0.00    +0.000 C 
ATOM     21  C   UNL     1       1.995   4.179  18.654  0.00  0.00    +0.000 C 
ATOM     22  N   UNL     1       3.196   5.029  18.759  0.00  0.00    +0.000 NA
BRANCH  22  23
ATOM     23  S   UNL     1       4.680   4.195  18.893  0.00  0.00    +0.000 S 
ATOM     24  O   UNL     1       5.504   4.917  19.840  0.00  0.00    +0.000 OA
ATOM     25  O   UNL     1       4.383   2.791  19.073  0.00  0.00    +0.000 OA
BRANCH  23  26
ATOM     26  C   UNL     1       5.435   4.397  17.293  0.00  0.00    +0.000 A 
ATOM     27  C   UNL     1       6.801   4.669  17.213  0.00  0.00    +0.000 A 
ATOM     28  C   UNL     1       7.408   4.805  15.961  0.00  0.00    +0.000 A 
ATOM     29  C   UNL     1       6.656   4.663  14.786  0.00  0.00    +0.000 A 
ATOM     30  C   UNL     1       7.299   4.815  13.437  0.00  0.00    +0.000 C 
ATOM     31  C   UNL     1       5.291   4.360  14.880  0.00  0.00    +0.000 A 
ATOM     32  C   UNL     1       4.677   4.226  16.129  0.00  0.00    +0.000 A 
ENDBRANCH  23  26
ENDBRANCH  22  23
ENDBRANCH  17  18
ENDBRANCH   3  17
TORSDOF 7
ENDMDL
MODEL 7
REMARK VINA RESULT:      -7.9      3.537      7.581
REMARK  Name = 
REMARK  9 active torsions:
REMARK  status: ('A' for Active; 'I' for Inactive)
REMARK    1  A    between atoms: C_1  and  C_2
REMARK    2  A    between atoms: C_5  and  C_6
REMARK    3  A    between atoms: C_6  and  N_7
REMARK    4  A    between atoms: C_8  and  C_10
REMARK    5  A    between atoms: N_12  and  C_13
REMARK    6  A    between atoms: C_13  and  C_14
REMARK    7  A    between atoms: N_18  and  S_19
REMARK    8  A    between atoms: S_19  and  C_22
REMARK    9  A    between atoms: C_25  and  C_26
REMARK                            x       y       z     vdW  Elec       q    Type
REMARK                         _______ _______ _______ _____ _____    ______ ____
ROOT
ATOM      1  C   UNL     1       7.265   5.978  18.591  0.00  0.00    +0.000 C 
ATOM      2  O   UNL     1       7.801   5.897  19.689  0.00  0.00    +0.000 OA
ATOM      3  N   UNL     1       6.255   5.169  18.126  0.00  0.00    +0.000 N 
ATOM      4  H   UNL     1       6.002   5.272  17.144  0.00  0.00    +0.000 HD
ENDROOT
BRANCH   1   6
ATOM      5  N   UNL     1       8.049   8.270  18.198  0.00  0.00    +0.000 N 
ATOM      6  C   UNL     1       7.706   7.083  17.593  0.00  0.00    +0.000 C 
ATOM      7  O   UNL     1       7.705   6.856  16.389  0.00  0.00    +0.000 OA
ATOM      8  H   UNL     1       7.999   8.297  19.211  0.00  0.00    +0.000 HD
BRANCH   5   9
ATOM      9  C   UNL     1       8.357   9.470  17.466  0.00  0.00    +0.000 C 
BRANCH   9  14
ATOM     10  C   UNL     1      10.470  13.661  20.929  0.00  0.00    +0.000 C 
ATOM     11  C   UNL     1       9.903  12.584  20.050  0.00  0.00    +0.000 A 
ATOM     12  C   UNL     1       9.843  11.257  20.486  0.00  0.00    +0.000 A 
ATOM     13  C   UNL     1       9.330  10.258  19.654  0.00  0.00    +0.000 A 
ATOM     14  C   UNL     1       8.876  10.563  18.365  0.00  0.00    +0.000 A 
ATOM     15  C   UNL     1       8.918  11.898  17.936  0.00  0.00    +0.000 A 
ATOM     16  C   UNL     1       9.431  12.897  18.770  0.00  0.00    +0.000 A 
ENDBRANCH   9  14
ENDBRANCH   5   9
ENDBRANCH   1   6
BRANCH   3  17
ATOM     17  C   UNL     1       5.735   4.024  18.870  0.00  0.00    +0.000 C 
BRANCH  17  18
ATOM     18  C   UNL     1       4.209   3.842  18.672  0.00  0.00    +0.000 C 
ATOM     19  O   UNL     1       4.037   3.004  17.514  0.00  0.00    +0.000 OA
ATOM     20  C   UNL     1       3.497   1.750  17.937  0.00  0.00    +0.000 C 
ATOM     21  C   UNL     1       3.611   1.718  19.445  0.00  0.00    +0.000 C 
ATOM     22  N   UNL     1       3.587   3.141  19.829  0.00  0.00    +0.000 NA
BRANCH  22  23
ATOM     23  S   UNL     1       2.051   3.773  20.225  0.00  0.00    +0.000 S 
ATOM     24  O   UNL     1       1.066   3.049  19.449  0.00  0.00    +0.000 OA
ATOM     25  O   UNL     1       1.963   3.849  21.667  0.00  0.00    +0.000 OA
BRANCH  23  26
ATOM     26  C   UNL     1       2.092   5.435  19.589  0.00  0.00    +0.000 A 
ATOM     27  C   UNL     1       2.191   5.636  18.211  0.00  0.00    +0.000 A 
ATOM     28  C   UNL     1       2.199   6.937  17.701  0.00  0.00    +0.000 A 
ATOM     29  C   UNL     1       2.102   8.041  18.559  0.00  0.00    +0.000 A 
ATOM     30  C   UNL     1       2.117   9.443  18.019  0.00  0.00    +0.000 C 
ATOM     31  C   UNL     1       1.972   7.825  19.939  0.00  0.00    +0.000 A 
ATOM     32  C   UNL     1       1.967   6.526  20.457  0.00  0.00    +0.000 A 
ENDBRANCH  23  26
ENDBRANCH  22  23
ENDBRANCH  17  18
ENDBRANCH   3  17
TORSDOF 7
ENDMDL
MODEL 8
REMARK VINA RESULT:      -7.9      3.471      8.278
REMARK  Name = 
REMARK  9 active torsions:
REMARK  status: ('A' for Active; 'I' for Inactive)
REMARK    1  A    between atoms: C_1  and  C_2
REMARK    2  A    between atoms: C_5  and  C_6
REMARK    3  A    between atoms: C_6  and  N_7
REMARK    4  A    between atoms: C_8  and  C_10
REMARK    5  A    between atoms: N_12  and  C_13
REMARK    6  A    between atoms: C_13  and  C_14
REMARK    7  A    between atoms: N_18  and  S_19
REMARK    8  A    between atoms: S_19  and  C_22
REMARK    9  A    between atoms: C_25  and  C_26
REMARK                            x       y       z     vdW  Elec       q    Type
REMARK                         _______ _______ _______ _____ _____    ______ ____
ROOT
ATOM      1  C   UNL     1       7.323   7.100  17.215  0.00  0.00    +0.000 C 
ATOM      2  O   UNL     1       7.881   6.638  16.227  0.00  0.00    +0.000 OA
ATOM      3  N   UNL     1       5.966   7.134  17.432  0.00  0.00    +0.000 N 
ATOM      4  H   UNL     1       5.645   7.668  18.238  0.00  0.00    +0.000 HD
ENDROOT
BRANCH   1   6
ATOM      5  N   UNL     1       8.364   9.058  18.265  0.00  0.00    +0.000 N 
ATOM      6  C   UNL     1       8.168   7.701  18.372  0.00  0.00    +0.000 C 
ATOM      7  O   UNL     1       8.605   6.971  19.253  0.00  0.00    +0.000 OA
ATOM      8  H   UNL     1       7.932   9.521  17.472  0.00  0.00    +0.000 HD
BRANCH   5   9
ATOM      9  C   UNL     1       9.225   9.804  19.144  0.00  0.00    +0.000 C 
BRANCH   9  14
ATOM     10  C   UNL     1      11.200  14.731  16.727  0.00  0.00    +0.000 C 
ATOM     11  C   UNL     1      10.688  13.453  17.325  0.00  0.00    +0.000 A 
ATOM     12  C   UNL     1       9.316  13.208  17.432  0.00  0.00    +0.000 A 
ATOM     13  C   UNL     1       8.849  12.022  18.006  0.00  0.00    +0.000 A 
ATOM     14  C   UNL     1       9.744  11.062  18.496  0.00  0.00    +0.000 A 
ATOM     15  C   UNL     1      11.120  11.300  18.370  0.00  0.00    +0.000 A 
ATOM     16  C   UNL     1      11.586  12.486  17.794  0.00  0.00    +0.000 A 
ENDBRANCH   9  14
ENDBRANCH   5   9
ENDBRANCH   1   6
BRANCH   3  17
ATOM     17  C   UNL     1       4.983   6.688  16.448  0.00  0.00    +0.000 C 
BRANCH  17  18
ATOM     18  C   UNL     1       3.996   5.648  17.036  0.00  0.00    +0.000 C 
ATOM     19  O   UNL     1       4.391   4.362  16.521  0.00  0.00    +0.000 OA
ATOM     20  C   UNL     1       4.887   3.572  17.603  0.00  0.00    +0.000 C 
ATOM     21  C   UNL     1       5.069   4.511  18.775  0.00  0.00    +0.000 C 
ATOM     22  N   UNL     1       4.089   5.583  18.521  0.00  0.00    +0.000 NA
BRANCH  22  23
ATOM     23  S   UNL     1       2.564   5.381  19.261  0.00  0.00    +0.000 S 
ATOM     24  O   UNL     1       1.674   4.797  18.279  0.00  0.00    +0.000 OA
ATOM     25  O   UNL     1       2.777   4.756  20.548  0.00  0.00    +0.000 OA
BRANCH  23  26
ATOM     26  C   UNL     1       1.998   7.045  19.546  0.00  0.00    +0.000 A 
ATOM     27  C   UNL     1       2.005   7.958  18.489  0.00  0.00    +0.000 A 
ATOM     28  C   UNL     1       1.541   9.260  18.697  0.00  0.00    +0.000 A 
ATOM     29  C   UNL     1       1.062   9.654  19.954  0.00  0.00    +0.000 A 
ATOM     30  C   UNL     1       0.567  11.053  20.187  0.00  0.00    +0.000 C 
ATOM     31  C   UNL     1       1.032   8.719  20.999  0.00  0.00    +0.000 A 
ATOM     32  C   UNL     1       1.499   7.416  20.799  0.00  0.00    +0.000 A 
ENDBRANCH  23  26
ENDBRANCH  22  23
ENDBRANCH  17  18
ENDBRANCH   3  17
TORSDOF 7
ENDMDL
MODEL 9
REMARK VINA RESULT:      -7.9      1.975      2.608
REMARK  Name = 
REMARK  9 active torsions:
REMARK  status: ('A' for Active; 'I' for Inactive)
REMARK    1  A    between atoms: C_1  and  C_2
REMARK    2  A    between atoms: C_5  and  C_6
REMARK    3  A    between atoms: C_6  and  N_7
REMARK    4  A    between atoms: C_8  and  C_10
REMARK    5  A    between atoms: N_12  and  C_13
REMARK    6  A    between atoms: C_13  and  C_14
REMARK    7  A    between atoms: N_18  and  S_19
REMARK    8  A    between atoms: S_19  and  C_22
REMARK    9  A    between atoms: C_25  and  C_26
REMARK                            x       y       z     vdW  Elec       q    Type
REMARK                         _______ _______ _______ _____ _____    ______ ____
ROOT
ATOM      1  C   UNL     1       1.653   9.533  18.494  0.00  0.00    +0.000 C 
ATOM      2  O   UNL     1       2.080  10.087  17.489  0.00  0.00    +0.000 OA
ATOM      3  N   UNL     1       1.899   8.232  18.862  0.00  0.00    +0.000 N 
ATOM      4  H   UNL     1       1.367   7.872  19.654  0.00  0.00    +0.000 HD
ENDROOT
BRANCH   1   6
ATOM      5  N   UNL     1      -0.203  11.090  18.885  0.00  0.00    +0.000 N 
ATOM      6  C   UNL     1       0.760  10.319  19.493  0.00  0.00    +0.000 C 
ATOM      7  O   UNL     1       0.965  10.231  20.697  0.00  0.00    +0.000 OA
ATOM      8  H   UNL     1      -0.245  11.053  17.871  0.00  0.00    +0.000 HD
BRANCH   5   9
ATOM      9  C   UNL     1      -1.052  12.005  19.601  0.00  0.00    +0.000 C 
BRANCH   9  14
ATOM     10  C   UNL     1      -6.645  11.593  17.998  0.00  0.00    +0.000 C 
ATOM     11  C   UNL     1      -5.210  11.680  18.429  0.00  0.00    +0.000 A 
ATOM     12  C   UNL     1      -4.840  12.429  19.550  0.00  0.00    +0.000 A 
ATOM     13  C   UNL     1      -3.499  12.518  19.933  0.00  0.00    +0.000 A 
ATOM     14  C   UNL     1      -2.498  11.870  19.196  0.00  0.00    +0.000 A 
ATOM     15  C   UNL     1      -2.873  11.104  18.083  0.00  0.00    +0.000 A 
ATOM     16  C   UNL     1      -4.216  11.014  17.702  0.00  0.00    +0.000 A 
ENDBRANCH   9  14
ENDBRANCH   5   9
ENDBRANCH   1   6
BRANCH   3  17
ATOM     17  C   UNL     1       2.653   7.292  18.037  0.00  0.00    +0.000 C 
BRANCH  17  18
ATOM     18  C   UNL     1       3.310   6.169  18.881  0.00  0.00    +0.000 C 
ATOM     19  O   UNL     1       2.664   6.184  20.168  0.00  0.00    +0.000 OA
ATOM     20  C   UNL     1       1.904   4.981  20.308  0.00  0.00    +0.000 C 
ATOM     21  C   UNL     1       1.855   4.340  18.939  0.00  0.00    +0.000 C 
ATOM     22  N   UNL     1       3.080   4.827  18.279  0.00  0.00    +0.000 NA
BRANCH  22  23
ATOM     23  S   UNL     1       4.446   3.811  18.413  0.00  0.00    +0.000 S 
ATOM     24  O   UNL     1       5.225   4.270  19.544  0.00  0.00    +0.000 OA
ATOM     25  O   UNL     1       3.988   2.441  18.324  0.00  0.00    +0.000 OA
BRANCH  23  26
ATOM     26  C   UNL     1       5.396   4.168  16.951  0.00  0.00    +0.000 A 
ATOM     27  C   UNL     1       4.779   4.092  15.701  0.00  0.00    +0.000 A 
ATOM     28  C   UNL     1       5.510   4.394  14.549  0.00  0.00    +0.000 A 
ATOM     29  C   UNL     1       6.855   4.779  14.639  0.00  0.00    +0.000 A 
ATOM     30  C   UNL     1       7.650   5.099  13.404  0.00  0.00    +0.000 C 
ATOM     31  C   UNL     1       7.455   4.881  15.902  0.00  0.00    +0.000 A 
ATOM     32  C   UNL     1       6.730   4.577  17.058  0.00  0.00    +0.000 A 
ENDBRANCH  23  26
ENDBRANCH  22  23
ENDBRANCH  17  18
ENDBRANCH   3  17
TORSDOF 7
ENDMDL
