MODEL 1
REMARK VINA RESULT:      -6.6      0.000      0.000
REMARK  Name = 
REMARK  6 active torsions:
REMARK  status: ('A' for Active; 'I' for Inactive)
REMARK    1  A    between atoms: C_1  and  C_2
REMARK    2  A    between atoms: C_2  and  N_3
REMARK    3  A    between atoms: C_8  and  N_9
REMARK    4  A    between atoms: C_10  and  C_11
REMARK    5  A    between atoms: C_13  and  C_14
REMARK    6  A    between atoms: C_21  and  C_22
REMARK                            x       y       z     vdW  Elec       q    Type
REMARK                         _______ _______ _______ _____ _____    ______ ____
ROOT
ATOM      1  N   UNL     1      -3.111  10.119  16.267  0.00  0.00    +0.000 NA
ATOM      2  C   UNL     1      -1.952  10.415  17.117  0.00  0.00    +0.000 C 
ATOM      3  C   UNL     1      -2.312  11.105  18.402  0.00  0.00    +0.000 C 
ATOM      4  C   UNL     1      -3.511  11.678  18.605  0.00  0.00    +0.000 C 
ATOM      5  O   UNL     1      -3.840  12.286  19.804  0.00  0.00    +0.000 OA
ATOM      6  C   UNL     1      -2.980  12.223  20.894  0.00  0.00    +0.000 C 
ATOM      7  C   UNL     1      -1.749  11.678  20.791  0.00  0.00    +0.000 C 
ATOM      8  C   UNL     1      -1.250  11.113  19.478  0.00  0.00    +0.000 C 
ATOM      9  C   UNL     1      -4.509  11.728  17.537  0.00  0.00    +0.000 C 
ATOM     10  C   UNL     1      -5.800  12.100  17.650  0.00  0.00    +0.000 C 
ATOM     11  C   UNL     1      -3.963  11.315  16.171  0.00  0.00    +0.000 C 
ENDROOT
BRANCH   8  12
ATOM     12  C   UNL     1       0.004  11.844  18.999  0.00  0.00    +0.000 A 
ATOM     13  C   UNL     1      -0.024  13.230  18.783  0.00  0.00    +0.000 A 
ATOM     14  C   UNL     1       1.110  13.892  18.310  0.00  0.00    +0.000 A 
ATOM     15  C   UNL     1       2.280  13.179  18.052  0.00  0.00    +0.000 A 
ATOM     16  C   UNL     1       2.327  11.807  18.284  0.00  0.00    +0.000 A 
ATOM     17  C   UNL     1       1.199  11.143  18.761  0.00  0.00    +0.000 A 
ENDBRANCH   8  12
BRANCH  10  18
ATOM     18  C   UNL     1      -6.509  12.552  18.850  0.00  0.00    +0.000 A 
ATOM     19  C   UNL     1      -6.702  13.919  19.071  0.00  0.00    +0.000 A 
ATOM     20  C   UNL     1      -7.402  14.359  20.195  0.00  0.00    +0.000 A 
ATOM     21  C   UNL     1      -7.916  13.432  21.102  0.00  0.00    +0.000 A 
ATOM     22  C   UNL     1      -7.721  12.069  20.891  0.00  0.00    +0.000 A 
ATOM     23  C   UNL     1      -7.013  11.626  19.769  0.00  0.00    +0.000 A 
ENDBRANCH  10  18
BRANCH   6  24
ATOM     24  N   UNL     1      -3.513  12.782  22.032  0.00  0.00    +0.000 N 
ATOM     25  H   UNL     1      -4.066  13.609  21.817  0.00  0.00    +0.000 HD
ATOM     26  H   UNL     1      -2.861  12.916  22.801  0.00  0.00    +0.000 HD
ENDBRANCH   6  24
BRANCH   1  28
ATOM     27  C   UNL     1      -3.685  10.033  13.840  0.00  0.00    +0.000 C 
ATOM     28  C   UNL     1      -2.686   9.659  14.935  0.00  0.00    +0.000 C 
ENDBRANCH   1  28
BRANCH   7  29
ATOM     29  C   UNL     1      -0.880  11.607  21.918  0.00  0.00    +0.000 C 
ATOM     30  N   UNL     1      -0.188  11.544  22.847  0.00  0.00    +0.000 NA
ENDBRANCH   7  29
TORSDOF 5
ENDMDL
MODEL 2
REMARK VINA RESULT:      -6.4      0.394      1.342
REMARK  Name = 
REMARK  6 active torsions:
REMARK  status: ('A' for Active; 'I' for Inactive)
REMARK    1  A    between atoms: C_1  and  C_2
REMARK    2  A    between atoms: C_2  and  N_3
REMARK    3  A    between atoms: C_8  and  N_9
REMARK    4  A    between atoms: C_10  and  C_11
REMARK    5  A    between atoms: C_13  and  C_14
REMARK    6  A    between atoms: C_21  and  C_22
REMARK                            x       y       z     vdW  Elec       q    Type
REMARK                         _______ _______ _______ _____ _____    ______ ____
ROOT
ATOM      1  N   UNL     1      -3.207  10.429  16.294  0.00  0.00    +0.000 NA
ATOM      2  C   UNL     1      -2.037  10.744  17.122  0.00  0.00    +0.000 C 
ATOM      3  C   UNL     1      -2.388  11.318  18.465  0.00  0.00    +0.000 C 
ATOM      4  C   UNL     1      -3.612  11.792  18.752  0.00  0.00    +0.000 C 
ATOM      5  O   UNL     1      -3.931  12.292  20.002  0.00  0.00    +0.000 OA
ATOM      6  C   UNL     1      -3.026  12.212  21.053  0.00  0.00    +0.000 C 
ATOM      7  C   UNL     1      -1.767  11.760  20.867  0.00  0.00    +0.000 C 
ATOM      8  C   UNL     1      -1.286  11.323  19.499  0.00  0.00    +0.000 C 
ATOM      9  C   UNL     1      -4.654  11.848  17.726  0.00  0.00    +0.000 C 
ATOM     10  C   UNL     1      -5.961  12.123  17.912  0.00  0.00    +0.000 C 
ATOM     11  C   UNL     1      -4.138  11.568  16.315  0.00  0.00    +0.000 C 
ENDROOT
BRANCH   8  12
ATOM     12  C   UNL     1      -0.103  12.168  19.030  0.00  0.00    +0.000 A 
ATOM     13  C   UNL     1       1.139  11.568  18.776  0.00  0.00    +0.000 A 
ATOM     14  C   UNL     1       2.230  12.344  18.383  0.00  0.00    +0.000 A 
ATOM     15  C   UNL     1       2.091  13.724  18.237  0.00  0.00    +0.000 A 
ATOM     16  C   UNL     1       0.857  14.328  18.463  0.00  0.00    +0.000 A 
ATOM     17  C   UNL     1      -0.236  13.556  18.850  0.00  0.00    +0.000 A 
ENDBRANCH   8  12
BRANCH  10  18
ATOM     18  C   UNL     1      -6.649  12.441  19.166  0.00  0.00    +0.000 A 
ATOM     19  C   UNL     1      -7.271  11.424  19.896  0.00  0.00    +0.000 A 
ATOM     20  C   UNL     1      -7.903  11.711  21.107  0.00  0.00    +0.000 A 
ATOM     21  C   UNL     1      -7.914  13.018  21.594  0.00  0.00    +0.000 A 
ATOM     22  C   UNL     1      -7.303  14.038  20.866  0.00  0.00    +0.000 A 
ATOM     23  C   UNL     1      -6.674  13.754  19.649  0.00  0.00    +0.000 A 
ENDBRANCH  10  18
BRANCH   6  24
ATOM     24  N   UNL     1      -3.548  12.654  22.247  0.00  0.00    +0.000 N 
ATOM     25  H   UNL     1      -3.716  13.657  22.231  0.00  0.00    +0.000 HD
ATOM     26  H   UNL     1      -3.062  12.335  23.082  0.00  0.00    +0.000 HD
ENDBRANCH   6  24
BRANCH   1  28
ATOM     27  C   UNL     1      -4.002   9.992  13.970  0.00  0.00    +0.000 C 
ATOM     28  C   UNL     1      -2.808  10.093  14.918  0.00  0.00    +0.000 C 
ENDBRANCH   1  28
BRANCH   7  29
ATOM     29  C   UNL     1      -0.850  11.671  21.954  0.00  0.00    +0.000 C 
ATOM     30  N   UNL     1      -0.120  11.596  22.852  0.00  0.00    +0.000 NA
ENDBRANCH   7  29
TORSDOF 5
ENDMDL
MODEL 3
REMARK VINA RESULT:      -6.4      0.451      1.017
REMARK  Name = 
REMARK  6 active torsions:
REMARK  status: ('A' for Active; 'I' for Inactive)
REMARK    1  A    between atoms: C_1  and  C_2
REMARK    2  A    between atoms: C_2  and  N_3
REMARK    3  A    between atoms: C_8  and  N_9
REMARK    4  A    between atoms: C_10  and  C_11
REMARK    5  A    between atoms: C_13  and  C_14
REMARK    6  A    between atoms: C_21  and  C_22
REMARK                            x       y       z     vdW  Elec       q    Type
REMARK                         _______ _______ _______ _____ _____    ______ ____
ROOT
ATOM      1  N   UNL     1      -3.126  10.115  16.721  0.00  0.00    +0.000 NA
ATOM      2  C   UNL     1      -1.975  10.536  17.528  0.00  0.00    +0.000 C 
ATOM      3  C   UNL     1      -2.352  11.345  18.736  0.00  0.00    +0.000 C 
ATOM      4  C   UNL     1      -3.568  11.897  18.886  0.00  0.00    +0.000 C 
ATOM      5  O   UNL     1      -3.913  12.617  20.017  0.00  0.00    +0.000 OA
ATOM      6  C   UNL     1      -3.048  12.696  21.101  0.00  0.00    +0.000 C 
ATOM      7  C   UNL     1      -1.800  12.183  21.048  0.00  0.00    +0.000 C 
ATOM      8  C   UNL     1      -1.288  11.500  19.797  0.00  0.00    +0.000 C 
ATOM      9  C   UNL     1      -4.571  11.802  17.825  0.00  0.00    +0.000 C 
ATOM     10  C   UNL     1      -5.874  12.143  17.907  0.00  0.00    +0.000 C 
ATOM     11  C   UNL     1      -4.017  11.266  16.506  0.00  0.00    +0.000 C 
ENDROOT
BRANCH   8  12
ATOM     12  C   UNL     1      -0.060  12.216  19.236  0.00  0.00    +0.000 A 
ATOM     13  C   UNL     1      -0.093  13.599  19.001  0.00  0.00    +0.000 A 
ATOM     14  C   UNL     1       1.014  14.247  18.453  0.00  0.00    +0.000 A 
ATOM     15  C   UNL     1       2.164  13.525  18.139  0.00  0.00    +0.000 A 
ATOM     16  C   UNL     1       2.218  12.156  18.389  0.00  0.00    +0.000 A 
ATOM     17  C   UNL     1       1.116  11.505  18.940  0.00  0.00    +0.000 A 
ENDBRANCH   8  12
BRANCH  10  18
ATOM     18  C   UNL     1      -6.593  12.695  19.058  0.00  0.00    +0.000 A 
ATOM     19  C   UNL     1      -7.070  11.840  20.056  0.00  0.00    +0.000 A 
ATOM     20  C   UNL     1      -7.730  12.358  21.171  0.00  0.00    +0.000 A 
ATOM     21  C   UNL     1      -7.914  13.736  21.294  0.00  0.00    +0.000 A 
ATOM     22  C   UNL     1      -7.447  14.592  20.299  0.00  0.00    +0.000 A 
ATOM     23  C   UNL     1      -6.791  14.075  19.177  0.00  0.00    +0.000 A 
ENDBRANCH  10  18
BRANCH   6  24
ATOM     24  N   UNL     1      -3.595  13.354  22.178  0.00  0.00    +0.000 N 
ATOM     25  H   UNL     1      -4.612  13.314  22.162  0.00  0.00    +0.000 HD
ATOM     26  H   UNL     1      -3.226  14.285  22.356  0.00  0.00    +0.000 HD
ENDBRANCH   6  24
BRANCH   1  28
ATOM     27  C   UNL     1      -3.323  10.227  14.236  0.00  0.00    +0.000 C 
ATOM     28  C   UNL     1      -2.691   9.531  15.441  0.00  0.00    +0.000 C 
ENDBRANCH   1  28
BRANCH   7  29
ATOM     29  C   UNL     1      -0.925  12.259  22.169  0.00  0.00    +0.000 C 
ATOM     30  N   UNL     1      -0.229  12.321  23.095  0.00  0.00    +0.000 NA
ENDBRANCH   7  29
TORSDOF 5
ENDMDL
MODEL 4
REMARK VINA RESULT:      -6.1     10.787     13.147
REMARK  Name = 
REMARK  6 active torsions:
REMARK  status: ('A' for Active; 'I' for Inactive)
REMARK    1  A    between atoms: C_1  and  C_2
REMARK    2  A    between atoms: C_2  and  N_3
REMARK    3  A    between atoms: C_8  and  N_9
REMARK    4  A    between atoms: C_10  and  C_11
REMARK    5  A    between atoms: C_13  and  C_14
REMARK    6  A    between atoms: C_21  and  C_22
REMARK                            x       y       z     vdW  Elec       q    Type
REMARK                         _______ _______ _______ _____ _____    ______ ____
ROOT
ATOM      1  N   UNL     1       6.436  11.829  23.612  0.00  0.00    +0.000 NA
ATOM      2  C   UNL     1       6.117  13.249  23.423  0.00  0.00    +0.000 C 
ATOM      3  C   UNL     1       6.835  13.876  22.262  0.00  0.00    +0.000 C 
ATOM      4  C   UNL     1       7.891  13.297  21.666  0.00  0.00    +0.000 C 
ATOM      5  O   UNL     1       8.526  13.872  20.579  0.00  0.00    +0.000 OA
ATOM      6  C   UNL     1       8.019  15.020  19.983  0.00  0.00    +0.000 C 
ATOM      7  C   UNL     1       6.967  15.683  20.510  0.00  0.00    +0.000 C 
ATOM      8  C   UNL     1       6.296  15.203  21.780  0.00  0.00    +0.000 C 
ATOM      9  C   UNL     1       8.450  12.047  22.180  0.00  0.00    +0.000 C 
ATOM     10  C   UNL     1       9.377  11.268  21.586  0.00  0.00    +0.000 C 
ATOM     11  C   UNL     1       7.894  11.644  23.545  0.00  0.00    +0.000 C 
ENDROOT
BRANCH   8  12
ATOM     12  C   UNL     1       6.378  16.257  22.884  0.00  0.00    +0.000 A 
ATOM     13  C   UNL     1       5.210  16.859  23.376  0.00  0.00    +0.000 A 
ATOM     14  C   UNL     1       5.286  17.848  24.357  0.00  0.00    +0.000 A 
ATOM     15  C   UNL     1       6.526  18.242  24.859  0.00  0.00    +0.000 A 
ATOM     16  C   UNL     1       7.691  17.636  24.396  0.00  0.00    +0.000 A 
ATOM     17  C   UNL     1       7.619  16.644  23.419  0.00  0.00    +0.000 A 
ENDBRANCH   8  12
BRANCH  10  18
ATOM     18  C   UNL     1      10.052  11.483  20.303  0.00  0.00    +0.000 A 
ATOM     19  C   UNL     1      11.332  12.046  20.276  0.00  0.00    +0.000 A 
ATOM     20  C   UNL     1      11.995  12.227  19.062  0.00  0.00    +0.000 A 
ATOM     21  C   UNL     1      11.382  11.845  17.869  0.00  0.00    +0.000 A 
ATOM     22  C   UNL     1      10.103  11.291  17.889  0.00  0.00    +0.000 A 
ATOM     23  C   UNL     1       9.433  11.114  19.104  0.00  0.00    +0.000 A 
ENDBRANCH  10  18
BRANCH   6  24
ATOM     24  N   UNL     1       8.708  15.388  18.851  0.00  0.00    +0.000 N 
ATOM     25  H   UNL     1       8.075  15.641  18.096  0.00  0.00    +0.000 HD
ATOM     26  H   UNL     1       9.452  14.756  18.566  0.00  0.00    +0.000 HD
ENDBRANCH   6  24
BRANCH   1  28
ATOM     27  C   UNL     1       6.808  11.632  26.071  0.00  0.00    +0.000 C 
ATOM     28  C   UNL     1       5.893  11.329  24.885  0.00  0.00    +0.000 C 
ENDBRANCH   1  28
BRANCH   7  29
ATOM     29  C   UNL     1       6.447  16.852  19.885  0.00  0.00    +0.000 C 
ATOM     30  N   UNL     1       6.007  17.793  19.368  0.00  0.00    +0.000 NA
ENDBRANCH   7  29
TORSDOF 5
ENDMDL
MODEL 5
REMARK VINA RESULT:      -6.1     10.819     13.137
REMARK  Name = 
REMARK  6 active torsions:
REMARK  status: ('A' for Active; 'I' for Inactive)
REMARK    1  A    between atoms: C_1  and  C_2
REMARK    2  A    between atoms: C_2  and  N_3
REMARK    3  A    between atoms: C_8  and  N_9
REMARK    4  A    between atoms: C_10  and  C_11
REMARK    5  A    between atoms: C_13  and  C_14
REMARK    6  A    between atoms: C_21  and  C_22
REMARK                            x       y       z     vdW  Elec       q    Type
REMARK                         _______ _______ _______ _____ _____    ______ ____
ROOT
ATOM      1  N   UNL     1       6.483  11.830  23.684  0.00  0.00    +0.000 NA
ATOM      2  C   UNL     1       6.162  13.247  23.478  0.00  0.00    +0.000 C 
ATOM      3  C   UNL     1       6.860  13.854  22.294  0.00  0.00    +0.000 C 
ATOM      4  C   UNL     1       7.904  13.264  21.689  0.00  0.00    +0.000 C 
ATOM      5  O   UNL     1       8.520  13.820  20.581  0.00  0.00    +0.000 OA
ATOM      6  C   UNL     1       8.004  14.958  19.976  0.00  0.00    +0.000 C 
ATOM      7  C   UNL     1       6.963  15.632  20.511  0.00  0.00    +0.000 C 
ATOM      8  C   UNL     1       6.314  15.174  21.800  0.00  0.00    +0.000 C 
ATOM      9  C   UNL     1       8.471  12.022  22.213  0.00  0.00    +0.000 C 
ATOM     10  C   UNL     1       9.386  11.231  21.615  0.00  0.00    +0.000 C 
ATOM     11  C   UNL     1       7.939  11.642  23.594  0.00  0.00    +0.000 C 
ENDROOT
BRANCH   8  12
ATOM     12  C   UNL     1       6.417  16.246  22.885  0.00  0.00    +0.000 A 
ATOM     13  C   UNL     1       7.671  16.629  23.384  0.00  0.00    +0.000 A 
ATOM     14  C   UNL     1       7.764  17.580  24.401  0.00  0.00    +0.000 A 
ATOM     15  C   UNL     1       6.609  18.159  24.926  0.00  0.00    +0.000 A 
ATOM     16  C   UNL     1       5.360  17.804  24.423  0.00  0.00    +0.000 A 
ATOM     17  C   UNL     1       5.264  16.858  23.404  0.00  0.00    +0.000 A 
ENDBRANCH   8  12
BRANCH  10  18
ATOM     18  C   UNL     1      10.038  11.425  20.317  0.00  0.00    +0.000 A 
ATOM     19  C   UNL     1       9.396  11.007  19.147  0.00  0.00    +0.000 A 
ATOM     20  C   UNL     1       9.995  11.214  17.903  0.00  0.00    +0.000 A 
ATOM     21  C   UNL     1      11.237  11.842  17.824  0.00  0.00    +0.000 A 
ATOM     22  C   UNL     1      11.885  12.253  18.987  0.00  0.00    +0.000 A 
ATOM     23  C   UNL     1      11.291  12.041  20.236  0.00  0.00    +0.000 A 
ENDBRANCH  10  18
BRANCH   6  24
ATOM     24  N   UNL     1       8.674  15.307  18.826  0.00  0.00    +0.000 N 
ATOM     25  H   UNL     1       9.127  14.502  18.401  0.00  0.00    +0.000 HD
ATOM     26  H   UNL     1       9.276  16.123  18.900  0.00  0.00    +0.000 HD
ENDBRANCH   6  24
BRANCH   1  28
ATOM     27  C   UNL     1       5.626  12.496  25.931  0.00  0.00    +0.000 C 
ATOM     28  C   UNL     1       5.962  11.352  24.975  0.00  0.00    +0.000 C 
ENDBRANCH   1  28
BRANCH   7  29
ATOM     29  C   UNL     1       6.432  16.791  19.876  0.00  0.00    +0.000 C 
ATOM     30  N   UNL     1       5.982  17.726  19.356  0.00  0.00    +0.000 NA
ENDBRANCH   7  29
TORSDOF 5
ENDMDL
MODEL 6
REMARK VINA RESULT:      -5.9      1.159      1.842
REMARK  Name = 
REMARK  6 active torsions:
REMARK  status: ('A' for Active; 'I' for Inactive)
REMARK    1  A    between atoms: C_1  and  C_2
REMARK    2  A    between atoms: C_2  and  N_3
REMARK    3  A    between atoms: C_8  and  N_9
REMARK    4  A    between atoms: C_10  and  C_11
REMARK    5  A    between atoms: C_13  and  C_14
REMARK    6  A    between atoms: C_21  and  C_22
REMARK                            x       y       z     vdW  Elec       q    Type
REMARK                         _______ _______ _______ _____ _____    ______ ____
ROOT
ATOM      1  N   UNL     1      -4.304  11.263  17.089  0.00  0.00    +0.000 NA
ATOM      2  C   UNL     1      -2.995  11.413  17.737  0.00  0.00    +0.000 C 
ATOM      3  C   UNL     1      -3.083  11.795  19.187  0.00  0.00    +0.000 C 
ATOM      4  C   UNL     1      -4.213  12.262  19.745  0.00  0.00    +0.000 C 
ATOM      5  O   UNL     1      -4.289  12.583  21.089  0.00  0.00    +0.000 OA
ATOM      6  C   UNL     1      -3.227  12.320  21.945  0.00  0.00    +0.000 C 
ATOM      7  C   UNL     1      -2.045  11.859  21.483  0.00  0.00    +0.000 C 
ATOM      8  C   UNL     1      -1.826  11.611  20.005  0.00  0.00    +0.000 C 
ATOM      9  C   UNL     1      -5.406  12.503  18.934  0.00  0.00    +0.000 C 
ATOM     10  C   UNL     1      -6.646  12.791  19.380  0.00  0.00    +0.000 C 
ATOM     11  C   UNL     1      -5.151  12.417  17.430  0.00  0.00    +0.000 C 
ENDROOT
BRANCH   8  12
ATOM     12  C   UNL     1      -0.691  12.477  19.459  0.00  0.00    +0.000 A 
ATOM     13  C   UNL     1      -0.837  13.870  19.385  0.00  0.00    +0.000 A 
ATOM     14  C   UNL     1       0.185  14.658  18.852  0.00  0.00    +0.000 A 
ATOM     15  C   UNL     1       1.359  14.064  18.392  0.00  0.00    +0.000 A 
ATOM     16  C   UNL     1       1.525  12.685  18.482  0.00  0.00    +0.000 A 
ATOM     17  C   UNL     1       0.510  11.895  19.018  0.00  0.00    +0.000 A 
ENDBRANCH   8  12
BRANCH  10  18
ATOM     18  C   UNL     1      -7.095  12.945  20.767  0.00  0.00    +0.000 A 
ATOM     19  C   UNL     1      -7.515  11.824  21.490  0.00  0.00    +0.000 A 
ATOM     20  C   UNL     1      -7.917  11.955  22.820  0.00  0.00    +0.000 A 
ATOM     21  C   UNL     1      -7.897  13.207  23.434  0.00  0.00    +0.000 A 
ATOM     22  C   UNL     1      -7.486  14.329  22.716  0.00  0.00    +0.000 A 
ATOM     23  C   UNL     1      -7.090  14.202  21.381  0.00  0.00    +0.000 A 
ENDBRANCH  10  18
BRANCH   6  24
ATOM     24  N   UNL     1      -3.515  12.598  23.262  0.00  0.00    +0.000 N 
ATOM     25  H   UNL     1      -3.927  11.794  23.730  0.00  0.00    +0.000 HD
ATOM     26  H   UNL     1      -4.017  13.467  23.426  0.00  0.00    +0.000 HD
ENDBRANCH   6  24
BRANCH   1  28
ATOM     27  C   UNL     1      -3.001  10.201  15.246  0.00  0.00    +0.000 C 
ATOM     28  C   UNL     1      -4.160  11.119  15.632  0.00  0.00    +0.000 C 
ENDBRANCH   1  28
BRANCH   7  29
ATOM     29  C   UNL     1      -0.966  11.580  22.370  0.00  0.00    +0.000 C 
ATOM     30  N   UNL     1      -0.095  11.334  23.095  0.00  0.00    +0.000 NA
ENDBRANCH   7  29
TORSDOF 5
ENDMDL
MODEL 7
REMARK VINA RESULT:      -5.9      2.281      3.660
REMARK  Name = 
REMARK  6 active torsions:
REMARK  status: ('A' for Active; 'I' for Inactive)
REMARK    1  A    between atoms: C_1  and  C_2
REMARK    2  A    between atoms: C_2  and  N_3
REMARK    3  A    between atoms: C_8  and  N_9
REMARK    4  A    between atoms: C_10  and  C_11
REMARK    5  A    between atoms: C_13  and  C_14
REMARK    6  A    between atoms: C_21  and  C_22
REMARK                            x       y       z     vdW  Elec       q    Type
REMARK                         _______ _______ _______ _____ _____    ______ ____
ROOT
ATOM      1  N   UNL     1       0.031   9.874  19.450  0.00  0.00    +0.000 NA
ATOM      2  C   UNL     1       0.291  11.154  20.120  0.00  0.00    +0.000 C 
ATOM      3  C   UNL     1      -0.909  12.056  20.175  0.00  0.00    +0.000 C 
ATOM      4  C   UNL     1      -2.001  11.857  19.418  0.00  0.00    +0.000 C 
ATOM      5  O   UNL     1      -3.110  12.679  19.499  0.00  0.00    +0.000 OA
ATOM      6  C   UNL     1      -3.186  13.680  20.460  0.00  0.00    +0.000 C 
ATOM      7  C   UNL     1      -2.140  13.967  21.264  0.00  0.00    +0.000 C 
ATOM      8  C   UNL     1      -0.834  13.209  21.149  0.00  0.00    +0.000 C 
ATOM      9  C   UNL     1      -2.040  10.780  18.428  0.00  0.00    +0.000 C 
ATOM     10  C   UNL     1      -3.116  10.352  17.737  0.00  0.00    +0.000 C 
ATOM     11  C   UNL     1      -0.683  10.121  18.187  0.00  0.00    +0.000 C 
ENDROOT
BRANCH   8  12
ATOM     12  C   UNL     1       0.322  14.145  20.797  0.00  0.00    +0.000 A 
ATOM     13  C   UNL     1       1.358  14.367  21.716  0.00  0.00    +0.000 A 
ATOM     14  C   UNL     1       2.395  15.250  21.410  0.00  0.00    +0.000 A 
ATOM     15  C   UNL     1       2.409  15.915  20.185  0.00  0.00    +0.000 A 
ATOM     16  C   UNL     1       1.398  15.686  19.255  0.00  0.00    +0.000 A 
ATOM     17  C   UNL     1       0.364  14.801  19.554  0.00  0.00    +0.000 A 
ENDBRANCH   8  12
BRANCH  10  18
ATOM     18  C   UNL     1      -4.490  10.860  17.797  0.00  0.00    +0.000 A 
ATOM     19  C   UNL     1      -5.414  10.264  18.661  0.00  0.00    +0.000 A 
ATOM     20  C   UNL     1      -6.717  10.759  18.748  0.00  0.00    +0.000 A 
ATOM     21  C   UNL     1      -7.099  11.854  17.973  0.00  0.00    +0.000 A 
ATOM     22  C   UNL     1      -6.184  12.446  17.104  0.00  0.00    +0.000 A 
ATOM     23  C   UNL     1      -4.880  11.948  17.010  0.00  0.00    +0.000 A 
ENDBRANCH  10  18
BRANCH   6  24
ATOM     24  N   UNL     1      -4.402  14.325  20.470  0.00  0.00    +0.000 N 
ATOM     25  H   UNL     1      -4.357  15.194  20.997  0.00  0.00    +0.000 HD
ATOM     26  H   UNL     1      -5.203  13.746  20.707  0.00  0.00    +0.000 HD
ENDBRANCH   6  24
BRANCH   1  28
ATOM     27  C   UNL     1       1.855   9.372  17.823  0.00  0.00    +0.000 C 
ATOM     28  C   UNL     1       1.282   9.133  19.220  0.00  0.00    +0.000 C 
ENDBRANCH   1  28
BRANCH   7  29
ATOM     29  C   UNL     1      -2.232  14.987  22.254  0.00  0.00    +0.000 C 
ATOM     30  N   UNL     1      -2.285  15.818  23.061  0.00  0.00    +0.000 NA
ENDBRANCH   7  29
TORSDOF 5
ENDMDL
MODEL 8
REMARK VINA RESULT:      -5.8      2.282      3.502
REMARK  Name = 
REMARK  6 active torsions:
REMARK  status: ('A' for Active; 'I' for Inactive)
REMARK    1  A    between atoms: C_1  and  C_2
REMARK    2  A    between atoms: C_2  and  N_3
REMARK    3  A    between atoms: C_8  and  N_9
REMARK    4  A    between atoms: C_10  and  C_11
REMARK    5  A    between atoms: C_13  and  C_14
REMARK    6  A    between atoms: C_21  and  C_22
REMARK                            x       y       z     vdW  Elec       q    Type
REMARK                         _______ _______ _______ _____ _____    ______ ____
ROOT
ATOM      1  N   UNL     1       0.083   9.869  19.425  0.00  0.00    +0.000 NA
ATOM      2  C   UNL     1       0.360  11.149  20.088  0.00  0.00    +0.000 C 
ATOM      3  C   UNL     1      -0.834  12.057  20.162  0.00  0.00    +0.000 C 
ATOM      4  C   UNL     1      -1.940  11.861  19.423  0.00  0.00    +0.000 C 
ATOM      5  O   UNL     1      -3.044  12.689  19.521  0.00  0.00    +0.000 OA
ATOM      6  C   UNL     1      -3.099  13.692  20.481  0.00  0.00    +0.000 C 
ATOM      7  C   UNL     1      -2.038  13.975  21.267  0.00  0.00    +0.000 C 
ATOM      8  C   UNL     1      -0.738  13.212  21.132  0.00  0.00    +0.000 C 
ATOM      9  C   UNL     1      -2.000  10.783  18.436  0.00  0.00    +0.000 C 
ATOM     10  C   UNL     1      -3.090  10.359  17.764  0.00  0.00    +0.000 C 
ATOM     11  C   UNL     1      -0.651  10.117  18.174  0.00  0.00    +0.000 C 
ENDROOT
BRANCH   8  12
ATOM     12  C   UNL     1       0.416  14.141  20.758  0.00  0.00    +0.000 A 
ATOM     13  C   UNL     1       0.432  14.784  19.511  0.00  0.00    +0.000 A 
ATOM     14  C   UNL     1       1.504  15.603  19.154  0.00  0.00    +0.000 A 
ATOM     15  C   UNL     1       2.566  15.791  20.038  0.00  0.00    +0.000 A 
ATOM     16  C   UNL     1       2.551  15.177  21.288  0.00  0.00    +0.000 A 
ATOM     17  C   UNL     1       1.480  14.362  21.650  0.00  0.00    +0.000 A 
ENDBRANCH   8  12
BRANCH  10  18
ATOM     18  C   UNL     1      -4.460  10.873  17.846  0.00  0.00    +0.000 A 
ATOM     19  C   UNL     1      -4.844  11.959  17.054  0.00  0.00    +0.000 A 
ATOM     20  C   UNL     1      -6.155  12.438  17.102  0.00  0.00    +0.000 A 
ATOM     21  C   UNL     1      -7.088  11.829  17.941  0.00  0.00    +0.000 A 
ATOM     22  C   UNL     1      -6.709  10.751  18.739  0.00  0.00    +0.000 A 
ATOM     23  C   UNL     1      -5.394  10.274  18.697  0.00  0.00    +0.000 A 
ENDBRANCH  10  18
BRANCH   6  24
ATOM     24  N   UNL     1      -4.311  14.342  20.511  0.00  0.00    +0.000 N 
ATOM     25  H   UNL     1      -4.761  14.332  19.598  0.00  0.00    +0.000 HD
ATOM     26  H   UNL     1      -4.306  15.258  20.953  0.00  0.00    +0.000 HD
ENDBRANCH   6  24
BRANCH   1  28
ATOM     27  C   UNL     1       1.889   9.374  17.776  0.00  0.00    +0.000 C 
ATOM     28  C   UNL     1       1.326   9.122  19.175  0.00  0.00    +0.000 C 
ENDBRANCH   1  28
BRANCH   7  29
ATOM     29  C   UNL     1      -2.109  14.998  22.257  0.00  0.00    +0.000 C 
ATOM     30  N   UNL     1      -2.145  15.829  23.065  0.00  0.00    +0.000 NA
ENDBRANCH   7  29
TORSDOF 5
ENDMDL
MODEL 9
REMARK VINA RESULT:      -5.7      2.781      5.545
REMARK  Name = 
REMARK  6 active torsions:
REMARK  status: ('A' for Active; 'I' for Inactive)
REMARK    1  A    between atoms: C_1  and  C_2
REMARK    2  A    between atoms: C_2  and  N_3
REMARK    3  A    between atoms: C_8  and  N_9
REMARK    4  A    between atoms: C_10  and  C_11
REMARK    5  A    between atoms: C_13  and  C_14
REMARK    6  A    between atoms: C_21  and  C_22
REMARK                            x       y       z     vdW  Elec       q    Type
REMARK                         _______ _______ _______ _____ _____    ______ ____
ROOT
ATOM      1  N   UNL     1       2.320  14.315  20.193  0.00  0.00    +0.000 NA
ATOM      2  C   UNL     1       2.023  13.023  19.562  0.00  0.00    +0.000 C 
ATOM      3  C   UNL     1       0.556  12.708  19.503  0.00  0.00    +0.000 C 
ATOM      4  C   UNL     1      -0.358  13.373  20.230  0.00  0.00    +0.000 C 
ATOM      5  O   UNL     1      -1.710  13.092  20.145  0.00  0.00    +0.000 OA
ATOM      6  C   UNL     1      -2.191  12.185  19.209  0.00  0.00    +0.000 C 
ATOM      7  C   UNL     1      -1.355  11.459  18.436  0.00  0.00    +0.000 C 
ATOM      8  C   UNL     1       0.147  11.599  18.560  0.00  0.00    +0.000 C 
ATOM      9  C   UNL     1       0.051  14.398  21.191  0.00  0.00    +0.000 C 
ATOM     10  C   UNL     1      -0.752  15.261  21.847  0.00  0.00    +0.000 C 
ATOM     11  C   UNL     1       1.557  14.432  21.445  0.00  0.00    +0.000 C 
ENDROOT
BRANCH   8  12
ATOM     12  C   UNL     1       0.798  10.276  18.962  0.00  0.00    +0.000 A 
ATOM     13  C   UNL     1       1.582   9.565  18.042  0.00  0.00    +0.000 A 
ATOM     14  C   UNL     1       2.146   8.339  18.396  0.00  0.00    +0.000 A 
ATOM     15  C   UNL     1       1.936   7.813  19.670  0.00  0.00    +0.000 A 
ATOM     16  C   UNL     1       1.178   8.520  20.600  0.00  0.00    +0.000 A 
ATOM     17  C   UNL     1       0.618   9.748  20.252  0.00  0.00    +0.000 A 
ENDBRANCH   8  12
BRANCH  10  18
ATOM     18  C   UNL     1      -2.210  15.377  21.769  0.00  0.00    +0.000 A 
ATOM     19  C   UNL     1      -2.793  16.174  20.779  0.00  0.00    +0.000 A 
ATOM     20  C   UNL     1      -4.182  16.268  20.677  0.00  0.00    +0.000 A 
ATOM     21  C   UNL     1      -4.994  15.562  21.564  0.00  0.00    +0.000 A 
ATOM     22  C   UNL     1      -4.419  14.772  22.558  0.00  0.00    +0.000 A 
ATOM     23  C   UNL     1      -3.027  14.681  22.666  0.00  0.00    +0.000 A 
ENDBRANCH  10  18
BRANCH   6  24
ATOM     24  N   UNL     1      -3.565  12.112  19.188  0.00  0.00    +0.000 N 
ATOM     25  H   UNL     1      -3.889  11.396  18.541  0.00  0.00    +0.000 HD
ATOM     26  H   UNL     1      -4.050  13.000  19.090  0.00  0.00    +0.000 HD
ENDBRANCH   6  24
BRANCH   1  28
ATOM     27  C   UNL     1       4.107  14.540  21.920  0.00  0.00    +0.000 C 
ATOM     28  C   UNL     1       3.765  14.467  20.432  0.00  0.00    +0.000 C 
ENDBRANCH   1  28
BRANCH   7  29
ATOM     29  C   UNL     1      -1.859  10.540  17.470  0.00  0.00    +0.000 C 
ATOM     30  N   UNL     1      -2.250   9.785  16.682  0.00  0.00    +0.000 NA
ENDBRANCH   7  29
TORSDOF 5
ENDMDL
