MODEL 1
REMARK VINA RESULT:      -7.0      0.000      0.000
REMARK  Name = 
REMARK  8 active torsions:
REMARK  status: ('A' for Active; 'I' for Inactive)
REMARK    1  A    between atoms: C_1  and  C_2
REMARK    2  A    between atoms: C_2  and  C_3
REMARK    3  A    between atoms: C_2  and  C_4
REMARK    4  A    between atoms: C_2  and  C_5
REMARK    5  A    between atoms: C_15  and  C_16
REMARK    6  A    between atoms: C_16  and  C_17
REMARK    7  A    between atoms: C_16  and  C_18
REMARK    8  A    between atoms: C_16  and  C_19
REMARK                            x       y       z     vdW  Elec       q    Type
REMARK                         _______ _______ _______ _____ _____    ______ ____
ROOT
ATOM      1  C   UNL     1      -0.150  10.515  20.662  0.00  0.00    +0.000 A 
ATOM      2  C   UNL     1      -0.197   9.659  21.750  0.00  0.00    +0.000 A 
ATOM      3  S   UNL     1       0.700   8.232  21.415  0.00  0.00    +0.000 S 
ATOM      4  C   UNL     1       1.125   8.892  19.902  0.00  0.00    +0.000 A 
ATOM      5  N   UNL     1       1.928   8.102  19.153  0.00  0.00    +0.000 N 
ATOM      6  C   UNL     1       2.542   8.492  17.995  0.00  0.00    +0.000 C 
ATOM      7  O   UNL     1       2.522   9.611  17.491  0.00  0.00    +0.000 OA
ATOM      8  N   UNL     1       3.315   7.528  17.385  0.00  0.00    +0.000 N 
ATOM      9  C   UNL     1       3.350   6.229  17.794  0.00  0.00    +0.000 A 
ATOM     10  N   UNL     1       2.575   5.697  18.705  0.00  0.00    +0.000 NA
ATOM     11  C   UNL     1       2.892   4.368  18.893  0.00  0.00    +0.000 A 
ATOM     12  C   UNL     1       3.997   3.958  18.164  0.00  0.00    +0.000 A 
ATOM     13  S   UNL     1       4.529   5.221  17.116  0.00  0.00    +0.000 S 
ATOM     14  N   UNL     1       0.635  10.061  19.616  0.00  0.00    +0.000 NA
ATOM     15  H   UNL     1       2.084   7.161  19.494  0.00  0.00    +0.000 HD
ATOM     16  H   UNL     1       3.880   7.826  16.606  0.00  0.00    +0.000 HD
ENDROOT
BRANCH   1  18
ATOM     17  C   UNL     1      -1.907  11.750  19.338  0.00  0.00    +0.000 C 
ATOM     18  C   UNL     1      -0.868  11.835  20.470  0.00  0.00    +0.000 C 
ATOM     19  C   UNL     1       0.167  12.926  20.138  0.00  0.00    +0.000 C 
ATOM     20  C   UNL     1      -1.605  12.237  21.767  0.00  0.00    +0.000 C 
ENDBRANCH   1  18
BRANCH  11  21
ATOM     21  C   UNL     1       2.047   3.588  19.889  0.00  0.00    +0.000 C 
ATOM     22  C   UNL     1       1.130   2.582  19.153  0.00  0.00    +0.000 C 
ATOM     23  C   UNL     1       2.922   2.790  20.871  0.00  0.00    +0.000 C 
ATOM     24  C   UNL     1       1.154   4.564  20.676  0.00  0.00    +0.000 C 
ENDBRANCH  11  21
TORSDOF 2
ENDMDL
MODEL 2
REMARK VINA RESULT:      -7.0      0.096      1.297
REMARK  Name = 
REMARK  8 active torsions:
REMARK  status: ('A' for Active; 'I' for Inactive)
REMARK    1  A    between atoms: C_1  and  C_2
REMARK    2  A    between atoms: C_2  and  C_3
REMARK    3  A    between atoms: C_2  and  C_4
REMARK    4  A    between atoms: C_2  and  C_5
REMARK    5  A    between atoms: C_15  and  C_16
REMARK    6  A    between atoms: C_16  and  C_17
REMARK    7  A    between atoms: C_16  and  C_18
REMARK    8  A    between atoms: C_16  and  C_19
REMARK                            x       y       z     vdW  Elec       q    Type
REMARK                         _______ _______ _______ _____ _____    ______ ____
ROOT
ATOM      1  C   UNL     1      -0.140  10.486  20.728  0.00  0.00    +0.000 A 
ATOM      2  C   UNL     1      -0.189   9.602  21.795  0.00  0.00    +0.000 A 
ATOM      3  S   UNL     1       0.708   8.184  21.426  0.00  0.00    +0.000 S 
ATOM      4  C   UNL     1       1.136   8.881  19.930  0.00  0.00    +0.000 A 
ATOM      5  N   UNL     1       1.941   8.111  19.164  0.00  0.00    +0.000 N 
ATOM      6  C   UNL     1       2.556   8.529  18.017  0.00  0.00    +0.000 C 
ATOM      7  O   UNL     1       2.538   9.661  17.541  0.00  0.00    +0.000 OA
ATOM      8  N   UNL     1       3.330   7.581  17.384  0.00  0.00    +0.000 N 
ATOM      9  C   UNL     1       3.365   6.272  17.761  0.00  0.00    +0.000 A 
ATOM     10  N   UNL     1       2.588   5.718  18.657  0.00  0.00    +0.000 NA
ATOM     11  C   UNL     1       2.904   4.384  18.813  0.00  0.00    +0.000 A 
ATOM     12  C   UNL     1       4.010   3.992  18.075  0.00  0.00    +0.000 A 
ATOM     13  S   UNL     1       4.544   5.281  17.060  0.00  0.00    +0.000 S 
ATOM     14  N   UNL     1       0.647  10.058  19.673  0.00  0.00    +0.000 NA
ATOM     15  H   UNL     1       2.095   7.161  19.481  0.00  0.00    +0.000 HD
ATOM     16  H   UNL     1       3.897   7.898  16.614  0.00  0.00    +0.000 HD
ENDROOT
BRANCH   1  18
ATOM     17  C   UNL     1      -1.687  12.153  21.818  0.00  0.00    +0.000 C 
ATOM     18  C   UNL     1      -0.857  11.810  20.569  0.00  0.00    +0.000 C 
ATOM     19  C   UNL     1      -1.783  11.735  19.340  0.00  0.00    +0.000 C 
ATOM     20  C   UNL     1       0.163  12.949  20.345  0.00  0.00    +0.000 C 
ENDBRANCH   1  18
BRANCH  11  21
ATOM     21  C   UNL     1       2.057   3.580  19.787  0.00  0.00    +0.000 C 
ATOM     22  C   UNL     1       2.959   2.813  20.784  0.00  0.00    +0.000 C 
ATOM     23  C   UNL     1       1.123   4.487  20.606  0.00  0.00    +0.000 C 
ATOM     24  C   UNL     1       1.218   2.552  19.008  0.00  0.00    +0.000 C 
ENDBRANCH  11  21
TORSDOF 2
ENDMDL
MODEL 3
REMARK VINA RESULT:      -7.0      0.330      1.278
REMARK  Name = 
REMARK  8 active torsions:
REMARK  status: ('A' for Active; 'I' for Inactive)
REMARK    1  A    between atoms: C_1  and  C_2
REMARK    2  A    between atoms: C_2  and  C_3
REMARK    3  A    between atoms: C_2  and  C_4
REMARK    4  A    between atoms: C_2  and  C_5
REMARK    5  A    between atoms: C_15  and  C_16
REMARK    6  A    between atoms: C_16  and  C_17
REMARK    7  A    between atoms: C_16  and  C_18
REMARK    8  A    between atoms: C_16  and  C_19
REMARK                            x       y       z     vdW  Elec       q    Type
REMARK                         _______ _______ _______ _____ _____    ______ ____
ROOT
ATOM      1  C   UNL     1       0.130  10.374  20.575  0.00  0.00    +0.000 A 
ATOM      2  C   UNL     1       0.059   9.531  21.673  0.00  0.00    +0.000 A 
ATOM      3  S   UNL     1       0.905   8.071  21.349  0.00  0.00    +0.000 S 
ATOM      4  C   UNL     1       1.345   8.700  19.827  0.00  0.00    +0.000 A 
ATOM      5  N   UNL     1       2.117   7.876  19.083  0.00  0.00    +0.000 N 
ATOM      6  C   UNL     1       2.737   8.232  17.918  0.00  0.00    +0.000 C 
ATOM      7  O   UNL     1       2.753   9.347  17.402  0.00  0.00    +0.000 OA
ATOM      8  N   UNL     1       3.474   7.237  17.314  0.00  0.00    +0.000 N 
ATOM      9  C   UNL     1       3.467   5.941  17.737  0.00  0.00    +0.000 A 
ATOM     10  N   UNL     1       2.679   5.446  18.657  0.00  0.00    +0.000 NA
ATOM     11  C   UNL     1       2.951   4.108  18.858  0.00  0.00    +0.000 A 
ATOM     12  C   UNL     1       4.038   3.653  18.128  0.00  0.00    +0.000 A 
ATOM     13  S   UNL     1       4.607   4.887  17.064  0.00  0.00    +0.000 S 
ATOM     14  N   UNL     1       0.894   9.882  19.531  0.00  0.00    +0.000 NA
ATOM     15  H   UNL     1       2.242   6.933  19.433  0.00  0.00    +0.000 HD
ATOM     16  H   UNL     1       4.046   7.507  16.530  0.00  0.00    +0.000 HD
ENDROOT
BRANCH   1  18
ATOM     17  C   UNL     1       0.435  12.754  19.796  0.00  0.00    +0.000 C 
ATOM     18  C   UNL     1      -0.543  11.715  20.373  0.00  0.00    +0.000 C 
ATOM     19  C   UNL     1      -1.085  12.215  21.726  0.00  0.00    +0.000 C 
ATOM     20  C   UNL     1      -1.729  11.578  19.392  0.00  0.00    +0.000 C 
ENDBRANCH   1  18
BRANCH  11  21
ATOM     21  C   UNL     1       2.085   3.369  19.867  0.00  0.00    +0.000 C 
ATOM     22  C   UNL     1       1.047   4.328  20.496  0.00  0.00    +0.000 C 
ATOM     23  C   UNL     1       1.313   2.213  19.209  0.00  0.00    +0.000 C 
ATOM     24  C   UNL     1       2.974   2.815  20.995  0.00  0.00    +0.000 C 
ENDBRANCH  11  21
TORSDOF 2
ENDMDL
MODEL 4
REMARK VINA RESULT:      -6.7      2.366      3.664
REMARK  Name = 
REMARK  8 active torsions:
REMARK  status: ('A' for Active; 'I' for Inactive)
REMARK    1  A    between atoms: C_1  and  C_2
REMARK    2  A    between atoms: C_2  and  C_3
REMARK    3  A    between atoms: C_2  and  C_4
REMARK    4  A    between atoms: C_2  and  C_5
REMARK    5  A    between atoms: C_15  and  C_16
REMARK    6  A    between atoms: C_16  and  C_17
REMARK    7  A    between atoms: C_16  and  C_18
REMARK    8  A    between atoms: C_16  and  C_19
REMARK                            x       y       z     vdW  Elec       q    Type
REMARK                         _______ _______ _______ _____ _____    ______ ____
ROOT
ATOM      1  C   UNL     1       0.710  10.250  19.634  0.00  0.00    +0.000 A 
ATOM      2  C   UNL     1       1.135  10.471  18.333  0.00  0.00    +0.000 A 
ATOM      3  S   UNL     1       2.083   9.146  17.790  0.00  0.00    +0.000 S 
ATOM      4  C   UNL     1       1.797   8.370  19.282  0.00  0.00    +0.000 A 
ATOM      5  N   UNL     1       2.363   7.147  19.393  0.00  0.00    +0.000 N 
ATOM      6  C   UNL     1       2.122   6.269  20.414  0.00  0.00    +0.000 C 
ATOM      7  O   UNL     1       1.323   6.411  21.335  0.00  0.00    +0.000 OA
ATOM      8  N   UNL     1       2.808   5.077  20.339  0.00  0.00    +0.000 N 
ATOM      9  C   UNL     1       3.783   4.832  19.419  0.00  0.00    +0.000 A 
ATOM     10  N   UNL     1       4.288   5.713  18.594  0.00  0.00    +0.000 NA
ATOM     11  C   UNL     1       5.238   5.128  17.782  0.00  0.00    +0.000 A 
ATOM     12  C   UNL     1       5.348   3.759  17.965  0.00  0.00    +0.000 A 
ATOM     13  S   UNL     1       4.358   3.246  19.283  0.00  0.00    +0.000 S 
ATOM     14  N   UNL     1       1.086   9.023  20.152  0.00  0.00    +0.000 NA
ATOM     15  H   UNL     1       3.002   6.874  18.657  0.00  0.00    +0.000 HD
ATOM     16  H   UNL     1       2.551   4.363  21.002  0.00  0.00    +0.000 HD
ENDROOT
BRANCH   1  18
ATOM     17  C   UNL     1      -1.418  11.573  19.927  0.00  0.00    +0.000 C 
ATOM     18  C   UNL     1      -0.063  11.182  20.543  0.00  0.00    +0.000 C 
ATOM     19  C   UNL     1       0.774  12.451  20.792  0.00  0.00    +0.000 C 
ATOM     20  C   UNL     1      -0.335  10.500  21.903  0.00  0.00    +0.000 C 
ENDBRANCH   1  18
BRANCH  11  21
ATOM     21  C   UNL     1       5.959   6.033  16.794  0.00  0.00    +0.000 C 
ATOM     22  C   UNL     1       6.977   6.936  17.530  0.00  0.00    +0.000 C 
ATOM     23  C   UNL     1       6.732   5.219  15.743  0.00  0.00    +0.000 C 
ATOM     24  C   UNL     1       4.934   6.939  16.090  0.00  0.00    +0.000 C 
ENDBRANCH  11  21
TORSDOF 2
ENDMDL
MODEL 5
REMARK VINA RESULT:      -6.7      2.367      3.760
REMARK  Name = 
REMARK  8 active torsions:
REMARK  status: ('A' for Active; 'I' for Inactive)
REMARK    1  A    between atoms: C_1  and  C_2
REMARK    2  A    between atoms: C_2  and  C_3
REMARK    3  A    between atoms: C_2  and  C_4
REMARK    4  A    between atoms: C_2  and  C_5
REMARK    5  A    between atoms: C_15  and  C_16
REMARK    6  A    between atoms: C_16  and  C_17
REMARK    7  A    between atoms: C_16  and  C_18
REMARK    8  A    between atoms: C_16  and  C_19
REMARK                            x       y       z     vdW  Elec       q    Type
REMARK                         _______ _______ _______ _____ _____    ______ ____
ROOT
ATOM      1  C   UNL     1       0.715  10.250  19.634  0.00  0.00    +0.000 A 
ATOM      2  C   UNL     1       1.144  10.475  18.335  0.00  0.00    +0.000 A 
ATOM      3  S   UNL     1       2.094   9.151  17.791  0.00  0.00    +0.000 S 
ATOM      4  C   UNL     1       1.804   8.371  19.280  0.00  0.00    +0.000 A 
ATOM      5  N   UNL     1       2.371   7.148  19.390  0.00  0.00    +0.000 N 
ATOM      6  C   UNL     1       2.127   6.267  20.407  0.00  0.00    +0.000 C 
ATOM      7  O   UNL     1       1.326   6.406  21.326  0.00  0.00    +0.000 OA
ATOM      8  N   UNL     1       2.814   5.076  20.330  0.00  0.00    +0.000 N 
ATOM      9  C   UNL     1       3.792   4.834  19.413  0.00  0.00    +0.000 A 
ATOM     10  N   UNL     1       4.299   5.718  18.591  0.00  0.00    +0.000 NA
ATOM     11  C   UNL     1       5.252   5.135  17.781  0.00  0.00    +0.000 A 
ATOM     12  C   UNL     1       5.361   3.765  17.960  0.00  0.00    +0.000 A 
ATOM     13  S   UNL     1       4.369   3.249  19.274  0.00  0.00    +0.000 S 
ATOM     14  N   UNL     1       1.091   9.021  20.150  0.00  0.00    +0.000 NA
ATOM     15  H   UNL     1       3.012   6.878  18.654  0.00  0.00    +0.000 HD
ATOM     16  H   UNL     1       2.556   4.360  20.991  0.00  0.00    +0.000 HD
ENDROOT
BRANCH   1  18
ATOM     17  C   UNL     1      -0.380  10.508  21.891  0.00  0.00    +0.000 C 
ATOM     18  C   UNL     1      -0.061  11.178  20.544  0.00  0.00    +0.000 C 
ATOM     19  C   UNL     1      -1.373  11.584  19.847  0.00  0.00    +0.000 C 
ATOM     20  C   UNL     1       0.758  12.458  20.829  0.00  0.00    +0.000 C 
ENDBRANCH   1  18
BRANCH  11  21
ATOM     21  C   UNL     1       5.975   6.043  16.798  0.00  0.00    +0.000 C 
ATOM     22  C   UNL     1       4.960   6.911  16.015  0.00  0.00    +0.000 C 
ATOM     23  C   UNL     1       6.946   6.994  17.516  0.00  0.00    +0.000 C 
ATOM     24  C   UNL     1       6.753   5.183  15.786  0.00  0.00    +0.000 C 
ENDBRANCH  11  21
TORSDOF 2
ENDMDL
MODEL 6
REMARK VINA RESULT:      -6.7      2.357      3.803
REMARK  Name = 
REMARK  8 active torsions:
REMARK  status: ('A' for Active; 'I' for Inactive)
REMARK    1  A    between atoms: C_1  and  C_2
REMARK    2  A    between atoms: C_2  and  C_3
REMARK    3  A    between atoms: C_2  and  C_4
REMARK    4  A    between atoms: C_2  and  C_5
REMARK    5  A    between atoms: C_15  and  C_16
REMARK    6  A    between atoms: C_16  and  C_17
REMARK    7  A    between atoms: C_16  and  C_18
REMARK    8  A    between atoms: C_16  and  C_19
REMARK                            x       y       z     vdW  Elec       q    Type
REMARK                         _______ _______ _______ _____ _____    ______ ____
ROOT
ATOM      1  C   UNL     1       1.017   9.970  19.733  0.00  0.00    +0.000 A 
ATOM      2  C   UNL     1       1.384  10.250  18.426  0.00  0.00    +0.000 A 
ATOM      3  S   UNL     1       2.149   8.882  17.723  0.00  0.00    +0.000 S 
ATOM      4  C   UNL     1       1.873   8.023  19.170  0.00  0.00    +0.000 A 
ATOM      5  N   UNL     1       2.310   6.743  19.153  0.00  0.00    +0.000 N 
ATOM      6  C   UNL     1       2.039   5.816  20.120  0.00  0.00    +0.000 C 
ATOM      7  O   UNL     1       1.317   5.964  21.102  0.00  0.00    +0.000 OA
ATOM      8  N   UNL     1       2.587   4.569  19.911  0.00  0.00    +0.000 N 
ATOM      9  C   UNL     1       3.473   4.300  18.911  0.00  0.00    +0.000 A 
ATOM     10  N   UNL     1       4.018   5.188  18.120  0.00  0.00    +0.000 NA
ATOM     11  C   UNL     1       4.848   4.576  17.204  0.00  0.00    +0.000 A 
ATOM     12  C   UNL     1       4.821   3.192  17.278  0.00  0.00    +0.000 A 
ATOM     13  S   UNL     1       3.865   2.680  18.620  0.00  0.00    +0.000 S 
ATOM     14  N   UNL     1       1.290   8.673  20.133  0.00  0.00    +0.000 NA
ATOM     15  H   UNL     1       2.870   6.466  18.356  0.00  0.00    +0.000 HD
ATOM     16  H   UNL     1       2.296   3.835  20.536  0.00  0.00    +0.000 HD
ENDROOT
BRANCH   1  18
ATOM     17  C   UNL     1       1.217  12.200  20.893  0.00  0.00    +0.000 C 
ATOM     18  C   UNL     1       0.406  10.900  20.759  0.00  0.00    +0.000 C 
ATOM     19  C   UNL     1       0.355  10.182  22.121  0.00  0.00    +0.000 C 
ATOM     20  C   UNL     1      -1.036  11.277  20.350  0.00  0.00    +0.000 C 
ENDBRANCH   1  18
BRANCH  11  21
ATOM     21  C   UNL     1       5.601   5.478  16.237  0.00  0.00    +0.000 C 
ATOM     22  C   UNL     1       5.646   4.843  14.827  0.00  0.00    +0.000 C 
ATOM     23  C   UNL     1       4.927   6.854  16.107  0.00  0.00    +0.000 C 
ATOM     24  C   UNL     1       7.047   5.660  16.729  0.00  0.00    +0.000 C 
ENDBRANCH  11  21
TORSDOF 2
ENDMDL
MODEL 7
REMARK VINA RESULT:      -6.4      2.294      3.608
REMARK  Name = 
REMARK  8 active torsions:
REMARK  status: ('A' for Active; 'I' for Inactive)
REMARK    1  A    between atoms: C_1  and  C_2
REMARK    2  A    between atoms: C_2  and  C_3
REMARK    3  A    between atoms: C_2  and  C_4
REMARK    4  A    between atoms: C_2  and  C_5
REMARK    5  A    between atoms: C_15  and  C_16
REMARK    6  A    between atoms: C_16  and  C_17
REMARK    7  A    between atoms: C_16  and  C_18
REMARK    8  A    between atoms: C_16  and  C_19
REMARK                            x       y       z     vdW  Elec       q    Type
REMARK                         _______ _______ _______ _____ _____    ______ ____
ROOT
ATOM      1  C   UNL     1       1.075  10.459  19.351  0.00  0.00    +0.000 A 
ATOM      2  C   UNL     1       1.567  10.451  18.056  0.00  0.00    +0.000 A 
ATOM      3  S   UNL     1       2.294   8.934  17.711  0.00  0.00    +0.000 S 
ATOM      4  C   UNL     1       1.841   8.399  19.266  0.00  0.00    +0.000 A 
ATOM      5  N   UNL     1       2.191   7.122  19.542  0.00  0.00    +0.000 N 
ATOM      6  C   UNL     1       1.778   6.424  20.643  0.00  0.00    +0.000 C 
ATOM      7  O   UNL     1       0.989   6.803  21.503  0.00  0.00    +0.000 OA
ATOM      8  N   UNL     1       2.257   5.135  20.735  0.00  0.00    +0.000 N 
ATOM      9  C   UNL     1       3.202   4.626  19.896  0.00  0.00    +0.000 A 
ATOM     10  N   UNL     1       3.870   5.309  19.001  0.00  0.00    +0.000 NA
ATOM     11  C   UNL     1       4.731   4.484  18.307  0.00  0.00    +0.000 A 
ATOM     12  C   UNL     1       4.604   3.146  18.648  0.00  0.00    +0.000 A 
ATOM     13  S   UNL     1       3.508   2.964  19.968  0.00  0.00    +0.000 S 
ATOM     14  N   UNL     1       1.226   9.258  20.022  0.00  0.00    +0.000 NA
ATOM     15  H   UNL     1       2.795   6.663  18.872  0.00  0.00    +0.000 HD
ATOM     16  H   UNL     1       1.866   4.557  21.462  0.00  0.00    +0.000 HD
ENDROOT
BRANCH   1  18
ATOM     17  C   UNL     1       1.463  12.726  20.388  0.00  0.00    +0.000 C 
ATOM     18  C   UNL     1       0.444  11.607  20.112  0.00  0.00    +0.000 C 
ATOM     19  C   UNL     1      -0.114  11.078  21.447  0.00  0.00    +0.000 C 
ATOM     20  C   UNL     1      -0.723  12.212  19.299  0.00  0.00    +0.000 C 
ENDBRANCH   1  18
BRANCH  11  21
ATOM     21  C   UNL     1       5.620   5.134  17.258  0.00  0.00    +0.000 C 
ATOM     22  C   UNL     1       5.370   6.660  17.206  0.00  0.00    +0.000 C 
ATOM     23  C   UNL     1       7.111   4.916  17.566  0.00  0.00    +0.000 C 
ATOM     24  C   UNL     1       5.291   4.547  15.874  0.00  0.00    +0.000 C 
ENDBRANCH  11  21
TORSDOF 2
ENDMDL
MODEL 8
REMARK VINA RESULT:      -6.3      1.012      1.430
REMARK  Name = 
REMARK  8 active torsions:
REMARK  status: ('A' for Active; 'I' for Inactive)
REMARK    1  A    between atoms: C_1  and  C_2
REMARK    2  A    between atoms: C_2  and  C_3
REMARK    3  A    between atoms: C_2  and  C_4
REMARK    4  A    between atoms: C_2  and  C_5
REMARK    5  A    between atoms: C_15  and  C_16
REMARK    6  A    between atoms: C_16  and  C_17
REMARK    7  A    between atoms: C_16  and  C_18
REMARK    8  A    between atoms: C_16  and  C_19
REMARK                            x       y       z     vdW  Elec       q    Type
REMARK                         _______ _______ _______ _____ _____    ______ ____
ROOT
ATOM      1  C   UNL     1      -0.443  10.773  21.581  0.00  0.00    +0.000 A 
ATOM      2  C   UNL     1      -0.337   9.764  22.526  0.00  0.00    +0.000 A 
ATOM      3  S   UNL     1       0.626   8.482  21.911  0.00  0.00    +0.000 S 
ATOM      4  C   UNL     1       0.875   9.390  20.490  0.00  0.00    +0.000 A 
ATOM      5  N   UNL     1       1.666   8.788  19.573  0.00  0.00    +0.000 N 
ATOM      6  C   UNL     1       2.150   9.394  18.447  0.00  0.00    +0.000 C 
ATOM      7  O   UNL     1       2.010  10.570  18.124  0.00  0.00    +0.000 OA
ATOM      8  N   UNL     1       2.935   8.598  17.642  0.00  0.00    +0.000 N 
ATOM      9  C   UNL     1       3.096   7.260  17.842  0.00  0.00    +0.000 A 
ATOM     10  N   UNL     1       2.440   6.538  18.714  0.00  0.00    +0.000 NA
ATOM     11  C   UNL     1       2.864   5.226  18.673  0.00  0.00    +0.000 A 
ATOM     12  C   UNL     1       3.930   5.020  17.811  0.00  0.00    +0.000 A 
ATOM     13  S   UNL     1       4.281   6.464  16.933  0.00  0.00    +0.000 S 
ATOM     14  N   UNL     1       0.281  10.544  20.424  0.00  0.00    +0.000 NA
ATOM     15  H   UNL     1       1.915   7.823  19.753  0.00  0.00    +0.000 HD
ATOM     16  H   UNL     1       3.411   9.054  16.879  0.00  0.00    +0.000 HD
ENDROOT
BRANCH   1  18
ATOM     17  C   UNL     1      -0.371  13.283  21.816  0.00  0.00    +0.000 C 
ATOM     18  C   UNL     1      -1.265  12.043  21.648  0.00  0.00    +0.000 C 
ATOM     19  C   UNL     1      -2.242  11.948  22.835  0.00  0.00    +0.000 C 
ATOM     20  C   UNL     1      -2.087  12.219  20.351  0.00  0.00    +0.000 C 
ENDBRANCH   1  18
BRANCH  11  21
ATOM     21  C   UNL     1       2.163   4.241  19.596  0.00  0.00    +0.000 C 
ATOM     22  C   UNL     1       1.122   3.408  18.810  0.00  0.00    +0.000 C 
ATOM     23  C   UNL     1       3.158   3.259  20.236  0.00  0.00    +0.000 C 
ATOM     24  C   UNL     1       1.424   5.015  20.702  0.00  0.00    +0.000 C 
ENDBRANCH  11  21
TORSDOF 2
ENDMDL
