MODEL 1
REMARK VINA RESULT:      -8.9      0.000      0.000
REMARK  Name = 
REMARK  7 active torsions:
REMARK  status: ('A' for Active; 'I' for Inactive)
REMARK    1  A    between atoms: C_1  and  C_2
REMARK    2  A    between atoms: C_2  and  C_3
REMARK    3  A    between atoms: C_3  and  N_4
REMARK    4  A    between atoms: C_9  and  C_10
REMARK    5  A    between atoms: C_12  and  N_13
REMARK    6  A    between atoms: N_13  and  C_14
REMARK    7  A    between atoms: C_17  and  N_18
REMARK                            x       y       z     vdW  Elec       q    Type
REMARK                         _______ _______ _______ _____ _____    ______ ____
ROOT
ATOM      1  C   UNL     1      -0.220  10.623  20.739  0.00  0.00    +0.000 A 
ATOM      2  C   UNL     1      -1.040  11.589  20.105  0.00  0.00    +0.000 A 
ATOM      3  C   UNL     1      -1.958  12.356  20.849  0.00  0.00    +0.000 A 
ATOM      4  N   UNL     1      -2.027  12.245  22.163  0.00  0.00    +0.000 NA
ATOM      5  C   UNL     1      -1.235  11.319  22.779  0.00  0.00    +0.000 A 
ATOM      6  C   UNL     1      -0.337  10.484  22.116  0.00  0.00    +0.000 A 
ATOM      7 CL   UNL     1       0.595   9.398  23.074  0.00  0.00    +0.000 Cl
ENDROOT
BRANCH   1  13
ATOM      8  N   UNL     1       2.529   6.775  20.289  0.00  0.00    +0.000 N 
ATOM      9  C   UNL     1       2.001   7.912  19.685  0.00  0.00    +0.000 A 
ATOM     10  C   UNL     1       2.238   8.202  18.344  0.00  0.00    +0.000 A 
ATOM     11  C   UNL     1       1.695   9.338  17.781  0.00  0.00    +0.000 A 
ATOM     12  C   UNL     1       0.909  10.163  18.563  0.00  0.00    +0.000 A 
ATOM     13  C   UNL     1       0.692   9.825  19.898  0.00  0.00    +0.000 A 
ATOM     14  N   UNL     1       1.250   8.721  20.455  0.00  0.00    +0.000 NA
ATOM     15  H   UNL     1       2.991   7.102  21.136  0.00  0.00    +0.000 HD
BRANCH   8  16
ATOM     16  C   UNL     1       3.298   5.859  19.451  0.00  0.00    +0.000 C 
BRANCH  16  18
ATOM     17  C   UNL     1       4.014   3.471  19.498  0.00  0.00    +0.000 C 
ATOM     18  C   UNL     1       2.787   4.405  19.536  0.00  0.00    +0.000 C 
ATOM     19  C   UNL     1       1.828   4.088  18.369  0.00  0.00    +0.000 C 
ATOM     20  C   UNL     1       1.143   2.738  18.545  0.00  0.00    +0.000 C 
ATOM     21  O   UNL     1       0.450   2.679  19.790  0.00  0.00    +0.000 OA
ATOM     22  C   UNL     1       1.314   2.843  20.913  0.00  0.00    +0.000 C 
ATOM     23  C   UNL     1       2.017   4.199  20.867  0.00  0.00    +0.000 C 
ENDBRANCH  16  18
ENDBRANCH   8  16
ENDBRANCH   1  13
BRANCH   3  24
ATOM     24  N   UNL     1      -2.774  13.244  20.154  0.00  0.00    +0.000 N 
ATOM     25  H   UNL     1      -2.252  13.881  19.578  0.00  0.00    +0.000 HD
BRANCH  24  26
ATOM     26  C   UNL     1      -4.111  12.844  19.678  0.00  0.00    +0.000 C 
ATOM     27  C   UNL     1      -3.921  11.707  18.641  0.00  0.00    +0.000 C 
ATOM     28  C   UNL     1      -5.264  11.218  18.091  0.00  0.00    +0.000 C 
ATOM     29  C   UNL     1      -6.167  10.733  19.225  0.00  0.00    +0.000 C 
ATOM     30  C   UNL     1      -6.365  11.841  20.270  0.00  0.00    +0.000 C 
ATOM     31  C   UNL     1      -5.021  12.347  20.806  0.00  0.00    +0.000 C 
BRANCH  29  32
ATOM     32  N   UNL     1      -7.451  10.293  18.685  0.00  0.00    +0.000 NA
ATOM     33  H   UNL     1      -7.366   9.353  18.298  0.00  0.00    +0.000 HD
ATOM     34  H   UNL     1      -7.717  10.894  17.905  0.00  0.00    +0.000 HD
ENDBRANCH  29  32
ENDBRANCH  24  26
ENDBRANCH   3  24
TORSDOF 6
ENDMDL
MODEL 2
REMARK VINA RESULT:      -8.8      3.199      9.557
REMARK  Name = 
REMARK  7 active torsions:
REMARK  status: ('A' for Active; 'I' for Inactive)
REMARK    1  A    between atoms: C_1  and  C_2
REMARK    2  A    between atoms: C_2  and  C_3
REMARK    3  A    between atoms: C_3  and  N_4
REMARK    4  A    between atoms: C_9  and  C_10
REMARK    5  A    between atoms: C_12  and  N_13
REMARK    6  A    between atoms: N_13  and  C_14
REMARK    7  A    between atoms: C_17  and  N_18
REMARK                            x       y       z     vdW  Elec       q    Type
REMARK                         _______ _______ _______ _____ _____    ______ ____
ROOT
ATOM      1  C   UNL     1       0.729   9.323  19.116  0.00  0.00    +0.000 A 
ATOM      2  C   UNL     1       1.602   8.744  18.162  0.00  0.00    +0.000 A 
ATOM      3  C   UNL     1       2.491   7.715  18.529  0.00  0.00    +0.000 A 
ATOM      4  N   UNL     1       2.483   7.216  19.752  0.00  0.00    +0.000 NA
ATOM      5  C   UNL     1       1.640   7.766  20.673  0.00  0.00    +0.000 A 
ATOM      6  C   UNL     1       0.765   8.819  20.410  0.00  0.00    +0.000 A 
ATOM      7 CL   UNL     1      -0.242   9.359  21.699  0.00  0.00    +0.000 Cl
ENDROOT
BRANCH   1  13
ATOM      8  N   UNL     1      -3.544  10.708  17.571  0.00  0.00    +0.000 N 
ATOM      9  C   UNL     1      -2.262  11.086  17.959  0.00  0.00    +0.000 A 
ATOM     10  C   UNL     1      -1.885  12.425  18.027  0.00  0.00    +0.000 A 
ATOM     11  C   UNL     1      -0.606  12.758  18.419  0.00  0.00    +0.000 A 
ATOM     12  C   UNL     1       0.278  11.749  18.751  0.00  0.00    +0.000 A 
ATOM     13  C   UNL     1      -0.149  10.424  18.677  0.00  0.00    +0.000 A 
ATOM     14  N   UNL     1      -1.401  10.099  18.265  0.00  0.00    +0.000 NA
ATOM     15  H   UNL     1      -3.417  10.015  16.836  0.00  0.00    +0.000 HD
BRANCH   8  16
ATOM     16  C   UNL     1      -4.507  11.771  17.290  0.00  0.00    +0.000 C 
BRANCH  16  18
ATOM     17  C   UNL     1      -6.882  12.464  17.589  0.00  0.00    +0.000 C 
ATOM     18  C   UNL     1      -5.688  11.779  18.283  0.00  0.00    +0.000 C 
ATOM     19  C   UNL     1      -5.313  12.526  19.581  0.00  0.00    +0.000 C 
ATOM     20  C   UNL     1      -6.379  12.366  20.658  0.00  0.00    +0.000 C 
ATOM     21  O   UNL     1      -6.622  10.986  20.929  0.00  0.00    +0.000 OA
ATOM     22  C   UNL     1      -7.093  10.273  19.788  0.00  0.00    +0.000 C 
ATOM     23  C   UNL     1      -6.069  10.322  18.655  0.00  0.00    +0.000 C 
ENDBRANCH  16  18
ENDBRANCH   8  16
ENDBRANCH   1  13
BRANCH   3  24
ATOM     24  N   UNL     1       3.363   7.233  17.556  0.00  0.00    +0.000 N 
ATOM     25  H   UNL     1       3.347   7.782  16.716  0.00  0.00    +0.000 HD
BRANCH  24  26
ATOM     26  C   UNL     1       4.640   6.595  17.922  0.00  0.00    +0.000 C 
ATOM     27  C   UNL     1       4.468   5.063  17.748  0.00  0.00    +0.000 C 
ATOM     28  C   UNL     1       5.754   4.310  18.102  0.00  0.00    +0.000 C 
ATOM     29  C   UNL     1       6.919   4.796  17.241  0.00  0.00    +0.000 C 
ATOM     30  C   UNL     1       7.105   6.313  17.390  0.00  0.00    +0.000 C 
ATOM     31  C   UNL     1       5.813   7.069  17.058  0.00  0.00    +0.000 C 
BRANCH  29  32
ATOM     32  N   UNL     1       8.140   4.084  17.608  0.00  0.00    +0.000 NA
ATOM     33  H   UNL     1       8.842   4.742  17.949  0.00  0.00    +0.000 HD
ATOM     34  H   UNL     1       8.544   3.649  16.779  0.00  0.00    +0.000 HD
ENDBRANCH  29  32
ENDBRANCH  24  26
ENDBRANCH   3  24
TORSDOF 6
ENDMDL
MODEL 3
REMARK VINA RESULT:      -8.7      0.867      1.394
REMARK  Name = 
REMARK  7 active torsions:
REMARK  status: ('A' for Active; 'I' for Inactive)
REMARK    1  A    between atoms: C_1  and  C_2
REMARK    2  A    between atoms: C_2  and  C_3
REMARK    3  A    between atoms: C_3  and  N_4
REMARK    4  A    between atoms: C_9  and  C_10
REMARK    5  A    between atoms: C_12  and  N_13
REMARK    6  A    between atoms: N_13  and  C_14
REMARK    7  A    between atoms: C_17  and  N_18
REMARK                            x       y       z     vdW  Elec       q    Type
REMARK                         _______ _______ _______ _____ _____    ______ ____
ROOT
ATOM      1  C   UNL     1      -0.259  10.750  20.856  0.00  0.00    +0.000 A 
ATOM      2  C   UNL     1      -1.082  11.741  20.263  0.00  0.00    +0.000 A 
ATOM      3  C   UNL     1      -1.983  12.490  21.043  0.00  0.00    +0.000 A 
ATOM      4  N   UNL     1      -2.033  12.341  22.355  0.00  0.00    +0.000 NA
ATOM      5  C   UNL     1      -1.240  11.391  22.931  0.00  0.00    +0.000 A 
ATOM      6  C   UNL     1      -0.357  10.571  22.230  0.00  0.00    +0.000 A 
ATOM      7 CL   UNL     1       0.581   9.450  23.140  0.00  0.00    +0.000 Cl
ENDROOT
BRANCH   1  13
ATOM      8  N   UNL     1       2.320   6.818  20.184  0.00  0.00    +0.000 N 
ATOM      9  C   UNL     1       1.858   8.019  19.653  0.00  0.00    +0.000 A 
ATOM     10  C   UNL     1       2.140   8.392  18.341  0.00  0.00    +0.000 A 
ATOM     11  C   UNL     1       1.663   9.590  17.852  0.00  0.00    +0.000 A 
ATOM     12  C   UNL     1       0.897  10.393  18.675  0.00  0.00    +0.000 A 
ATOM     13  C   UNL     1       0.634   9.972  19.978  0.00  0.00    +0.000 A 
ATOM     14  N   UNL     1       1.128   8.805  20.464  0.00  0.00    +0.000 NA
ATOM     15  H   UNL     1       2.776   7.062  21.061  0.00  0.00    +0.000 HD
BRANCH   8  16
ATOM     16  C   UNL     1       3.066   5.928  19.298  0.00  0.00    +0.000 C 
BRANCH  16  18
ATOM     17  C   UNL     1       1.898   3.843  18.589  0.00  0.00    +0.000 C 
ATOM     18  C   UNL     1       2.857   4.438  19.640  0.00  0.00    +0.000 C 
ATOM     19  C   UNL     1       2.275   4.273  21.060  0.00  0.00    +0.000 C 
ATOM     20  C   UNL     1       2.261   2.815  21.504  0.00  0.00    +0.000 C 
ATOM     21  O   UNL     1       3.568   2.250  21.432  0.00  0.00    +0.000 OA
ATOM     22  C   UNL     1       4.106   2.264  20.111  0.00  0.00    +0.000 C 
ATOM     23  C   UNL     1       4.217   3.694  19.583  0.00  0.00    +0.000 C 
ENDBRANCH  16  18
ENDBRANCH   8  16
ENDBRANCH   1  13
BRANCH   3  24
ATOM     24  N   UNL     1      -2.804  13.405  20.388  0.00  0.00    +0.000 N 
ATOM     25  H   UNL     1      -2.319  13.917  19.672  0.00  0.00    +0.000 HD
BRANCH  24  26
ATOM     26  C   UNL     1      -4.235  13.129  20.169  0.00  0.00    +0.000 C 
ATOM     27  C   UNL     1      -4.341  11.986  19.127  0.00  0.00    +0.000 C 
ATOM     28  C   UNL     1      -5.801  11.624  18.837  0.00  0.00    +0.000 C 
ATOM     29  C   UNL     1      -6.521  11.215  20.122  0.00  0.00    +0.000 C 
ATOM     30  C   UNL     1      -6.423  12.330  21.174  0.00  0.00    +0.000 C 
ATOM     31  C   UNL     1      -4.964  12.710  21.450  0.00  0.00    +0.000 C 
BRANCH  29  32
ATOM     32  N   UNL     1      -7.916  10.896  19.831  0.00  0.00    +0.000 NA
ATOM     33  H   UNL     1      -8.493  11.734  19.913  0.00  0.00    +0.000 HD
ATOM     34  H   UNL     1      -8.270  10.243  20.528  0.00  0.00    +0.000 HD
ENDBRANCH  29  32
ENDBRANCH  24  26
ENDBRANCH   3  24
TORSDOF 6
ENDMDL
MODEL 4
REMARK VINA RESULT:      -8.5      2.864      4.143
REMARK  Name = 
REMARK  7 active torsions:
REMARK  status: ('A' for Active; 'I' for Inactive)
REMARK    1  A    between atoms: C_1  and  C_2
REMARK    2  A    between atoms: C_2  and  C_3
REMARK    3  A    between atoms: C_3  and  N_4
REMARK    4  A    between atoms: C_9  and  C_10
REMARK    5  A    between atoms: C_12  and  N_13
REMARK    6  A    between atoms: N_13  and  C_14
REMARK    7  A    between atoms: C_17  and  N_18
REMARK                            x       y       z     vdW  Elec       q    Type
REMARK                         _______ _______ _______ _____ _____    ______ ____
ROOT
ATOM      1  C   UNL     1       0.109  10.886  20.966  0.00  0.00    +0.000 A 
ATOM      2  C   UNL     1       0.072  12.284  20.737  0.00  0.00    +0.000 A 
ATOM      3  C   UNL     1      -0.617  13.141  21.617  0.00  0.00    +0.000 A 
ATOM      4  N   UNL     1      -1.183  12.673  22.715  0.00  0.00    +0.000 NA
ATOM      5  C   UNL     1      -1.146  11.328  22.943  0.00  0.00    +0.000 A 
ATOM      6  C   UNL     1      -0.532  10.403  22.100  0.00  0.00    +0.000 A 
ATOM      7 CL   UNL     1      -0.567   8.748  22.574  0.00  0.00    +0.000 Cl
ENDROOT
BRANCH   1  13
ATOM      8  N   UNL     1       2.584   6.927  20.088  0.00  0.00    +0.000 N 
ATOM      9  C   UNL     1       1.989   8.074  19.570  0.00  0.00    +0.000 A 
ATOM     10  C   UNL     1       1.973   8.333  18.201  0.00  0.00    +0.000 A 
ATOM     11  C   UNL     1       1.372   9.479  17.727  0.00  0.00    +0.000 A 
ATOM     12  C   UNL     1       0.780  10.346  18.625  0.00  0.00    +0.000 A 
ATOM     13  C   UNL     1       0.813  10.040  19.984  0.00  0.00    +0.000 A 
ATOM     14  N   UNL     1       1.430   8.924  20.450  0.00  0.00    +0.000 NA
ATOM     15  H   UNL     1       3.212   7.250  20.822  0.00  0.00    +0.000 HD
BRANCH   8  16
ATOM     16  C   UNL     1       3.145   5.969  19.140  0.00  0.00    +0.000 C 
BRANCH  16  18
ATOM     17  C   UNL     1       3.967   3.640  19.481  0.00  0.00    +0.000 C 
ATOM     18  C   UNL     1       2.701   4.519  19.428  0.00  0.00    +0.000 C 
ATOM     19  C   UNL     1       1.733   4.011  18.338  0.00  0.00    +0.000 C 
ATOM     20  C   UNL     1       1.113   2.669  18.708  0.00  0.00    +0.000 C 
ATOM     21  O   UNL     1       0.449   2.747  19.968  0.00  0.00    +0.000 OA
ATOM     22  C   UNL     1       1.327   3.093  21.036  0.00  0.00    +0.000 C 
ATOM     23  C   UNL     1       1.968   4.459  20.794  0.00  0.00    +0.000 C 
ENDBRANCH  16  18
ENDBRANCH   8  16
ENDBRANCH   1  13
BRANCH   3  24
ATOM     24  N   UNL     1      -0.664  14.496  21.300  0.00  0.00    +0.000 N 
ATOM     25  H   UNL     1      -0.713  15.083  22.113  0.00  0.00    +0.000 HD
BRANCH  24  26
ATOM     26  C   UNL     1       0.043  15.031  20.122  0.00  0.00    +0.000 C 
ATOM     27  C   UNL     1      -0.828  16.168  19.526  0.00  0.00    +0.000 C 
ATOM     28  C   UNL     1      -0.169  16.793  18.293  0.00  0.00    +0.000 C 
ATOM     29  C   UNL     1       1.218  17.336  18.639  0.00  0.00    +0.000 C 
ATOM     30  C   UNL     1       2.097  16.229  19.238  0.00  0.00    +0.000 C 
ATOM     31  C   UNL     1       1.430  15.586  20.459  0.00  0.00    +0.000 C 
BRANCH  29  32
ATOM     32  N   UNL     1       1.840  17.906  17.447  0.00  0.00    +0.000 NA
ATOM     33  H   UNL     1       1.139  18.386  16.881  0.00  0.00    +0.000 HD
ATOM     34  H   UNL     1       2.208  17.157  16.862  0.00  0.00    +0.000 HD
ENDBRANCH  29  32
ENDBRANCH  24  26
ENDBRANCH   3  24
TORSDOF 6
ENDMDL
MODEL 5
REMARK VINA RESULT:      -8.5      2.984      4.297
REMARK  Name = 
REMARK  7 active torsions:
REMARK  status: ('A' for Active; 'I' for Inactive)
REMARK    1  A    between atoms: C_1  and  C_2
REMARK    2  A    between atoms: C_2  and  C_3
REMARK    3  A    between atoms: C_3  and  N_4
REMARK    4  A    between atoms: C_9  and  C_10
REMARK    5  A    between atoms: C_12  and  N_13
REMARK    6  A    between atoms: N_13  and  C_14
REMARK    7  A    between atoms: C_17  and  N_18
REMARK                            x       y       z     vdW  Elec       q    Type
REMARK                         _______ _______ _______ _____ _____    ______ ____
ROOT
ATOM      1  C   UNL     1       0.202  10.828  21.000  0.00  0.00    +0.000 A 
ATOM      2  C   UNL     1       0.241  12.236  20.844  0.00  0.00    +0.000 A 
ATOM      3  C   UNL     1      -0.437  13.080  21.745  0.00  0.00    +0.000 A 
ATOM      4  N   UNL     1      -1.066  12.585  22.796  0.00  0.00    +0.000 NA
ATOM      5  C   UNL     1      -1.102  11.229  22.953  0.00  0.00    +0.000 A 
ATOM      6  C   UNL     1      -0.502  10.320  22.083  0.00  0.00    +0.000 A 
ATOM      7 CL   UNL     1      -0.635   8.646  22.467  0.00  0.00    +0.000 Cl
ENDROOT
BRANCH   1  13
ATOM      8  N   UNL     1       2.599   6.846  20.018  0.00  0.00    +0.000 N 
ATOM      9  C   UNL     1       2.037   8.023  19.532  0.00  0.00    +0.000 A 
ATOM     10  C   UNL     1       2.046   8.328  18.173  0.00  0.00    +0.000 A 
ATOM     11  C   UNL     1       1.477   9.503  17.730  0.00  0.00    +0.000 A 
ATOM     12  C   UNL     1       0.893  10.353  18.650  0.00  0.00    +0.000 A 
ATOM     13  C   UNL     1       0.900  10.000  19.999  0.00  0.00    +0.000 A 
ATOM     14  N   UNL     1       1.485   8.854  20.433  0.00  0.00    +0.000 NA
ATOM     15  H   UNL     1       3.223   7.129  20.771  0.00  0.00    +0.000 HD
BRANCH   8  16
ATOM     16  C   UNL     1       3.151   5.907  19.045  0.00  0.00    +0.000 C 
BRANCH  16  18
ATOM     17  C   UNL     1       1.559   4.548  17.691  0.00  0.00    +0.000 C 
ATOM     18  C   UNL     1       2.375   4.574  19.000  0.00  0.00    +0.000 C 
ATOM     19  C   UNL     1       1.443   4.434  20.222  0.00  0.00    +0.000 C 
ATOM     20  C   UNL     1       0.829   3.043  20.315  0.00  0.00    +0.000 C 
ATOM     21  O   UNL     1       1.845   2.042  20.345  0.00  0.00    +0.000 OA
ATOM     22  C   UNL     1       2.660   2.045  19.176  0.00  0.00    +0.000 C 
ATOM     23  C   UNL     1       3.374   3.387  19.013  0.00  0.00    +0.000 C 
ENDBRANCH  16  18
ENDBRANCH   8  16
ENDBRANCH   1  13
BRANCH   3  24
ATOM     24  N   UNL     1      -0.407  14.450  21.499  0.00  0.00    +0.000 N 
ATOM     25  H   UNL     1      -0.357  14.994  22.342  0.00  0.00    +0.000 HD
BRANCH  24  26
ATOM     26  C   UNL     1       0.254  14.998  20.301  0.00  0.00    +0.000 C 
ATOM     27  C   UNL     1      -0.721  16.013  19.648  0.00  0.00    +0.000 C 
ATOM     28  C   UNL     1      -0.116  16.643  18.390  0.00  0.00    +0.000 C 
ATOM     29  C   UNL     1       1.205  17.338  18.717  0.00  0.00    +0.000 C 
ATOM     30  C   UNL     1       2.186  16.355  19.372  0.00  0.00    +0.000 C 
ATOM     31  C   UNL     1       1.574  15.705  20.619  0.00  0.00    +0.000 C 
BRANCH  29  32
ATOM     32  N   UNL     1       1.779  17.913  17.503  0.00  0.00    +0.000 NA
ATOM     33  H   UNL     1       1.490  18.886  17.404  0.00  0.00    +0.000 HD
ATOM     34  H   UNL     1       1.408  17.427  16.687  0.00  0.00    +0.000 HD
ENDBRANCH  29  32
ENDBRANCH  24  26
ENDBRANCH   3  24
TORSDOF 6
ENDMDL
MODEL 6
REMARK VINA RESULT:      -8.4      2.456      3.817
REMARK  Name = 
REMARK  7 active torsions:
REMARK  status: ('A' for Active; 'I' for Inactive)
REMARK    1  A    between atoms: C_1  and  C_2
REMARK    2  A    between atoms: C_2  and  C_3
REMARK    3  A    between atoms: C_3  and  N_4
REMARK    4  A    between atoms: C_9  and  C_10
REMARK    5  A    between atoms: C_12  and  N_13
REMARK    6  A    between atoms: N_13  and  C_14
REMARK    7  A    between atoms: C_17  and  N_18
REMARK                            x       y       z     vdW  Elec       q    Type
REMARK                         _______ _______ _______ _____ _____    ______ ____
ROOT
ATOM      1  C   UNL     1      -0.101  10.290  19.484  0.00  0.00    +0.000 A 
ATOM      2  C   UNL     1      -0.042  10.935  20.745  0.00  0.00    +0.000 A 
ATOM      3  C   UNL     1      -1.050  11.836  21.141  0.00  0.00    +0.000 A 
ATOM      4  N   UNL     1      -2.109  12.047  20.380  0.00  0.00    +0.000 NA
ATOM      5  C   UNL     1      -2.173  11.424  19.167  0.00  0.00    +0.000 A 
ATOM      6  C   UNL     1      -1.198  10.558  18.675  0.00  0.00    +0.000 A 
ATOM      7 CL   UNL     1      -1.472   9.846  17.131  0.00  0.00    +0.000 Cl
ENDROOT
BRANCH   1  13
ATOM      8  N   UNL     1       2.416   6.377  20.445  0.00  0.00    +0.000 N 
ATOM      9  C   UNL     1       2.200   7.446  19.581  0.00  0.00    +0.000 A 
ATOM     10  C   UNL     1       2.916   7.579  18.393  0.00  0.00    +0.000 A 
ATOM     11  C   UNL     1       2.672   8.652  17.561  0.00  0.00    +0.000 A 
ATOM     12  C   UNL     1       1.704   9.570  17.919  0.00  0.00    +0.000 A 
ATOM     13  C   UNL     1       1.006   9.389  19.113  0.00  0.00    +0.000 A 
ATOM     14  N   UNL     1       1.269   8.347  19.942  0.00  0.00    +0.000 NA
ATOM     15  H   UNL     1       2.562   6.792  21.364  0.00  0.00    +0.000 HD
BRANCH   8  16
ATOM     16  C   UNL     1       3.383   5.362  20.039  0.00  0.00    +0.000 C 
BRANCH  16  18
ATOM     17  C   UNL     1       2.395   3.399  21.216  0.00  0.00    +0.000 C 
ATOM     18  C   UNL     1       2.737   3.976  19.827  0.00  0.00    +0.000 C 
ATOM     19  C   UNL     1       3.691   3.031  19.066  0.00  0.00    +0.000 C 
ATOM     20  C   UNL     1       3.002   1.735  18.657  0.00  0.00    +0.000 C 
ATOM     21  O   UNL     1       1.839   2.004  17.876  0.00  0.00    +0.000 OA
ATOM     22  C   UNL     1       0.865   2.773  18.579  0.00  0.00    +0.000 C 
ATOM     23  C   UNL     1       1.437   4.128  18.993  0.00  0.00    +0.000 C 
ENDBRANCH  16  18
ENDBRANCH   8  16
ENDBRANCH   1  13
BRANCH   3  24
ATOM     24  N   UNL     1      -0.899  12.480  22.366  0.00  0.00    +0.000 N 
ATOM     25  H   UNL     1       0.059  12.522  22.666  0.00  0.00    +0.000 HD
BRANCH  24  26
ATOM     26  C   UNL     1      -1.779  13.596  22.758  0.00  0.00    +0.000 C 
ATOM     27  C   UNL     1      -2.933  13.008  23.612  0.00  0.00    +0.000 C 
ATOM     28  C   UNL     1      -3.903  14.100  24.072  0.00  0.00    +0.000 C 
ATOM     29  C   UNL     1      -3.166  15.173  24.874  0.00  0.00    +0.000 C 
ATOM     30  C   UNL     1      -2.013  15.766  24.051  0.00  0.00    +0.000 C 
ATOM     31  C   UNL     1      -1.053  14.672  23.570  0.00  0.00    +0.000 C 
BRANCH  29  32
ATOM     32  N   UNL     1      -4.102  16.217  25.285  0.00  0.00    +0.000 NA
ATOM     33  H   UNL     1      -4.263  16.167  26.291  0.00  0.00    +0.000 HD
ATOM     34  H   UNL     1      -5.008  16.054  24.847  0.00  0.00    +0.000 HD
ENDBRANCH  29  32
ENDBRANCH  24  26
ENDBRANCH   3  24
TORSDOF 6
ENDMDL
MODEL 7
REMARK VINA RESULT:      -8.4      2.410      3.263
REMARK  Name = 
REMARK  7 active torsions:
REMARK  status: ('A' for Active; 'I' for Inactive)
REMARK    1  A    between atoms: C_1  and  C_2
REMARK    2  A    between atoms: C_2  and  C_3
REMARK    3  A    between atoms: C_3  and  N_4
REMARK    4  A    between atoms: C_9  and  C_10
REMARK    5  A    between atoms: C_12  and  N_13
REMARK    6  A    between atoms: N_13  and  C_14
REMARK    7  A    between atoms: C_17  and  N_18
REMARK                            x       y       z     vdW  Elec       q    Type
REMARK                         _______ _______ _______ _____ _____    ______ ____
ROOT
ATOM      1  C   UNL     1       0.078  10.324  19.507  0.00  0.00    +0.000 A 
ATOM      2  C   UNL     1       0.220  11.045  20.720  0.00  0.00    +0.000 A 
ATOM      3  C   UNL     1      -0.735  12.006  21.102  0.00  0.00    +0.000 A 
ATOM      4  N   UNL     1      -1.821  12.209  20.379  0.00  0.00    +0.000 NA
ATOM      5  C   UNL     1      -1.965  11.514  19.213  0.00  0.00    +0.000 A 
ATOM      6  C   UNL     1      -1.046  10.582  18.734  0.00  0.00    +0.000 A 
ATOM      7 CL   UNL     1      -1.419   9.785  17.253  0.00  0.00    +0.000 Cl
ENDROOT
BRANCH   1  13
ATOM      8  N   UNL     1       2.424   6.326  20.547  0.00  0.00    +0.000 N 
ATOM      9  C   UNL     1       2.243   7.377  19.653  0.00  0.00    +0.000 A 
ATOM     10  C   UNL     1       2.941   7.439  18.449  0.00  0.00    +0.000 A 
ATOM     11  C   UNL     1       2.732   8.495  17.588  0.00  0.00    +0.000 A 
ATOM     12  C   UNL     1       1.815   9.470  17.934  0.00  0.00    +0.000 A 
ATOM     13  C   UNL     1       1.134   9.360  19.145  0.00  0.00    +0.000 A 
ATOM     14  N   UNL     1       1.363   8.332  20.002  0.00  0.00    +0.000 NA
ATOM     15  H   UNL     1       2.608   6.761  21.449  0.00  0.00    +0.000 HD
BRANCH   8  16
ATOM     16  C   UNL     1       3.334   5.253  20.155  0.00  0.00    +0.000 C 
BRANCH  16  18
ATOM     17  C   UNL     1       2.512   3.233  21.363  0.00  0.00    +0.000 C 
ATOM     18  C   UNL     1       2.614   3.899  19.976  0.00  0.00    +0.000 C 
ATOM     19  C   UNL     1       3.382   2.990  18.993  0.00  0.00    +0.000 C 
ATOM     20  C   UNL     1       2.588   1.741  18.633  0.00  0.00    +0.000 C 
ATOM     21  O   UNL     1       1.312   2.088  18.098  0.00  0.00    +0.000 OA
ATOM     22  C   UNL     1       0.508   2.826  19.017  0.00  0.00    +0.000 C 
ATOM     23  C   UNL     1       1.191   4.136  19.407  0.00  0.00    +0.000 C 
ENDBRANCH  16  18
ENDBRANCH   8  16
ENDBRANCH   1  13
BRANCH   3  24
ATOM     24  N   UNL     1      -0.502  12.720  22.275  0.00  0.00    +0.000 N 
ATOM     25  H   UNL     1       0.280  13.346  22.199  0.00  0.00    +0.000 HD
BRANCH  24  26
ATOM     26  C   UNL     1      -1.612  13.129  23.155  0.00  0.00    +0.000 C 
ATOM     27  C   UNL     1      -2.236  14.418  22.558  0.00  0.00    +0.000 C 
ATOM     28  C   UNL     1      -3.409  14.919  23.407  0.00  0.00    +0.000 C 
ATOM     29  C   UNL     1      -4.483  13.839  23.533  0.00  0.00    +0.000 C 
ATOM     30  C   UNL     1      -3.888  12.549  24.116  0.00  0.00    +0.000 C 
ATOM     31  C   UNL     1      -2.699  12.057  23.281  0.00  0.00    +0.000 C 
BRANCH  29  32
ATOM     32  N   UNL     1      -5.582  14.325  24.364  0.00  0.00    +0.000 NA
ATOM     33  H   UNL     1      -6.234  14.870  23.800  0.00  0.00    +0.000 HD
ATOM     34  H   UNL     1      -5.219  14.966  25.069  0.00  0.00    +0.000 HD
ENDBRANCH  29  32
ENDBRANCH  24  26
ENDBRANCH   3  24
TORSDOF 6
ENDMDL
MODEL 8
REMARK VINA RESULT:      -8.4      2.881      3.908
REMARK  Name = 
REMARK  7 active torsions:
REMARK  status: ('A' for Active; 'I' for Inactive)
REMARK    1  A    between atoms: C_1  and  C_2
REMARK    2  A    between atoms: C_2  and  C_3
REMARK    3  A    between atoms: C_3  and  N_4
REMARK    4  A    between atoms: C_9  and  C_10
REMARK    5  A    between atoms: C_12  and  N_13
REMARK    6  A    between atoms: N_13  and  C_14
REMARK    7  A    between atoms: C_17  and  N_18
REMARK                            x       y       z     vdW  Elec       q    Type
REMARK                         _______ _______ _______ _____ _____    ______ ____
ROOT
ATOM      1  C   UNL     1       0.927   9.271  20.069  0.00  0.00    +0.000 A 
ATOM      2  C   UNL     1       0.405   9.956  18.944  0.00  0.00    +0.000 A 
ATOM      3  C   UNL     1      -0.227  11.206  19.090  0.00  0.00    +0.000 A 
ATOM      4  N   UNL     1      -0.285  11.803  20.267  0.00  0.00    +0.000 NA
ATOM      5  C   UNL     1       0.220  11.149  21.353  0.00  0.00    +0.000 A 
ATOM      6  C   UNL     1       0.816   9.890  21.308  0.00  0.00    +0.000 A 
ATOM      7 CL   UNL     1       1.420   9.241  22.784  0.00  0.00    +0.000 Cl
ENDROOT
BRANCH   1  13
ATOM      8  N   UNL     1       3.780   6.523  17.447  0.00  0.00    +0.000 N 
ATOM      9  C   UNL     1       2.974   6.630  18.577  0.00  0.00    +0.000 A 
ATOM     10  C   UNL     1       2.854   5.584  19.489  0.00  0.00    +0.000 A 
ATOM     11  C   UNL     1       2.048   5.730  20.598  0.00  0.00    +0.000 A 
ATOM     12  C   UNL     1       1.381   6.926  20.789  0.00  0.00    +0.000 A 
ATOM     13  C   UNL     1       1.540   7.947  19.853  0.00  0.00    +0.000 A 
ATOM     14  N   UNL     1       2.314   7.789  18.749  0.00  0.00    +0.000 NA
ATOM     15  H   UNL     1       3.191   6.796  16.662  0.00  0.00    +0.000 HD
BRANCH   8  16
ATOM     16  C   UNL     1       4.546   5.291  17.277  0.00  0.00    +0.000 C 
BRANCH  16  18
ATOM     17  C   UNL     1       6.792   4.563  16.477  0.00  0.00    +0.000 C 
ATOM     18  C   UNL     1       6.064   5.507  17.455  0.00  0.00    +0.000 C 
ATOM     19  C   UNL     1       6.496   5.220  18.909  0.00  0.00    +0.000 C 
ATOM     20  C   UNL     1       7.941   5.630  19.165  0.00  0.00    +0.000 C 
ATOM     21  O   UNL     1       8.141   7.006  18.848  0.00  0.00    +0.000 OA
ATOM     22  C   UNL     1       7.876   7.303  17.479  0.00  0.00    +0.000 C 
ATOM     23  C   UNL     1       6.425   6.979  17.123  0.00  0.00    +0.000 C 
ENDBRANCH  16  18
ENDBRANCH   8  16
ENDBRANCH   1  13
BRANCH   3  24
ATOM     24  N   UNL     1      -0.770  11.796  17.952  0.00  0.00    +0.000 N 
ATOM     25  H   UNL     1      -0.264  11.562  17.116  0.00  0.00    +0.000 HD
BRANCH  24  26
ATOM     26  C   UNL     1      -2.221  12.019  17.823  0.00  0.00    +0.000 C 
ATOM     27  C   UNL     1      -2.771  10.979  16.813  0.00  0.00    +0.000 C 
ATOM     28  C   UNL     1      -4.282  11.130  16.617  0.00  0.00    +0.000 C 
ATOM     29  C   UNL     1      -5.016  10.988  17.950  0.00  0.00    +0.000 C 
ATOM     30  C   UNL     1      -4.484  12.005  18.971  0.00  0.00    +0.000 C 
ATOM     31  C   UNL     1      -2.967  11.870  19.153  0.00  0.00    +0.000 C 
BRANCH  29  32
ATOM     32  N   UNL     1      -6.453  11.159  17.748  0.00  0.00    +0.000 NA
ATOM     33  H   UNL     1      -6.861  11.662  18.536  0.00  0.00    +0.000 HD
ATOM     34  H   UNL     1      -6.906  10.246  17.734  0.00  0.00    +0.000 HD
ENDBRANCH  29  32
ENDBRANCH  24  26
ENDBRANCH   3  24
TORSDOF 6
ENDMDL
MODEL 9
REMARK VINA RESULT:      -8.4      3.110      4.832
REMARK  Name = 
REMARK  7 active torsions:
REMARK  status: ('A' for Active; 'I' for Inactive)
REMARK    1  A    between atoms: C_1  and  C_2
REMARK    2  A    between atoms: C_2  and  C_3
REMARK    3  A    between atoms: C_3  and  N_4
REMARK    4  A    between atoms: C_9  and  C_10
REMARK    5  A    between atoms: C_12  and  N_13
REMARK    6  A    between atoms: N_13  and  C_14
REMARK    7  A    between atoms: C_17  and  N_18
REMARK                            x       y       z     vdW  Elec       q    Type
REMARK                         _______ _______ _______ _____ _____    ______ ____
ROOT
ATOM      1  C   UNL     1       0.594  10.352  20.616  0.00  0.00    +0.000 A 
ATOM      2  C   UNL     1       0.839  11.737  20.435  0.00  0.00    +0.000 A 
ATOM      3  C   UNL     1       0.188  12.694  21.236  0.00  0.00    +0.000 A 
ATOM      4  N   UNL     1      -0.611  12.326  22.221  0.00  0.00    +0.000 NA
ATOM      5  C   UNL     1      -0.846  10.993  22.402  0.00  0.00    +0.000 A 
ATOM      6  C   UNL     1      -0.285   9.981  21.625  0.00  0.00    +0.000 A 
ATOM      7 CL   UNL     1      -0.683   8.355  22.028  0.00  0.00    +0.000 Cl
ENDROOT
BRANCH   1  13
ATOM      8  N   UNL     1       3.078   6.333  20.126  0.00  0.00    +0.000 N 
ATOM      9  C   UNL     1       2.459   7.409  19.498  0.00  0.00    +0.000 A 
ATOM     10  C   UNL     1       2.404   7.509  18.109  0.00  0.00    +0.000 A 
ATOM     11  C   UNL     1       1.779   8.590  17.524  0.00  0.00    +0.000 A 
ATOM     12  C   UNL     1       1.205   9.552  18.334  0.00  0.00    +0.000 A 
ATOM     13  C   UNL     1       1.278   9.403  19.718  0.00  0.00    +0.000 A 
ATOM     14  N   UNL     1       1.917   8.351  20.290  0.00  0.00    +0.000 NA
ATOM     15  H   UNL     1       3.723   6.741  20.801  0.00  0.00    +0.000 HD
BRANCH   8  16
ATOM     16  C   UNL     1       3.621   5.274  19.279  0.00  0.00    +0.000 C 
BRANCH  16  18
ATOM     17  C   UNL     1       3.983   2.816  19.477  0.00  0.00    +0.000 C 
ATOM     18  C   UNL     1       2.908   3.922  19.487  0.00  0.00    +0.000 C 
ATOM     19  C   UNL     1       1.862   3.672  18.380  0.00  0.00    +0.000 C 
ATOM     20  C   UNL     1       0.997   2.454  18.677  0.00  0.00    +0.000 C 
ATOM     21  O   UNL     1       0.358   2.583  19.946  0.00  0.00    +0.000 OA
ATOM     22  C   UNL     1       1.286   2.692  21.024  0.00  0.00    +0.000 C 
ATOM     23  C   UNL     1       2.176   3.923  20.855  0.00  0.00    +0.000 C 
ENDBRANCH  16  18
ENDBRANCH   8  16
ENDBRANCH   1  13
BRANCH   3  24
ATOM     24  N   UNL     1       0.429  14.039  20.965  0.00  0.00    +0.000 N 
ATOM     25  H   UNL     1      -0.020  14.653  21.620  0.00  0.00    +0.000 HD
BRANCH  24  26
ATOM     26  C   UNL     1       1.710  14.486  20.389  0.00  0.00    +0.000 C 
ATOM     27  C   UNL     1       1.400  15.207  19.051  0.00  0.00    +0.000 C 
ATOM     28  C   UNL     1       2.677  15.715  18.377  0.00  0.00    +0.000 C 
ATOM     29  C   UNL     1       3.438  16.661  19.305  0.00  0.00    +0.000 C 
ATOM     30  C   UNL     1       3.752  15.971  20.641  0.00  0.00    +0.000 C 
ATOM     31  C   UNL     1       2.476  15.442  21.308  0.00  0.00    +0.000 C 
BRANCH  29  32
ATOM     32  N   UNL     1       4.665  17.116  18.655  0.00  0.00    +0.000 NA
ATOM     33  H   UNL     1       4.751  16.691  17.732  0.00  0.00    +0.000 HD
ATOM     34  H   UNL     1       5.472  16.797  19.189  0.00  0.00    +0.000 HD
ENDBRANCH  29  32
ENDBRANCH  24  26
ENDBRANCH   3  24
TORSDOF 6
ENDMDL
