MODEL 1
REMARK VINA RESULT:      -6.7      0.000      0.000
REMARK  Name = 
REMARK  4 active torsions:
REMARK  status: ('A' for Active; 'I' for Inactive)
REMARK    1  A    between atoms: N_1  and  C_2
REMARK    2  A    between atoms: N_12  and  C_13
REMARK    3  A    between atoms: C_13  and  C_14
REMARK    4  A    between atoms: C_14  and  O_15
REMARK                            x       y       z     vdW  Elec       q    Type
REMARK                         _______ _______ _______ _____ _____    ______ ____
ROOT
ATOM      1  C   UNL     1       6.332   3.671  12.878  0.00  0.00    +0.000 A 
ATOM      2  N   UNL     1       7.357   4.284  12.211  0.00  0.00    +0.000 NA
ATOM      3  C   UNL     1       8.142   5.234  12.814  0.00  0.00    +0.000 A 
ATOM      4  N   UNL     1       7.895   5.618  14.100  0.00  0.00    +0.000 NA
ATOM      5  C   UNL     1       6.881   5.014  14.758  0.00  0.00    +0.000 A 
ATOM      6  N   UNL     1       6.476   5.275  16.005  0.00  0.00    +0.000 NA
ATOM      7  C   UNL     1       5.454   4.403  16.192  0.00  0.00    +0.000 A 
ATOM      8  N   UNL     1       4.709   4.355  17.403  0.00  0.00    +0.000 N 
ATOM      9  C   UNL     1       4.586   5.566  18.194  0.00  0.00    +0.000 C 
ATOM     10  C   UNL     1       3.088   5.861  18.340  0.00  0.00    +0.000 C 
ATOM     11  N   UNL     1       2.375   4.721  18.967  0.00  0.00    +0.000 NA
ATOM     12  C   UNL     1       2.535   3.506  18.128  0.00  0.00    +0.000 C 
ATOM     13  C   UNL     1       4.017   3.170  17.877  0.00  0.00    +0.000 C 
ATOM     14  N   UNL     1       5.211   3.623  15.101  0.00  0.00    +0.000 N 
ATOM     15  C   UNL     1       6.114   4.046  14.200  0.00  0.00    +0.000 A 
ATOM     16  H   UNL     1       4.473   2.896  14.976  0.00  0.00    +0.000 HD
ENDROOT
BRANCH   1  17
ATOM     17  N   UNL     1       5.524   2.713  12.223  0.00  0.00    +0.000 N 
ATOM     18  H   UNL     1       5.903   1.778  12.016  0.00  0.00    +0.000 HD
ATOM     19  H   UNL     1       4.569   2.942  11.913  0.00  0.00    +0.000 HD
ENDBRANCH   1  17
BRANCH  11  20
ATOM     20  C   UNL     1       2.742   4.485  20.388  0.00  0.00    +0.000 C 
BRANCH  20  21
ATOM     21  C   UNL     1       1.786   3.508  21.092  0.00  0.00    +0.000 C 
BRANCH  21  22
ATOM     22  O   UNL     1       2.434   2.850  22.146  0.00  0.00    +0.000 OA
ATOM     23  H   UNL     1       1.929   2.013  22.313  0.00  0.00    +0.000 HD
ENDBRANCH  21  22
ENDBRANCH  20  21
ENDBRANCH  11  20
TORSDOF 4
ENDMDL
MODEL 2
REMARK VINA RESULT:      -6.2      1.011      1.013
REMARK  Name = 
REMARK  4 active torsions:
REMARK  status: ('A' for Active; 'I' for Inactive)
REMARK    1  A    between atoms: N_1  and  C_2
REMARK    2  A    between atoms: N_12  and  C_13
REMARK    3  A    between atoms: C_13  and  C_14
REMARK    4  A    between atoms: C_14  and  O_15
REMARK                            x       y       z     vdW  Elec       q    Type
REMARK                         _______ _______ _______ _____ _____    ______ ____
ROOT
ATOM      1  C   UNL     1       6.394   3.582  12.606  0.00  0.00    +0.000 A 
ATOM      2  N   UNL     1       7.408   4.219  11.945  0.00  0.00    +0.000 NA
ATOM      3  C   UNL     1       8.142   5.214  12.540  0.00  0.00    +0.000 A 
ATOM      4  N   UNL     1       7.855   5.617  13.812  0.00  0.00    +0.000 NA
ATOM      5  C   UNL     1       6.851   4.989  14.464  0.00  0.00    +0.000 A 
ATOM      6  N   UNL     1       6.410   5.263  15.696  0.00  0.00    +0.000 NA
ATOM      7  C   UNL     1       5.420   4.355  15.884  0.00  0.00    +0.000 A 
ATOM      8  N   UNL     1       4.653   4.306  17.081  0.00  0.00    +0.000 N 
ATOM      9  C   UNL     1       4.467   5.530  17.840  0.00  0.00    +0.000 C 
ATOM     10  C   UNL     1       2.955   5.769  17.950  0.00  0.00    +0.000 C 
ATOM     11  N   UNL     1       2.275   4.616  18.590  0.00  0.00    +0.000 NA
ATOM     12  C   UNL     1       2.499   3.388  17.784  0.00  0.00    +0.000 C 
ATOM     13  C   UNL     1       3.998   3.106  17.570  0.00  0.00    +0.000 C 
ATOM     14  N   UNL     1       5.230   3.542  14.808  0.00  0.00    +0.000 N 
ATOM     15  C   UNL     1       6.135   3.979  13.914  0.00  0.00    +0.000 A 
ATOM     16  H   UNL     1       4.524   2.783  14.686  0.00  0.00    +0.000 HD
ENDROOT
BRANCH   1  17
ATOM     17  N   UNL     1       5.638   2.578  11.959  0.00  0.00    +0.000 N 
ATOM     18  H   UNL     1       5.995   2.143  11.096  0.00  0.00    +0.000 HD
ATOM     19  H   UNL     1       4.714   2.293  12.314  0.00  0.00    +0.000 HD
ENDBRANCH   1  17
BRANCH  11  20
ATOM     20  C   UNL     1       2.622   4.428  20.023  0.00  0.00    +0.000 C 
BRANCH  20  21
ATOM     21  C   UNL     1       1.651   5.155  20.968  0.00  0.00    +0.000 C 
BRANCH  21  22
ATOM     22  O   UNL     1       1.965   6.518  21.051  0.00  0.00    +0.000 OA
ATOM     23  H   UNL     1       1.458   6.881  21.823  0.00  0.00    +0.000 HD
ENDBRANCH  21  22
ENDBRANCH  20  21
ENDBRANCH  11  20
TORSDOF 4
ENDMDL
MODEL 3
REMARK VINA RESULT:      -6.2      4.525      8.021
REMARK  Name = 
REMARK  4 active torsions:
REMARK  status: ('A' for Active; 'I' for Inactive)
REMARK    1  A    between atoms: N_1  and  C_2
REMARK    2  A    between atoms: N_12  and  C_13
REMARK    3  A    between atoms: C_13  and  C_14
REMARK    4  A    between atoms: C_14  and  O_15
REMARK                            x       y       z     vdW  Elec       q    Type
REMARK                         _______ _______ _______ _____ _____    ______ ____
ROOT
ATOM      1  C   UNL     1       0.420   9.747  22.220  0.00  0.00    +0.000 A 
ATOM      2  N   UNL     1       0.223  11.067  21.918  0.00  0.00    +0.000 NA
ATOM      3  C   UNL     1       0.536  11.577  20.684  0.00  0.00    +0.000 A 
ATOM      4  N   UNL     1       1.087  10.777  19.726  0.00  0.00    +0.000 NA
ATOM      5  C   UNL     1       1.283   9.473  20.024  0.00  0.00    +0.000 A 
ATOM      6  N   UNL     1       1.832   8.550  19.229  0.00  0.00    +0.000 NA
ATOM      7  C   UNL     1       1.786   7.421  19.980  0.00  0.00    +0.000 A 
ATOM      8  N   UNL     1       2.296   6.177  19.514  0.00  0.00    +0.000 N 
ATOM      9  C   UNL     1       3.385   6.187  18.553  0.00  0.00    +0.000 C 
ATOM     10  C   UNL     1       4.546   5.402  19.176  0.00  0.00    +0.000 C 
ATOM     11  N   UNL     1       4.133   4.021  19.525  0.00  0.00    +0.000 NA
ATOM     12  C   UNL     1       3.015   4.061  20.502  0.00  0.00    +0.000 C 
ATOM     13  C   UNL     1       1.824   4.887  19.981  0.00  0.00    +0.000 C 
ATOM     14  N   UNL     1       1.238   7.622  21.211  0.00  0.00    +0.000 N 
ATOM     15  C   UNL     1       0.949   8.935  21.222  0.00  0.00    +0.000 A 
ATOM     16  H   UNL     1       1.108   6.931  21.983  0.00  0.00    +0.000 HD
ENDROOT
BRANCH   1  17
ATOM     17  N   UNL     1       0.110   9.254  23.508  0.00  0.00    +0.000 N 
ATOM     18  H   UNL     1       0.102   9.894  24.314  0.00  0.00    +0.000 HD
ATOM     19  H   UNL     1      -0.073   8.253  23.667  0.00  0.00    +0.000 HD
ENDBRANCH   1  17
BRANCH  11  20
ATOM     20  C   UNL     1       3.831   3.164  18.348  0.00  0.00    +0.000 C 
BRANCH  20  21
ATOM     21  C   UNL     1       3.334   1.765  18.747  0.00  0.00    +0.000 C 
BRANCH  21  22
ATOM     22  O   UNL     1       4.286   0.788  18.427  0.00  0.00    +0.000 OA
ATOM     23  H   UNL     1       3.787  -0.052  18.256  0.00  0.00    +0.000 HD
ENDBRANCH  21  22
ENDBRANCH  20  21
ENDBRANCH  11  20
TORSDOF 4
ENDMDL
MODEL 4
REMARK VINA RESULT:      -6.1      4.894      7.360
REMARK  Name = 
REMARK  4 active torsions:
REMARK  status: ('A' for Active; 'I' for Inactive)
REMARK    1  A    between atoms: N_1  and  C_2
REMARK    2  A    between atoms: N_12  and  C_13
REMARK    3  A    between atoms: C_13  and  C_14
REMARK    4  A    between atoms: C_14  and  O_15
REMARK                            x       y       z     vdW  Elec       q    Type
REMARK                         _______ _______ _______ _____ _____    ______ ____
ROOT
ATOM      1  C   UNL     1       2.724   3.932  20.580  0.00  0.00    +0.000 A 
ATOM      2  N   UNL     1       3.597   3.066  19.980  0.00  0.00    +0.000 NA
ATOM      3  C   UNL     1       4.385   3.454  18.925  0.00  0.00    +0.000 A 
ATOM      4  N   UNL     1       4.291   4.720  18.424  0.00  0.00    +0.000 NA
ATOM      5  C   UNL     1       3.427   5.575  19.015  0.00  0.00    +0.000 A 
ATOM      6  N   UNL     1       3.181   6.836  18.649  0.00  0.00    +0.000 NA
ATOM      7  C   UNL     1       2.263   7.253  19.558  0.00  0.00    +0.000 A 
ATOM      8  N   UNL     1       1.700   8.560  19.523  0.00  0.00    +0.000 N 
ATOM      9  C   UNL     1       1.598   9.240  18.244  0.00  0.00    +0.000 C 
ATOM     10  C   UNL     1       0.117   9.575  18.027  0.00  0.00    +0.000 C 
ATOM     11  N   UNL     1      -0.414  10.405  19.135  0.00  0.00    +0.000 NA
ATOM     12  C   UNL     1      -0.281   9.672  20.421  0.00  0.00    +0.000 C 
ATOM     13  C   UNL     1       1.172   9.240  20.691  0.00  0.00    +0.000 C 
ATOM     14  N   UNL     1       1.930   6.289  20.461  0.00  0.00    +0.000 N 
ATOM     15  C   UNL     1       2.665   5.229  20.082  0.00  0.00    +0.000 A 
ATOM     16  H   UNL     1       1.239   6.344  21.241  0.00  0.00    +0.000 HD
ENDROOT
BRANCH   1  17
ATOM     17  N   UNL     1       1.907   3.497  21.649  0.00  0.00    +0.000 N 
ATOM     18  H   UNL     1       1.429   2.587  21.592  0.00  0.00    +0.000 HD
ATOM     19  H   UNL     1       1.750   4.091  22.476  0.00  0.00    +0.000 HD
ENDBRANCH   1  17
BRANCH  11  20
ATOM     20  C   UNL     1       0.164  11.773  19.198  0.00  0.00    +0.000 C 
BRANCH  20  21
ATOM     21  C   UNL     1      -0.851  12.863  18.817  0.00  0.00    +0.000 C 
BRANCH  21  22
ATOM     22  O   UNL     1      -1.065  12.883  17.433  0.00  0.00    +0.000 OA
ATOM     23  H   UNL     1      -0.239  13.249  17.022  0.00  0.00    +0.000 HD
ENDBRANCH  21  22
ENDBRANCH  20  21
ENDBRANCH  11  20
TORSDOF 4
ENDMDL
MODEL 5
REMARK VINA RESULT:      -6.1      4.777      8.104
REMARK  Name = 
REMARK  4 active torsions:
REMARK  status: ('A' for Active; 'I' for Inactive)
REMARK    1  A    between atoms: N_1  and  C_2
REMARK    2  A    between atoms: N_12  and  C_13
REMARK    3  A    between atoms: C_13  and  C_14
REMARK    4  A    between atoms: C_14  and  O_15
REMARK                            x       y       z     vdW  Elec       q    Type
REMARK                         _______ _______ _______ _____ _____    ______ ____
ROOT
ATOM      1  C   UNL     1       0.286  11.071  19.599  0.00  0.00    +0.000 A 
ATOM      2  N   UNL     1      -0.217  11.873  20.586  0.00  0.00    +0.000 NA
ATOM      3  C   UNL     1      -0.185  11.498  21.906  0.00  0.00    +0.000 A 
ATOM      4  N   UNL     1       0.328  10.285  22.265  0.00  0.00    +0.000 NA
ATOM      5  C   UNL     1       0.822   9.491  21.290  0.00  0.00    +0.000 A 
ATOM      6  N   UNL     1       1.336   8.267  21.446  0.00  0.00    +0.000 NA
ATOM      7  C   UNL     1       1.696   7.915  20.186  0.00  0.00    +0.000 A 
ATOM      8  N   UNL     1       2.278   6.651  19.888  0.00  0.00    +0.000 N 
ATOM      9  C   UNL     1       1.952   5.517  20.734  0.00  0.00    +0.000 C 
ATOM     10  C   UNL     1       1.343   4.438  19.829  0.00  0.00    +0.000 C 
ATOM     11  N   UNL     1       2.277   4.061  18.740  0.00  0.00    +0.000 NA
ATOM     12  C   UNL     1       2.587   5.252  17.908  0.00  0.00    +0.000 C 
ATOM     13  C   UNL     1       3.148   6.413  18.750  0.00  0.00    +0.000 C 
ATOM     14  N   UNL     1       1.411   8.874  19.261  0.00  0.00    +0.000 N 
ATOM     15  C   UNL     1       0.838   9.853  19.984  0.00  0.00    +0.000 A 
ATOM     16  H   UNL     1       1.563   8.845  18.229  0.00  0.00    +0.000 HD
ENDROOT
BRANCH   1  17
ATOM     17  N   UNL     1       0.218  11.473  18.246  0.00  0.00    +0.000 N 
ATOM     18  H   UNL     1       1.005  11.984  17.822  0.00  0.00    +0.000 HD
ATOM     19  H   UNL     1      -0.624  11.298  17.678  0.00  0.00    +0.000 HD
ENDBRANCH   1  17
BRANCH  11  20
ATOM     20  C   UNL     1       3.501   3.359  19.209  0.00  0.00    +0.000 C 
BRANCH  20  21
ATOM     21  C   UNL     1       3.537   1.882  18.784  0.00  0.00    +0.000 C 
BRANCH  21  22
ATOM     22  O   UNL     1       2.424   1.564  17.994  0.00  0.00    +0.000 OA
ATOM     23  H   UNL     1       2.270   2.339  17.393  0.00  0.00    +0.000 HD
ENDBRANCH  21  22
ENDBRANCH  20  21
ENDBRANCH  11  20
TORSDOF 4
ENDMDL
MODEL 6
REMARK VINA RESULT:      -6.0      4.193      7.890
REMARK  Name = 
REMARK  4 active torsions:
REMARK  status: ('A' for Active; 'I' for Inactive)
REMARK    1  A    between atoms: N_1  and  C_2
REMARK    2  A    between atoms: N_12  and  C_13
REMARK    3  A    between atoms: C_13  and  C_14
REMARK    4  A    between atoms: C_14  and  O_15
REMARK                            x       y       z     vdW  Elec       q    Type
REMARK                         _______ _______ _______ _____ _____    ______ ____
ROOT
ATOM      1  C   UNL     1       0.583   9.609  21.155  0.00  0.00    +0.000 A 
ATOM      2  N   UNL     1      -0.166  10.705  20.826  0.00  0.00    +0.000 NA
ATOM      3  C   UNL     1      -0.293  11.127  19.527  0.00  0.00    +0.000 A 
ATOM      4  N   UNL     1       0.357  10.471  18.522  0.00  0.00    +0.000 NA
ATOM      5  C   UNL     1       1.099   9.389  18.847  0.00  0.00    +0.000 A 
ATOM      6  N   UNL     1       1.824   8.642  18.009  0.00  0.00    +0.000 NA
ATOM      7  C   UNL     1       2.355   7.690  18.817  0.00  0.00    +0.000 A 
ATOM      8  N   UNL     1       3.227   6.678  18.326  0.00  0.00    +0.000 N 
ATOM      9  C   UNL     1       4.044   6.968  17.161  0.00  0.00    +0.000 C 
ATOM     10  C   UNL     1       5.508   6.766  17.573  0.00  0.00    +0.000 C 
ATOM     11  N   UNL     1       5.739   5.391  18.078  0.00  0.00    +0.000 NA
ATOM     12  C   UNL     1       4.878   5.138  19.262  0.00  0.00    +0.000 C 
ATOM     13  C   UNL     1       3.388   5.379  18.954  0.00  0.00    +0.000 C 
ATOM     14  N   UNL     1       1.990   7.832  20.122  0.00  0.00    +0.000 N 
ATOM     15  C   UNL     1       1.212   8.929  20.117  0.00  0.00    +0.000 A 
ATOM     16  H   UNL     1       2.275   7.253  20.941  0.00  0.00    +0.000 HD
ENDROOT
BRANCH   1  17
ATOM     17  N   UNL     1       0.717   9.212  22.506  0.00  0.00    +0.000 N 
ATOM     18  H   UNL     1       0.057   8.531  22.908  0.00  0.00    +0.000 HD
ATOM     19  H   UNL     1       1.442   9.619  23.113  0.00  0.00    +0.000 HD
ENDBRANCH   1  17
BRANCH  11  20
ATOM     20  C   UNL     1       5.604   4.335  17.040  0.00  0.00    +0.000 C 
BRANCH  20  21
ATOM     21  C   UNL     1       6.719   4.396  15.984  0.00  0.00    +0.000 C 
BRANCH  21  22
ATOM     22  O   UNL     1       7.982   4.395  16.593  0.00  0.00    +0.000 OA
ATOM     23  H   UNL     1       8.054   3.545  17.098  0.00  0.00    +0.000 HD
ENDBRANCH  21  22
ENDBRANCH  20  21
ENDBRANCH  11  20
TORSDOF 4
ENDMDL
MODEL 7
REMARK VINA RESULT:      -5.9      4.998      7.187
REMARK  Name = 
REMARK  4 active torsions:
REMARK  status: ('A' for Active; 'I' for Inactive)
REMARK    1  A    between atoms: N_1  and  C_2
REMARK    2  A    between atoms: N_12  and  C_13
REMARK    3  A    between atoms: C_13  and  C_14
REMARK    4  A    between atoms: C_14  and  O_15
REMARK                            x       y       z     vdW  Elec       q    Type
REMARK                         _______ _______ _______ _____ _____    ______ ____
ROOT
ATOM      1  C   UNL     1       2.542   3.450  20.904  0.00  0.00    +0.000 A 
ATOM      2  N   UNL     1       3.399   2.526  20.370  0.00  0.00    +0.000 NA
ATOM      3  C   UNL     1       4.291   2.858  19.382  0.00  0.00    +0.000 A 
ATOM      4  N   UNL     1       4.324   4.127  18.880  0.00  0.00    +0.000 NA
ATOM      5  C   UNL     1       3.477   5.039  19.406  0.00  0.00    +0.000 A 
ATOM      6  N   UNL     1       3.347   6.314  19.027  0.00  0.00    +0.000 NA
ATOM      7  C   UNL     1       2.392   6.794  19.863  0.00  0.00    +0.000 A 
ATOM      8  N   UNL     1       1.924   8.136  19.790  0.00  0.00    +0.000 N 
ATOM      9  C   UNL     1       1.969   8.821  18.510  0.00  0.00    +0.000 C 
ATOM     10  C   UNL     1       0.536   9.257  18.180  0.00  0.00    +0.000 C 
ATOM     11  N   UNL     1      -0.022  10.123  19.247  0.00  0.00    +0.000 NA
ATOM     12  C   UNL     1      -0.040   9.384  20.536  0.00  0.00    +0.000 C 
ATOM     13  C   UNL     1       1.354   8.853  20.916  0.00  0.00    +0.000 C 
ATOM     14  N   UNL     1       1.924   5.857  20.733  0.00  0.00    +0.000 N 
ATOM     15  C   UNL     1       2.612   4.748  20.408  0.00  0.00    +0.000 A 
ATOM     16  H   UNL     1       1.179   5.960  21.457  0.00  0.00    +0.000 HD
ENDROOT
BRANCH   1  17
ATOM     17  N   UNL     1       1.617   3.074  21.904  0.00  0.00    +0.000 N 
ATOM     18  H   UNL     1       1.783   3.344  22.884  0.00  0.00    +0.000 HD
ATOM     19  H   UNL     1       0.792   2.500  21.680  0.00  0.00    +0.000 HD
ENDBRANCH   1  17
BRANCH  11  20
ATOM     20  C   UNL     1       0.642  11.448  19.360  0.00  0.00    +0.000 C 
BRANCH  20  21
ATOM     21  C   UNL     1       0.085  12.293  20.517  0.00  0.00    +0.000 C 
BRANCH  21  22
ATOM     22  O   UNL     1       1.100  12.629  21.422  0.00  0.00    +0.000 OA
ATOM     23  H   UNL     1       1.536  13.448  21.070  0.00  0.00    +0.000 HD
ENDBRANCH  21  22
ENDBRANCH  20  21
ENDBRANCH  11  20
TORSDOF 4
ENDMDL
MODEL 8
REMARK VINA RESULT:      -5.9      4.995      7.484
REMARK  Name = 
REMARK  4 active torsions:
REMARK  status: ('A' for Active; 'I' for Inactive)
REMARK    1  A    between atoms: N_1  and  C_2
REMARK    2  A    between atoms: N_12  and  C_13
REMARK    3  A    between atoms: C_13  and  C_14
REMARK    4  A    between atoms: C_14  and  O_15
REMARK                            x       y       z     vdW  Elec       q    Type
REMARK                         _______ _______ _______ _____ _____    ______ ____
ROOT
ATOM      1  C   UNL     1       1.293  10.455  19.089  0.00  0.00    +0.000 A 
ATOM      2  N   UNL     1       0.730  11.419  19.879  0.00  0.00    +0.000 NA
ATOM      3  C   UNL     1       0.343  11.156  21.169  0.00  0.00    +0.000 A 
ATOM      4  N   UNL     1       0.484   9.903  21.690  0.00  0.00    +0.000 NA
ATOM      5  C   UNL     1       1.039   8.950  20.909  0.00  0.00    +0.000 A 
ATOM      6  N   UNL     1       1.231   7.668  21.234  0.00  0.00    +0.000 NA
ATOM      7  C   UNL     1       1.822   7.149  20.129  0.00  0.00    +0.000 A 
ATOM      8  N   UNL     1       2.188   5.777  20.037  0.00  0.00    +0.000 N 
ATOM      9  C   UNL     1       1.429   4.801  20.798  0.00  0.00    +0.000 C 
ATOM     10  C   UNL     1       0.864   3.786  19.797  0.00  0.00    +0.000 C 
ATOM     11  N   UNL     1       1.948   3.147  19.011  0.00  0.00    +0.000 NA
ATOM     12  C   UNL     1       2.700   4.183  18.257  0.00  0.00    +0.000 C 
ATOM     13  C   UNL     1       3.253   5.283  19.183  0.00  0.00    +0.000 C 
ATOM     14  N   UNL     1       1.988   8.064  19.133  0.00  0.00    +0.000 N 
ATOM     15  C   UNL     1       1.464   9.191  19.645  0.00  0.00    +0.000 A 
ATOM     16  H   UNL     1       2.392   7.919  18.181  0.00  0.00    +0.000 HD
ENDROOT
BRANCH   1  17
ATOM     17  N   UNL     1       1.659  10.748  17.755  0.00  0.00    +0.000 N 
ATOM     18  H   UNL     1       1.113  10.356  16.975  0.00  0.00    +0.000 HD
ATOM     19  H   UNL     1       2.489  11.320  17.543  0.00  0.00    +0.000 HD
ENDBRANCH   1  17
BRANCH  11  20
ATOM     20  C   UNL     1       2.839   2.267  19.812  0.00  0.00    +0.000 C 
BRANCH  20  21
ATOM     21  C   UNL     1       4.109   1.858  19.049  0.00  0.00    +0.000 C 
BRANCH  21  22
ATOM     22  O   UNL     1       5.258   2.207  19.772  0.00  0.00    +0.000 OA
ATOM     23  H   UNL     1       5.187   3.176  19.971  0.00  0.00    +0.000 HD
ENDBRANCH  21  22
ENDBRANCH  20  21
ENDBRANCH  11  20
TORSDOF 4
ENDMDL
MODEL 9
REMARK VINA RESULT:      -5.8      5.011      7.688
REMARK  Name = 
REMARK  4 active torsions:
REMARK  status: ('A' for Active; 'I' for Inactive)
REMARK    1  A    between atoms: N_1  and  C_2
REMARK    2  A    between atoms: N_12  and  C_13
REMARK    3  A    between atoms: C_13  and  C_14
REMARK    4  A    between atoms: C_14  and  O_15
REMARK                            x       y       z     vdW  Elec       q    Type
REMARK                         _______ _______ _______ _____ _____    ______ ____
ROOT
ATOM      1  C   UNL     1       2.428   3.827  20.688  0.00  0.00    +0.000 A 
ATOM      2  N   UNL     1       3.003   3.048  19.721  0.00  0.00    +0.000 NA
ATOM      3  C   UNL     1       3.441   3.580  18.535  0.00  0.00    +0.000 A 
ATOM      4  N   UNL     1       3.285   4.910  18.276  0.00  0.00    +0.000 NA
ATOM      5  C   UNL     1       2.715   5.680  19.230  0.00  0.00    +0.000 A 
ATOM      6  N   UNL     1       2.456   6.988  19.146  0.00  0.00    +0.000 NA
ATOM      7  C   UNL     1       1.907   7.277  20.352  0.00  0.00    +0.000 A 
ATOM      8  N   UNL     1       1.456   8.585  20.687  0.00  0.00    +0.000 N 
ATOM      9  C   UNL     1       1.004   9.460  19.621  0.00  0.00    +0.000 C 
ATOM     10  C   UNL     1      -0.442   9.858  19.945  0.00  0.00    +0.000 C 
ATOM     11  N   UNL     1      -0.534  10.515  21.271  0.00  0.00    +0.000 NA
ATOM     12  C   UNL     1      -0.054   9.586  22.327  0.00  0.00    +0.000 C 
ATOM     13  C   UNL     1       1.375   9.085  22.047  0.00  0.00    +0.000 C 
ATOM     14  N   UNL     1       1.808   6.191  21.168  0.00  0.00    +0.000 N 
ATOM     15  C   UNL     1       2.308   5.188  20.425  0.00  0.00    +0.000 A 
ATOM     16  H   UNL     1       1.406   6.137  22.129  0.00  0.00    +0.000 HD
ENDROOT
BRANCH   1  17
ATOM     17  N   UNL     1       1.964   3.248  21.891  0.00  0.00    +0.000 N 
ATOM     18  H   UNL     1       2.626   2.774  22.521  0.00  0.00    +0.000 HD
ATOM     19  H   UNL     1       0.964   3.257  22.137  0.00  0.00    +0.000 HD
ENDBRANCH   1  17
BRANCH  11  20
ATOM     20  C   UNL     1       0.130  11.843  21.336  0.00  0.00    +0.000 C 
BRANCH  20  21
ATOM     21  C   UNL     1      -0.662  12.861  22.172  0.00  0.00    +0.000 C 
BRANCH  21  22
ATOM     22  O   UNL     1       0.170  13.898  22.614  0.00  0.00    +0.000 OA
ATOM     23  H   UNL     1      -0.404  14.701  22.715  0.00  0.00    +0.000 HD
ENDBRANCH  21  22
ENDBRANCH  20  21
ENDBRANCH  11  20
TORSDOF 4
ENDMDL
