MODEL 1
REMARK VINA RESULT:      -6.6      0.000      0.000
REMARK  Name = 
REMARK  10 active torsions:
REMARK  status: ('A' for Active; 'I' for Inactive)
REMARK    1  A    between atoms: C_1  and  C_2
REMARK    2  A    between atoms: C_2  and  C_12
REMARK    3  A    between atoms: N_3  and  N_4
REMARK    4  A    between atoms: N_4  and  C_5
REMARK    5  A    between atoms: C_5  and  N_7
REMARK    6  A    between atoms: N_7  and  C_8
REMARK    7  A    between atoms: C_8  and  C_9
REMARK    8  A    between atoms: C_8  and  C_10
REMARK    9  A    between atoms: C_8  and  C_11
REMARK   10  A    between atoms: C_19  and  O_20
REMARK                            x       y       z     vdW  Elec       q    Type
REMARK                         _______ _______ _______ _____ _____    ______ ____
ROOT
ATOM      1  C   UNL     1       4.559   5.871  16.688  0.00  0.00    +0.000 C 
ATOM      2  C   UNL     1       5.341   4.626  16.321  0.00  0.00    +0.000 C 
ATOM      3  N   UNL     1       5.530   3.607  17.112  0.00  0.00    +0.000 NA
ENDROOT
BRANCH   2   4
ATOM      4  C   UNL     1       5.946   4.547  14.946  0.00  0.00    +0.000 A 
ATOM      5  C   UNL     1       5.322   3.696  14.017  0.00  0.00    +0.000 A 
ATOM      6  C   UNL     1       5.832   3.562  12.721  0.00  0.00    +0.000 A 
ATOM      7 CL   UNL     1       5.041   2.525  11.600  0.00  0.00    +0.000 Cl
ATOM      8  C   UNL     1       6.965   4.256  12.332  0.00  0.00    +0.000 A 
ATOM      9  C   UNL     1       7.604   5.086  13.251  0.00  0.00    +0.000 A 
ATOM     10 CL   UNL     1       9.030   5.934  12.765  0.00  0.00    +0.000 Cl
ATOM     11  C   UNL     1       7.105   5.235  14.557  0.00  0.00    +0.000 A 
BRANCH  11  12
ATOM     12  O   UNL     1       7.787   6.029  15.441  0.00  0.00    +0.000 OA
ATOM     13  H   UNL     1       8.642   5.598  15.637  0.00  0.00    +0.000 HD
ENDBRANCH  11  12
ENDBRANCH   2   4
BRANCH   3  14
ATOM     14  N   UNL     1       5.103   3.654  18.401  0.00  0.00    +0.000 N 
ATOM     15  H   UNL     1       5.700   4.057  19.103  0.00  0.00    +0.000 HD
BRANCH  14  16
ATOM     16  C   UNL     1       4.020   2.926  18.816  0.00  0.00    +0.000 C 
ATOM     17  S   UNL     1       3.689   1.340  18.401  0.00  0.00    +0.000 S 
BRANCH  16  18
ATOM     18  N   UNL     1       3.162   3.543  19.685  0.00  0.00    +0.000 N 
ATOM     19  H   UNL     1       3.573   3.624  20.610  0.00  0.00    +0.000 HD
BRANCH  18  20
ATOM     20  C   UNL     1       1.965   4.376  19.434  0.00  0.00    +0.000 C 
ATOM     21  C   UNL     1       0.808   3.981  20.362  0.00  0.00    +0.000 C 
ATOM     22  C   UNL     1       2.350   5.838  19.739  0.00  0.00    +0.000 C 
ATOM     23  C   UNL     1       1.522   4.326  17.959  0.00  0.00    +0.000 C 
ENDBRANCH  18  20
ENDBRANCH  16  18
ENDBRANCH  14  16
ENDBRANCH   3  14
TORSDOF 6
ENDMDL
MODEL 2
REMARK VINA RESULT:      -6.6      0.155      1.024
REMARK  Name = 
REMARK  10 active torsions:
REMARK  status: ('A' for Active; 'I' for Inactive)
REMARK    1  A    between atoms: C_1  and  C_2
REMARK    2  A    between atoms: C_2  and  C_12
REMARK    3  A    between atoms: N_3  and  N_4
REMARK    4  A    between atoms: N_4  and  C_5
REMARK    5  A    between atoms: C_5  and  N_7
REMARK    6  A    between atoms: N_7  and  C_8
REMARK    7  A    between atoms: C_8  and  C_9
REMARK    8  A    between atoms: C_8  and  C_10
REMARK    9  A    between atoms: C_8  and  C_11
REMARK   10  A    between atoms: C_19  and  O_20
REMARK                            x       y       z     vdW  Elec       q    Type
REMARK                         _______ _______ _______ _____ _____    ______ ____
ROOT
ATOM      1  C   UNL     1       4.554   5.909  16.674  0.00  0.00    +0.000 C 
ATOM      2  C   UNL     1       5.338   4.662  16.318  0.00  0.00    +0.000 C 
ATOM      3  N   UNL     1       5.528   3.650  17.118  0.00  0.00    +0.000 NA
ENDROOT
BRANCH   2   4
ATOM      4  C   UNL     1       5.942   4.570  14.944  0.00  0.00    +0.000 A 
ATOM      5  C   UNL     1       5.310   3.722  14.018  0.00  0.00    +0.000 A 
ATOM      6  C   UNL     1       5.819   3.576  12.723  0.00  0.00    +0.000 A 
ATOM      7 CL   UNL     1       5.019   2.542  11.607  0.00  0.00    +0.000 Cl
ATOM      8  C   UNL     1       6.959   4.257  12.331  0.00  0.00    +0.000 A 
ATOM      9  C   UNL     1       7.605   5.086  13.247  0.00  0.00    +0.000 A 
ATOM     10 CL   UNL     1       9.039   5.917  12.756  0.00  0.00    +0.000 Cl
ATOM     11  C   UNL     1       7.108   5.245  14.551  0.00  0.00    +0.000 A 
BRANCH  11  12
ATOM     12  O   UNL     1       7.797   6.037  15.432  0.00  0.00    +0.000 OA
ATOM     13  H   UNL     1       7.388   5.935  16.314  0.00  0.00    +0.000 HD
ENDBRANCH  11  12
ENDBRANCH   2   4
BRANCH   3  14
ATOM     14  N   UNL     1       5.101   3.709  18.407  0.00  0.00    +0.000 N 
ATOM     15  H   UNL     1       5.704   4.105  19.108  0.00  0.00    +0.000 HD
BRANCH  14  16
ATOM     16  C   UNL     1       4.007   3.000  18.825  0.00  0.00    +0.000 C 
ATOM     17  S   UNL     1       3.620   1.439  18.367  0.00  0.00    +0.000 S 
BRANCH  16  18
ATOM     18  N   UNL     1       3.188   3.612  19.734  0.00  0.00    +0.000 N 
ATOM     19  H   UNL     1       3.658   3.735  20.625  0.00  0.00    +0.000 HD
BRANCH  18  20
ATOM     20  C   UNL     1       1.948   4.397  19.543  0.00  0.00    +0.000 C 
ATOM     21  C   UNL     1       1.573   4.489  18.057  0.00  0.00    +0.000 C 
ATOM     22  C   UNL     1       0.815   3.656  20.282  0.00  0.00    +0.000 C 
ATOM     23  C   UNL     1       2.048   5.802  20.168  0.00  0.00    +0.000 C 
ENDBRANCH  18  20
ENDBRANCH  16  18
ENDBRANCH  14  16
ENDBRANCH   3  14
TORSDOF 6
ENDMDL
MODEL 3
REMARK VINA RESULT:      -6.4      4.679      7.530
REMARK  Name = 
REMARK  10 active torsions:
REMARK  status: ('A' for Active; 'I' for Inactive)
REMARK    1  A    between atoms: C_1  and  C_2
REMARK    2  A    between atoms: C_2  and  C_12
REMARK    3  A    between atoms: N_3  and  N_4
REMARK    4  A    between atoms: N_4  and  C_5
REMARK    5  A    between atoms: C_5  and  N_7
REMARK    6  A    between atoms: N_7  and  C_8
REMARK    7  A    between atoms: C_8  and  C_9
REMARK    8  A    between atoms: C_8  and  C_10
REMARK    9  A    between atoms: C_8  and  C_11
REMARK   10  A    between atoms: C_19  and  O_20
REMARK                            x       y       z     vdW  Elec       q    Type
REMARK                         _______ _______ _______ _____ _____    ______ ____
ROOT
ATOM      1  C   UNL     1       1.566   4.813  20.706  0.00  0.00    +0.000 C 
ATOM      2  C   UNL     1       2.350   5.930  20.048  0.00  0.00    +0.000 C 
ATOM      3  N   UNL     1       3.456   5.767  19.377  0.00  0.00    +0.000 NA
ENDROOT
BRANCH   2   4
ATOM      4  C   UNL     1       1.822   7.334  20.167  0.00  0.00    +0.000 A 
ATOM      5  C   UNL     1       1.145   7.668  21.353  0.00  0.00    +0.000 A 
ATOM      6  C   UNL     1       0.617   8.951  21.534  0.00  0.00    +0.000 A 
ATOM      7 CL   UNL     1      -0.196   9.337  22.999  0.00  0.00    +0.000 Cl
ATOM      8  C   UNL     1       0.743   9.913  20.546  0.00  0.00    +0.000 A 
ATOM      9  C   UNL     1       1.396   9.587  19.358  0.00  0.00    +0.000 A 
ATOM     10 CL   UNL     1       1.533  10.787  18.121  0.00  0.00    +0.000 Cl
ATOM     11  C   UNL     1       1.934   8.304  19.159  0.00  0.00    +0.000 A 
BRANCH  11  12
ATOM     12  O   UNL     1       2.531   8.013  17.961  0.00  0.00    +0.000 OA
ATOM     13  H   UNL     1       2.169   7.163  17.641  0.00  0.00    +0.000 HD
ENDBRANCH  11  12
ENDBRANCH   2   4
BRANCH   3  14
ATOM     14  N   UNL     1       4.044   4.544  19.317  0.00  0.00    +0.000 N 
ATOM     15  H   UNL     1       4.668   4.262  20.054  0.00  0.00    +0.000 HD
BRANCH  14  16
ATOM     16  C   UNL     1       4.036   3.808  18.163  0.00  0.00    +0.000 C 
ATOM     17  S   UNL     1       2.679   3.180  17.414  0.00  0.00    +0.000 S 
BRANCH  16  18
ATOM     18  N   UNL     1       5.243   3.614  17.548  0.00  0.00    +0.000 N 
ATOM     19  H   UNL     1       5.500   2.632  17.550  0.00  0.00    +0.000 HD
BRANCH  18  20
ATOM     20  C   UNL     1       6.009   4.481  16.626  0.00  0.00    +0.000 C 
ATOM     21  C   UNL     1       7.411   4.774  17.176  0.00  0.00    +0.000 C 
ATOM     22  C   UNL     1       6.162   3.717  15.295  0.00  0.00    +0.000 C 
ATOM     23  C   UNL     1       5.263   5.792  16.308  0.00  0.00    +0.000 C 
ENDBRANCH  18  20
ENDBRANCH  16  18
ENDBRANCH  14  16
ENDBRANCH   3  14
TORSDOF 6
ENDMDL
MODEL 4
REMARK VINA RESULT:      -6.3      4.735      7.532
REMARK  Name = 
REMARK  10 active torsions:
REMARK  status: ('A' for Active; 'I' for Inactive)
REMARK    1  A    between atoms: C_1  and  C_2
REMARK    2  A    between atoms: C_2  and  C_12
REMARK    3  A    between atoms: N_3  and  N_4
REMARK    4  A    between atoms: N_4  and  C_5
REMARK    5  A    between atoms: C_5  and  N_7
REMARK    6  A    between atoms: N_7  and  C_8
REMARK    7  A    between atoms: C_8  and  C_9
REMARK    8  A    between atoms: C_8  and  C_10
REMARK    9  A    between atoms: C_8  and  C_11
REMARK   10  A    between atoms: C_19  and  O_20
REMARK                            x       y       z     vdW  Elec       q    Type
REMARK                         _______ _______ _______ _____ _____    ______ ____
ROOT
ATOM      1  C   UNL     1       1.470   4.860  20.479  0.00  0.00    +0.000 C 
ATOM      2  C   UNL     1       2.335   6.012  20.011  0.00  0.00    +0.000 C 
ATOM      3  N   UNL     1       3.524   5.885  19.492  0.00  0.00    +0.000 NA
ENDROOT
BRANCH   2   4
ATOM      4  C   UNL     1       1.793   7.408  20.146  0.00  0.00    +0.000 A 
ATOM      5  C   UNL     1       1.142   7.732  21.349  0.00  0.00    +0.000 A 
ATOM      6  C   UNL     1       0.602   9.007  21.545  0.00  0.00    +0.000 A 
ATOM      7 CL   UNL     1      -0.177   9.381  23.032  0.00  0.00    +0.000 Cl
ATOM      8  C   UNL     1       0.690   9.972  20.556  0.00  0.00    +0.000 A 
ATOM      9  C   UNL     1       1.316   9.656  19.351  0.00  0.00    +0.000 A 
ATOM     10 CL   UNL     1       1.405  10.859  18.113  0.00  0.00    +0.000 Cl
ATOM     11  C   UNL     1       1.865   8.381  19.137  0.00  0.00    +0.000 A 
BRANCH  11  12
ATOM     12  O   UNL     1       2.435   8.099  17.923  0.00  0.00    +0.000 OA
ATOM     13  H   UNL     1       2.933   8.888  17.633  0.00  0.00    +0.000 HD
ENDBRANCH  11  12
ENDBRANCH   2   4
BRANCH   3  14
ATOM     14  N   UNL     1       4.119   4.665  19.437  0.00  0.00    +0.000 N 
ATOM     15  H   UNL     1       4.630   4.329  20.235  0.00  0.00    +0.000 HD
BRANCH  14  16
ATOM     16  C   UNL     1       4.280   4.008  18.246  0.00  0.00    +0.000 C 
ATOM     17  S   UNL     1       3.087   3.178  17.418  0.00  0.00    +0.000 S 
BRANCH  16  18
ATOM     18  N   UNL     1       5.517   4.080  17.666  0.00  0.00    +0.000 N 
ATOM     19  H   UNL     1       5.945   3.162  17.602  0.00  0.00    +0.000 HD
BRANCH  18  20
ATOM     20  C   UNL     1       6.138   5.142  16.843  0.00  0.00    +0.000 C 
ATOM     21  C   UNL     1       5.087   6.142  16.342  0.00  0.00    +0.000 C 
ATOM     22  C   UNL     1       7.134   5.899  17.744  0.00  0.00    +0.000 C 
ATOM     23  C   UNL     1       6.946   4.565  15.665  0.00  0.00    +0.000 C 
ENDBRANCH  18  20
ENDBRANCH  16  18
ENDBRANCH  14  16
ENDBRANCH   3  14
TORSDOF 6
ENDMDL
MODEL 5
REMARK VINA RESULT:      -6.2      6.225      8.165
REMARK  Name = 
REMARK  10 active torsions:
REMARK  status: ('A' for Active; 'I' for Inactive)
REMARK    1  A    between atoms: C_1  and  C_2
REMARK    2  A    between atoms: C_2  and  C_12
REMARK    3  A    between atoms: N_3  and  N_4
REMARK    4  A    between atoms: N_4  and  C_5
REMARK    5  A    between atoms: C_5  and  N_7
REMARK    6  A    between atoms: N_7  and  C_8
REMARK    7  A    between atoms: C_8  and  C_9
REMARK    8  A    between atoms: C_8  and  C_10
REMARK    9  A    between atoms: C_8  and  C_11
REMARK   10  A    between atoms: C_19  and  O_20
REMARK                            x       y       z     vdW  Elec       q    Type
REMARK                         _______ _______ _______ _____ _____    ______ ____
ROOT
ATOM      1  C   UNL     1       2.497   8.797  17.576  0.00  0.00    +0.000 C 
ATOM      2  C   UNL     1       2.011   8.252  18.904  0.00  0.00    +0.000 C 
ATOM      3  N   UNL     1       2.365   7.105  19.411  0.00  0.00    +0.000 NA
ENDROOT
BRANCH   2   4
ATOM      4  C   UNL     1       1.053   9.089  19.706  0.00  0.00    +0.000 A 
ATOM      5  C   UNL     1       0.274  10.027  19.005  0.00  0.00    +0.000 A 
ATOM      6  C   UNL     1      -0.632  10.848  19.683  0.00  0.00    +0.000 A 
ATOM      7 CL   UNL     1      -1.582  11.977  18.800  0.00  0.00    +0.000 Cl
ATOM      8  C   UNL     1      -0.773  10.761  21.058  0.00  0.00    +0.000 A 
ATOM      9  C   UNL     1       0.008   9.849  21.766  0.00  0.00    +0.000 A 
ATOM     10 CL   UNL     1      -0.160   9.760  23.484  0.00  0.00    +0.000 Cl
ATOM     11  C   UNL     1       0.922   9.015  21.101  0.00  0.00    +0.000 A 
BRANCH  11  12
ATOM     12  O   UNL     1       1.700   8.161  21.840  0.00  0.00    +0.000 OA
ATOM     13  H   UNL     1       1.508   8.320  22.785  0.00  0.00    +0.000 HD
ENDBRANCH  11  12
ENDBRANCH   2   4
BRANCH   3  14
ATOM     14  N   UNL     1       3.143   6.252  18.695  0.00  0.00    +0.000 N 
ATOM     15  H   UNL     1       3.075   6.249  17.691  0.00  0.00    +0.000 HD
BRANCH  14  16
ATOM     16  C   UNL     1       3.801   5.216  19.299  0.00  0.00    +0.000 C 
ATOM     17  S   UNL     1       5.339   4.679  18.920  0.00  0.00    +0.000 S 
BRANCH  16  18
ATOM     18  N   UNL     1       3.157   4.599  20.337  0.00  0.00    +0.000 N 
ATOM     19  H   UNL     1       3.098   5.210  21.146  0.00  0.00    +0.000 HD
BRANCH  18  20
ATOM     20  C   UNL     1       2.276   3.411  20.358  0.00  0.00    +0.000 C 
ATOM     21  C   UNL     1       2.361   2.680  21.706  0.00  0.00    +0.000 C 
ATOM     22  C   UNL     1       0.828   3.908  20.170  0.00  0.00    +0.000 C 
ATOM     23  C   UNL     1       2.575   2.445  19.195  0.00  0.00    +0.000 C 
ENDBRANCH  18  20
ENDBRANCH  16  18
ENDBRANCH  14  16
ENDBRANCH   3  14
TORSDOF 6
ENDMDL
MODEL 6
REMARK VINA RESULT:      -6.2      6.015      7.919
REMARK  Name = 
REMARK  10 active torsions:
REMARK  status: ('A' for Active; 'I' for Inactive)
REMARK    1  A    between atoms: C_1  and  C_2
REMARK    2  A    between atoms: C_2  and  C_12
REMARK    3  A    between atoms: N_3  and  N_4
REMARK    4  A    between atoms: N_4  and  C_5
REMARK    5  A    between atoms: C_5  and  N_7
REMARK    6  A    between atoms: N_7  and  C_8
REMARK    7  A    between atoms: C_8  and  C_9
REMARK    8  A    between atoms: C_8  and  C_10
REMARK    9  A    between atoms: C_8  and  C_11
REMARK   10  A    between atoms: C_19  and  O_20
REMARK                            x       y       z     vdW  Elec       q    Type
REMARK                         _______ _______ _______ _____ _____    ______ ____
ROOT
ATOM      1  C   UNL     1       3.059   8.610  17.623  0.00  0.00    +0.000 C 
ATOM      2  C   UNL     1       2.244   8.011  18.751  0.00  0.00    +0.000 C 
ATOM      3  N   UNL     1       2.322   6.772  19.148  0.00  0.00    +0.000 NA
ENDROOT
BRANCH   2   4
ATOM      4  C   UNL     1       1.273   8.902  19.477  0.00  0.00    +0.000 A 
ATOM      5  C   UNL     1       0.578   9.855  18.711  0.00  0.00    +0.000 A 
ATOM      6  C   UNL     1      -0.333  10.726  19.316  0.00  0.00    +0.000 A 
ATOM      7 CL   UNL     1      -1.179  11.873  18.355  0.00  0.00    +0.000 Cl
ATOM      8  C   UNL     1      -0.562  10.674  20.681  0.00  0.00    +0.000 A 
ATOM      9  C   UNL     1       0.136   9.747  21.453  0.00  0.00    +0.000 A 
ATOM     10 CL   UNL     1      -0.140   9.700  23.159  0.00  0.00    +0.000 Cl
ATOM     11  C   UNL     1       1.054   8.862  20.862  0.00  0.00    +0.000 A 
BRANCH  11  12
ATOM     12  O   UNL     1       1.750   7.995  21.664  0.00  0.00    +0.000 OA
ATOM     13  H   UNL     1       1.673   7.100  21.277  0.00  0.00    +0.000 HD
ENDBRANCH  11  12
ENDBRANCH   2   4
BRANCH   3  14
ATOM     14  N   UNL     1       3.099   5.886  18.472  0.00  0.00    +0.000 N 
ATOM     15  H   UNL     1       2.967   5.771  17.482  0.00  0.00    +0.000 HD
BRANCH  14  16
ATOM     16  C   UNL     1       3.852   4.954  19.134  0.00  0.00    +0.000 C 
ATOM     17  S   UNL     1       5.431   4.537  18.773  0.00  0.00    +0.000 S 
BRANCH  16  18
ATOM     18  N   UNL     1       3.272   4.348  20.215  0.00  0.00    +0.000 N 
ATOM     19  H   UNL     1       3.411   4.894  21.059  0.00  0.00    +0.000 HD
BRANCH  18  20
ATOM     20  C   UNL     1       2.238   3.292  20.291  0.00  0.00    +0.000 C 
ATOM     21  C   UNL     1       2.451   2.227  19.206  0.00  0.00    +0.000 C 
ATOM     22  C   UNL     1       2.375   2.611  21.668  0.00  0.00    +0.000 C 
ATOM     23  C   UNL     1       0.811   3.870  20.215  0.00  0.00    +0.000 C 
ENDBRANCH  18  20
ENDBRANCH  16  18
ENDBRANCH  14  16
ENDBRANCH   3  14
TORSDOF 6
ENDMDL
MODEL 7
REMARK VINA RESULT:      -6.2      1.634      1.886
REMARK  Name = 
REMARK  10 active torsions:
REMARK  status: ('A' for Active; 'I' for Inactive)
REMARK    1  A    between atoms: C_1  and  C_2
REMARK    2  A    between atoms: C_2  and  C_12
REMARK    3  A    between atoms: N_3  and  N_4
REMARK    4  A    between atoms: N_4  and  C_5
REMARK    5  A    between atoms: C_5  and  N_7
REMARK    6  A    between atoms: N_7  and  C_8
REMARK    7  A    between atoms: C_8  and  C_9
REMARK    8  A    between atoms: C_8  and  C_10
REMARK    9  A    between atoms: C_8  and  C_11
REMARK   10  A    between atoms: C_19  and  O_20
REMARK                            x       y       z     vdW  Elec       q    Type
REMARK                         _______ _______ _______ _____ _____    ______ ____
ROOT
ATOM      1  C   UNL     1       4.462   3.183  16.602  0.00  0.00    +0.000 C 
ATOM      2  C   UNL     1       5.014   4.469  16.022  0.00  0.00    +0.000 C 
ATOM      3  N   UNL     1       4.896   5.644  16.574  0.00  0.00    +0.000 NA
ENDROOT
BRANCH   2   4
ATOM      4  C   UNL     1       5.758   4.397  14.716  0.00  0.00    +0.000 A 
ATOM      5  C   UNL     1       5.240   3.542  13.727  0.00  0.00    +0.000 A 
ATOM      6  C   UNL     1       5.882   3.415  12.491  0.00  0.00    +0.000 A 
ATOM      7 CL   UNL     1       5.221   2.372  11.294  0.00  0.00    +0.000 Cl
ATOM      8  C   UNL     1       7.042   4.120  12.220  0.00  0.00    +0.000 A 
ATOM      9  C   UNL     1       7.575   4.955  13.200  0.00  0.00    +0.000 A 
ATOM     10 CL   UNL     1       9.035   5.817  12.863  0.00  0.00    +0.000 Cl
ATOM     11  C   UNL     1       6.944   5.097  14.448  0.00  0.00    +0.000 A 
BRANCH  11  12
ATOM     12  O   UNL     1       7.523   5.897  15.398  0.00  0.00    +0.000 OA
ATOM     13  H   UNL     1       7.098   6.776  15.352  0.00  0.00    +0.000 HD
ENDBRANCH  11  12
ENDBRANCH   2   4
BRANCH   3  14
ATOM     14  N   UNL     1       4.149   5.799  17.698  0.00  0.00    +0.000 N 
ATOM     15  H   UNL     1       3.317   6.363  17.662  0.00  0.00    +0.000 HD
BRANCH  14  16
ATOM     16  C   UNL     1       4.637   5.449  18.928  0.00  0.00    +0.000 C 
ATOM     17  S   UNL     1       6.251   5.396  19.362  0.00  0.00    +0.000 S 
BRANCH  16  18
ATOM     18  N   UNL     1       3.714   5.163  19.897  0.00  0.00    +0.000 N 
ATOM     19  H   UNL     1       3.439   6.002  20.399  0.00  0.00    +0.000 HD
BRANCH  18  20
ATOM     20  C   UNL     1       2.841   3.983  20.083  0.00  0.00    +0.000 C 
ATOM     21  C   UNL     1       3.658   2.683  20.086  0.00  0.00    +0.000 C 
ATOM     22  C   UNL     1       2.158   4.126  21.458  0.00  0.00    +0.000 C 
ATOM     23  C   UNL     1       1.719   3.919  19.028  0.00  0.00    +0.000 C 
ENDBRANCH  18  20
ENDBRANCH  16  18
ENDBRANCH  14  16
ENDBRANCH   3  14
TORSDOF 6
ENDMDL
MODEL 8
REMARK VINA RESULT:      -6.1      6.194      8.496
REMARK  Name = 
REMARK  10 active torsions:
REMARK  status: ('A' for Active; 'I' for Inactive)
REMARK    1  A    between atoms: C_1  and  C_2
REMARK    2  A    between atoms: C_2  and  C_12
REMARK    3  A    between atoms: N_3  and  N_4
REMARK    4  A    between atoms: N_4  and  C_5
REMARK    5  A    between atoms: C_5  and  N_7
REMARK    6  A    between atoms: N_7  and  C_8
REMARK    7  A    between atoms: C_8  and  C_9
REMARK    8  A    between atoms: C_8  and  C_10
REMARK    9  A    between atoms: C_8  and  C_11
REMARK   10  A    between atoms: C_19  and  O_20
REMARK                            x       y       z     vdW  Elec       q    Type
REMARK                         _______ _______ _______ _____ _____    ______ ____
ROOT
ATOM      1  C   UNL     1       2.373   8.683  17.892  0.00  0.00    +0.000 C 
ATOM      2  C   UNL     1       1.684   8.610  19.240  0.00  0.00    +0.000 C 
ATOM      3  N   UNL     1       1.929   7.711  20.152  0.00  0.00    +0.000 NA
ENDROOT
BRANCH   2   4
ATOM      4  C   UNL     1       0.644   9.647  19.563  0.00  0.00    +0.000 A 
ATOM      5  C   UNL     1      -0.173  10.090  18.508  0.00  0.00    +0.000 A 
ATOM      6  C   UNL     1      -1.156  11.060  18.728  0.00  0.00    +0.000 A 
ATOM      7 CL   UNL     1      -2.149  11.575  17.422  0.00  0.00    +0.000 Cl
ATOM      8  C   UNL     1      -1.338  11.609  19.986  0.00  0.00    +0.000 A 
ATOM      9  C   UNL     1      -0.522  11.192  21.036  0.00  0.00    +0.000 A 
ATOM     10 CL   UNL     1      -0.741  11.896  22.599  0.00  0.00    +0.000 Cl
ATOM     11  C   UNL     1       0.470  10.217  20.833  0.00  0.00    +0.000 A 
BRANCH  11  12
ATOM     12  O   UNL     1       1.279   9.865  21.883  0.00  0.00    +0.000 OA
ATOM     13  H   UNL     1       1.657   8.985  21.690  0.00  0.00    +0.000 HD
ENDBRANCH  11  12
ENDBRANCH   2   4
BRANCH   3  14
ATOM     14  N   UNL     1       2.778   6.684  19.888  0.00  0.00    +0.000 N 
ATOM     15  H   UNL     1       3.749   6.881  19.710  0.00  0.00    +0.000 HD
BRANCH  14  16
ATOM     16  C   UNL     1       2.308   5.435  19.583  0.00  0.00    +0.000 C 
ATOM     17  S   UNL     1       1.296   4.510  20.540  0.00  0.00    +0.000 S 
BRANCH  16  18
ATOM     18  N   UNL     1       2.665   4.924  18.364  0.00  0.00    +0.000 N 
ATOM     19  H   UNL     1       2.348   5.524  17.609  0.00  0.00    +0.000 HD
BRANCH  18  20
ATOM     20  C   UNL     1       3.677   3.907  18.001  0.00  0.00    +0.000 C 
ATOM     21  C   UNL     1       3.015   2.571  17.635  0.00  0.00    +0.000 C 
ATOM     22  C   UNL     1       4.429   4.429  16.760  0.00  0.00    +0.000 C 
ATOM     23  C   UNL     1       4.726   3.709  19.113  0.00  0.00    +0.000 C 
ENDBRANCH  18  20
ENDBRANCH  16  18
ENDBRANCH  14  16
ENDBRANCH   3  14
TORSDOF 6
ENDMDL
MODEL 9
REMARK VINA RESULT:      -6.1      1.664      1.918
REMARK  Name = 
REMARK  10 active torsions:
REMARK  status: ('A' for Active; 'I' for Inactive)
REMARK    1  A    between atoms: C_1  and  C_2
REMARK    2  A    between atoms: C_2  and  C_12
REMARK    3  A    between atoms: N_3  and  N_4
REMARK    4  A    between atoms: N_4  and  C_5
REMARK    5  A    between atoms: C_5  and  N_7
REMARK    6  A    between atoms: N_7  and  C_8
REMARK    7  A    between atoms: C_8  and  C_9
REMARK    8  A    between atoms: C_8  and  C_10
REMARK    9  A    between atoms: C_8  and  C_11
REMARK   10  A    between atoms: C_19  and  O_20
REMARK                            x       y       z     vdW  Elec       q    Type
REMARK                         _______ _______ _______ _____ _____    ______ ____
ROOT
ATOM      1  C   UNL     1       4.715   2.986  16.864  0.00  0.00    +0.000 C 
ATOM      2  C   UNL     1       5.387   4.266  16.411  0.00  0.00    +0.000 C 
ATOM      3  N   UNL     1       5.542   5.327  17.153  0.00  0.00    +0.000 NA
ENDROOT
BRANCH   2   4
ATOM      4  C   UNL     1       5.921   4.330  15.006  0.00  0.00    +0.000 A 
ATOM      5  C   UNL     1       5.273   3.546  14.035  0.00  0.00    +0.000 A 
ATOM      6  C   UNL     1       5.718   3.545  12.709  0.00  0.00    +0.000 A 
ATOM      7 CL   UNL     1       4.899   2.587  11.539  0.00  0.00    +0.000 Cl
ATOM      8  C   UNL     1       6.810   4.307  12.329  0.00  0.00    +0.000 A 
ATOM      9  C   UNL     1       7.472   5.073  13.287  0.00  0.00    +0.000 A 
ATOM     10 CL   UNL     1       8.846   6.007  12.810  0.00  0.00    +0.000 Cl
ATOM     11  C   UNL     1       7.038   5.088  14.624  0.00  0.00    +0.000 A 
BRANCH  11  12
ATOM     12  O   UNL     1       7.743   5.822  15.542  0.00  0.00    +0.000 OA
ATOM     13  H   UNL     1       7.928   6.698  15.150  0.00  0.00    +0.000 HD
ENDBRANCH  11  12
ENDBRANCH   2   4
BRANCH   3  14
ATOM     14  N   UNL     1       4.992   5.378  18.395  0.00  0.00    +0.000 N 
ATOM     15  H   UNL     1       5.381   4.811  19.129  0.00  0.00    +0.000 HD
BRANCH  14  16
ATOM     16  C   UNL     1       3.769   5.955  18.606  0.00  0.00    +0.000 C 
ATOM     17  S   UNL     1       3.161   7.285  17.794  0.00  0.00    +0.000 S 
BRANCH  16  18
ATOM     18  N   UNL     1       2.958   5.356  19.531  0.00  0.00    +0.000 N 
ATOM     19  H   UNL     1       2.767   5.981  20.309  0.00  0.00    +0.000 HD
BRANCH  18  20
ATOM     20  C   UNL     1       2.080   4.170  19.424  0.00  0.00    +0.000 C 
ATOM     21  C   UNL     1       2.809   2.898  19.878  0.00  0.00    +0.000 C 
ATOM     22  C   UNL     1       0.879   4.400  20.364  0.00  0.00    +0.000 C 
ATOM     23  C   UNL     1       1.512   3.995  18.003  0.00  0.00    +0.000 C 
ENDBRANCH  18  20
ENDBRANCH  16  18
ENDBRANCH  14  16
ENDBRANCH   3  14
TORSDOF 6
ENDMDL
