MODEL 1
REMARK VINA RESULT:      -8.2      0.000      0.000
REMARK  Name = 
REMARK  7 active torsions:
REMARK  status: ('A' for Active; 'I' for Inactive)
REMARK    1  A    between atoms: C_1  and  O_2
REMARK    2  A    between atoms: O_2  and  C_3
REMARK    3  A    between atoms: C_6  and  O_7
REMARK    4  A    between atoms: O_7  and  C_8
REMARK    5  A    between atoms: C_9  and  S_10
REMARK    6  A    between atoms: S_10  and  N_13
REMARK    7  A    between atoms: N_13  and  C_14
REMARK                            x       y       z     vdW  Elec       q    Type
REMARK                         _______ _______ _______ _____ _____    ______ ____
ROOT
ATOM      1  N   UNL     1       4.024   5.399  19.677  0.00  0.00    +0.000 N 
ATOM      2  H   UNL     1       4.863   5.815  20.070  0.00  0.00    +0.000 HD
ENDROOT
BRANCH   1   3
ATOM      3  C   UNL     1       2.990   6.295  19.275  0.00  0.00    +0.000 A 
ATOM      4  C   UNL     1       3.209   7.032  18.113  0.00  0.00    +0.000 A 
ATOM      5  C   UNL     1       2.536   8.218  17.871  0.00  0.00    +0.000 A 
ATOM      6  C   UNL     1       1.699   8.666  18.887  0.00  0.00    +0.000 A 
ATOM      7  N   UNL     1       1.251   9.944  19.145  0.00  0.00    +0.000 N 
ATOM      8  C   UNL     1       0.787   9.984  20.433  0.00  0.00    +0.000 A 
ATOM      9  C   UNL     1       0.711  11.014  21.366  0.00  0.00    +0.000 A 
ATOM     10  C   UNL     1       0.056  10.667  22.537  0.00  0.00    +0.000 A 
ATOM     11  N   UNL     1      -0.619   9.510  22.731  0.00  0.00    +0.000 NA
ATOM     12  C   UNL     1      -0.473   8.508  21.822  0.00  0.00    +0.000 A 
ATOM     13  C   UNL     1       0.394   8.683  20.740  0.00  0.00    +0.000 A 
ATOM     14  C   UNL     1       1.287   7.872  19.960  0.00  0.00    +0.000 A 
ATOM     15  C   UNL     1       1.944   6.629  20.158  0.00  0.00    +0.000 A 
ATOM     16  H   UNL     1       1.467  10.749  18.578  0.00  0.00    +0.000 HD
ENDBRANCH   1   3
BRANCH   1  17
ATOM     17  S   UNL     1       4.339   3.951  18.889  0.00  0.00    +0.000 S 
ATOM     18  O   UNL     1       3.074   3.449  18.391  0.00  0.00    +0.000 OA
ATOM     19  O   UNL     1       5.116   3.150  19.817  0.00  0.00    +0.000 OA
BRANCH  17  24
ATOM     20  C   UNL     1       5.622   4.277  15.083  0.00  0.00    +0.000 A 
ATOM     21  C   UNL     1       6.943   4.690  15.229  0.00  0.00    +0.000 A 
ATOM     22  C   UNL     1       7.490   4.904  16.495  0.00  0.00    +0.000 A 
ATOM     23  C   UNL     1       6.734   4.679  17.645  0.00  0.00    +0.000 A 
ATOM     24  C   UNL     1       5.379   4.323  17.503  0.00  0.00    +0.000 A 
ATOM     25  C   UNL     1       4.832   4.119  16.219  0.00  0.00    +0.000 A 
BRANCH  20  27
ATOM     26  C   UNL     1       6.248   3.574  12.898  0.00  0.00    +0.000 C 
ATOM     27  O   UNL     1       5.250   4.053  13.789  0.00  0.00    +0.000 OA
ENDBRANCH  20  27
BRANCH  23  28
ATOM     28  O   UNL     1       7.252   4.848  18.907  0.00  0.00    +0.000 OA
ATOM     29  C   UNL     1       7.957   6.090  19.101  0.00  0.00    +0.000 C 
ENDBRANCH  23  28
ENDBRANCH  17  24
ENDBRANCH   1  17
TORSDOF 5
ENDMDL
MODEL 2
REMARK VINA RESULT:      -7.9      5.083      9.579
REMARK  Name = 
REMARK  7 active torsions:
REMARK  status: ('A' for Active; 'I' for Inactive)
REMARK    1  A    between atoms: C_1  and  O_2
REMARK    2  A    between atoms: O_2  and  C_3
REMARK    3  A    between atoms: C_6  and  O_7
REMARK    4  A    between atoms: O_7  and  C_8
REMARK    5  A    between atoms: C_9  and  S_10
REMARK    6  A    between atoms: S_10  and  N_13
REMARK    7  A    between atoms: N_13  and  C_14
REMARK                            x       y       z     vdW  Elec       q    Type
REMARK                         _______ _______ _______ _____ _____    ______ ____
ROOT
ATOM      1  N   UNL     1       0.164   9.636  20.403  0.00  0.00    +0.000 N 
ATOM      2  H   UNL     1      -0.506   9.896  19.686  0.00  0.00    +0.000 HD
ENDROOT
BRANCH   1   3
ATOM      3  C   UNL     1       1.216   8.758  20.011  0.00  0.00    +0.000 A 
ATOM      4  C   UNL     1       1.809   8.994  18.772  0.00  0.00    +0.000 A 
ATOM      5  C   UNL     1       2.484   7.996  18.090  0.00  0.00    +0.000 A 
ATOM      6  C   UNL     1       2.463   6.734  18.673  0.00  0.00    +0.000 A 
ATOM      7  N   UNL     1       2.644   5.500  18.084  0.00  0.00    +0.000 N 
ATOM      8  C   UNL     1       2.161   4.543  18.936  0.00  0.00    +0.000 A 
ATOM      9  C   UNL     1       1.619   3.281  18.711  0.00  0.00    +0.000 A 
ATOM     10  C   UNL     1       1.354   2.567  19.870  0.00  0.00    +0.000 A 
ATOM     11  N   UNL     1       1.735   2.942  21.112  0.00  0.00    +0.000 NA
ATOM     12  C   UNL     1       2.208   4.204  21.299  0.00  0.00    +0.000 A 
ATOM     13  C   UNL     1       2.253   5.087  20.216  0.00  0.00    +0.000 A 
ATOM     14  C   UNL     1       2.076   6.495  19.994  0.00  0.00    +0.000 A 
ATOM     15  C   UNL     1       1.440   7.549  20.701  0.00  0.00    +0.000 A 
ATOM     16  H   UNL     1       2.852   5.360  17.108  0.00  0.00    +0.000 HD
ENDBRANCH   1   3
BRANCH   1  17
ATOM     17  S   UNL     1       0.355  10.834  21.563  0.00  0.00    +0.000 S 
ATOM     18  O   UNL     1       1.393  11.728  21.089  0.00  0.00    +0.000 OA
ATOM     19  O   UNL     1       0.522  10.144  22.829  0.00  0.00    +0.000 OA
BRANCH  17  24
ATOM     20  C   UNL     1      -2.973  12.541  23.060  0.00  0.00    +0.000 A 
ATOM     21  C   UNL     1      -3.646  12.976  21.921  0.00  0.00    +0.000 A 
ATOM     22  C   UNL     1      -3.101  12.782  20.651  0.00  0.00    +0.000 A 
ATOM     23  C   UNL     1      -1.883  12.121  20.492  0.00  0.00    +0.000 A 
ATOM     24  C   UNL     1      -1.169  11.735  21.642  0.00  0.00    +0.000 A 
ATOM     25  C   UNL     1      -1.723  11.945  22.922  0.00  0.00    +0.000 A 
BRANCH  20  27
ATOM     26  C   UNL     1      -3.791  14.090  24.671  0.00  0.00    +0.000 C 
ATOM     27  O   UNL     1      -3.659  12.748  24.222  0.00  0.00    +0.000 OA
ENDBRANCH  20  27
BRANCH  23  28
ATOM     28  O   UNL     1      -1.334  11.884  19.254  0.00  0.00    +0.000 OA
ATOM     29  C   UNL     1      -2.299  11.679  18.204  0.00  0.00    +0.000 C 
ENDBRANCH  23  28
ENDBRANCH  17  24
ENDBRANCH   1  17
TORSDOF 5
ENDMDL
MODEL 3
REMARK VINA RESULT:      -7.8      1.935      2.968
REMARK  Name = 
REMARK  7 active torsions:
REMARK  status: ('A' for Active; 'I' for Inactive)
REMARK    1  A    between atoms: C_1  and  O_2
REMARK    2  A    between atoms: O_2  and  C_3
REMARK    3  A    between atoms: C_6  and  O_7
REMARK    4  A    between atoms: O_7  and  C_8
REMARK    5  A    between atoms: C_9  and  S_10
REMARK    6  A    between atoms: S_10  and  N_13
REMARK    7  A    between atoms: N_13  and  C_14
REMARK                            x       y       z     vdW  Elec       q    Type
REMARK                         _______ _______ _______ _____ _____    ______ ____
ROOT
ATOM      1  N   UNL     1       2.832   6.693  19.993  0.00  0.00    +0.000 N 
ATOM      2  H   UNL     1       3.763   6.979  20.280  0.00  0.00    +0.000 HD
ENDROOT
BRANCH   1   3
ATOM      3  C   UNL     1       1.990   7.704  19.445  0.00  0.00    +0.000 A 
ATOM      4  C   UNL     1       2.174   8.019  18.100  0.00  0.00    +0.000 A 
ATOM      5  C   UNL     1       1.774   9.239  17.580  0.00  0.00    +0.000 A 
ATOM      6  C   UNL     1       1.258  10.153  18.493  0.00  0.00    +0.000 A 
ATOM      7  N   UNL     1       1.180  11.527  18.399  0.00  0.00    +0.000 N 
ATOM      8  C   UNL     1       0.970  12.031  19.654  0.00  0.00    +0.000 A 
ATOM      9  C   UNL     1       1.306  13.248  20.240  0.00  0.00    +0.000 A 
ATOM     10  C   UNL     1       0.799  13.417  21.519  0.00  0.00    +0.000 A 
ATOM     11  N   UNL     1      -0.089  12.588  22.114  0.00  0.00    +0.000 NA
ATOM     12  C   UNL     1      -0.347  11.383  21.537  0.00  0.00    +0.000 A 
ATOM     13  C   UNL     1       0.336  11.020  20.374  0.00  0.00    +0.000 A 
ATOM     14  C   UNL     1       0.859   9.817  19.789  0.00  0.00    +0.000 A 
ATOM     15  C   UNL     1       1.223   8.537  20.285  0.00  0.00    +0.000 A 
ATOM     16  H   UNL     1       1.482  12.061  17.599  0.00  0.00    +0.000 HD
ENDBRANCH   1   3
BRANCH   1  17
ATOM     17  S   UNL     1       2.780   5.090  19.500  0.00  0.00    +0.000 S 
ATOM     18  O   UNL     1       1.464   4.855  18.941  0.00  0.00    +0.000 OA
ATOM     19  O   UNL     1       3.231   4.306  20.635  0.00  0.00    +0.000 OA
BRANCH  17  24
ATOM     20  C   UNL     1       5.790   5.936  16.958  0.00  0.00    +0.000 A 
ATOM     21  C   UNL     1       5.808   4.832  16.110  0.00  0.00    +0.000 A 
ATOM     22  C   UNL     1       4.915   3.775  16.293  0.00  0.00    +0.000 A 
ATOM     23  C   UNL     1       3.962   3.816  17.311  0.00  0.00    +0.000 A 
ATOM     24  C   UNL     1       3.979   4.899  18.209  0.00  0.00    +0.000 A 
ATOM     25  C   UNL     1       4.894   5.958  18.023  0.00  0.00    +0.000 A 
BRANCH  20  27
ATOM     26  C   UNL     1       7.545   7.392  17.638  0.00  0.00    +0.000 C 
ATOM     27  O   UNL     1       6.681   6.912  16.617  0.00  0.00    +0.000 OA
ENDBRANCH  20  27
BRANCH  23  28
ATOM     28  O   UNL     1       3.046   2.808  17.497  0.00  0.00    +0.000 OA
ATOM     29  C   UNL     1       3.560   1.658  18.197  0.00  0.00    +0.000 C 
ENDBRANCH  23  28
ENDBRANCH  17  24
ENDBRANCH   1  17
TORSDOF 5
ENDMDL
MODEL 4
REMARK VINA RESULT:      -7.8      4.583      8.062
REMARK  Name = 
REMARK  7 active torsions:
REMARK  status: ('A' for Active; 'I' for Inactive)
REMARK    1  A    between atoms: C_1  and  O_2
REMARK    2  A    between atoms: O_2  and  C_3
REMARK    3  A    between atoms: C_6  and  O_7
REMARK    4  A    between atoms: O_7  and  C_8
REMARK    5  A    between atoms: C_9  and  S_10
REMARK    6  A    between atoms: S_10  and  N_13
REMARK    7  A    between atoms: N_13  and  C_14
REMARK                            x       y       z     vdW  Elec       q    Type
REMARK                         _______ _______ _______ _____ _____    ______ ____
ROOT
ATOM      1  N   UNL     1       1.527   8.984  17.899  0.00  0.00    +0.000 N 
ATOM      2  H   UNL     1       1.532   9.251  16.919  0.00  0.00    +0.000 HD
ENDROOT
BRANCH   1   3
ATOM      3  C   UNL     1       2.490   8.016  18.307  0.00  0.00    +0.000 A 
ATOM      4  C   UNL     1       3.550   7.772  17.435  0.00  0.00    +0.000 A 
ATOM      5  C   UNL     1       4.266   6.587  17.479  0.00  0.00    +0.000 A 
ATOM      6  C   UNL     1       3.813   5.633  18.383  0.00  0.00    +0.000 A 
ATOM      7  N   UNL     1       4.007   4.267  18.374  0.00  0.00    +0.000 N 
ATOM      8  C   UNL     1       3.080   3.698  19.207  0.00  0.00    +0.000 A 
ATOM      9  C   UNL     1       2.471   2.446  19.209  0.00  0.00    +0.000 A 
ATOM     10  C   UNL     1       1.662   2.214  20.311  0.00  0.00    +0.000 A 
ATOM     11  N   UNL     1       1.583   3.021  21.394  0.00  0.00    +0.000 NA
ATOM     12  C   UNL     1       2.145   4.259  21.330  0.00  0.00    +0.000 A 
ATOM     13  C   UNL     1       2.751   4.677  20.143  0.00  0.00    +0.000 A 
ATOM     14  C   UNL     1       2.907   5.903  19.411  0.00  0.00    +0.000 A 
ATOM     15  C   UNL     1       2.227   7.149  19.386  0.00  0.00    +0.000 A 
ATOM     16  H   UNL     1       4.554   3.773  17.687  0.00  0.00    +0.000 HD
ENDBRANCH   1   3
BRANCH   1  17
ATOM     17  S   UNL     1       0.998  10.227  18.895  0.00  0.00    +0.000 S 
ATOM     18  O   UNL     1       1.775  11.404  18.564  0.00  0.00    +0.000 OA
ATOM     19  O   UNL     1       1.031   9.699  20.247  0.00  0.00    +0.000 OA
BRANCH  17  24
ATOM     20  C   UNL     1      -2.519  10.112  16.931  0.00  0.00    +0.000 A 
ATOM     21  C   UNL     1      -3.289  11.055  17.606  0.00  0.00    +0.000 A 
ATOM     22  C   UNL     1      -2.772  11.751  18.700  0.00  0.00    +0.000 A 
ATOM     23  C   UNL     1      -1.460  11.538  19.124  0.00  0.00    +0.000 A 
ATOM     24  C   UNL     1      -0.697  10.541  18.486  0.00  0.00    +0.000 A 
ATOM     25  C   UNL     1      -1.233   9.836  17.388  0.00  0.00    +0.000 A 
BRANCH  20  27
ATOM     26  C   UNL     1      -3.428  10.420  14.754  0.00  0.00    +0.000 C 
ATOM     27  O   UNL     1      -3.140   9.560  15.849  0.00  0.00    +0.000 OA
ENDBRANCH  20  27
BRANCH  23  28
ATOM     28  O   UNL     1      -0.909  12.230  20.176  0.00  0.00    +0.000 OA
ATOM     29  C   UNL     1      -1.674  12.168  21.396  0.00  0.00    +0.000 C 
ENDBRANCH  23  28
ENDBRANCH  17  24
ENDBRANCH   1  17
TORSDOF 5
ENDMDL
MODEL 5
REMARK VINA RESULT:      -7.8      4.787      9.224
REMARK  Name = 
REMARK  7 active torsions:
REMARK  status: ('A' for Active; 'I' for Inactive)
REMARK    1  A    between atoms: C_1  and  O_2
REMARK    2  A    between atoms: O_2  and  C_3
REMARK    3  A    between atoms: C_6  and  O_7
REMARK    4  A    between atoms: O_7  and  C_8
REMARK    5  A    between atoms: C_9  and  S_10
REMARK    6  A    between atoms: S_10  and  N_13
REMARK    7  A    between atoms: N_13  and  C_14
REMARK                            x       y       z     vdW  Elec       q    Type
REMARK                         _______ _______ _______ _____ _____    ______ ____
ROOT
ATOM      1  N   UNL     1       0.488   9.278  20.517  0.00  0.00    +0.000 N 
ATOM      2  H   UNL     1       0.297  10.108  19.965  0.00  0.00    +0.000 HD
ENDROOT
BRANCH   1   3
ATOM      3  C   UNL     1       1.482   8.387  20.015  0.00  0.00    +0.000 A 
ATOM      4  C   UNL     1       2.025   8.685  18.768  0.00  0.00    +0.000 A 
ATOM      5  C   UNL     1       2.625   7.710  17.987  0.00  0.00    +0.000 A 
ATOM      6  C   UNL     1       2.577   6.413  18.485  0.00  0.00    +0.000 A 
ATOM      7  N   UNL     1       2.676   5.216  17.806  0.00  0.00    +0.000 N 
ATOM      8  C   UNL     1       2.192   4.223  18.615  0.00  0.00    +0.000 A 
ATOM      9  C   UNL     1       1.586   3.002  18.333  0.00  0.00    +0.000 A 
ATOM     10  C   UNL     1       1.345   2.220  19.453  0.00  0.00    +0.000 A 
ATOM     11  N   UNL     1       1.800   2.493  20.697  0.00  0.00    +0.000 NA
ATOM     12  C   UNL     1       2.335   3.719  20.944  0.00  0.00    +0.000 A 
ATOM     13  C   UNL     1       2.367   4.672  19.923  0.00  0.00    +0.000 A 
ATOM     14  C   UNL     1       2.241   6.098  19.804  0.00  0.00    +0.000 A 
ATOM     15  C   UNL     1       1.685   7.126  20.611  0.00  0.00    +0.000 A 
ATOM     16  H   UNL     1       2.832   5.136  16.814  0.00  0.00    +0.000 HD
ENDBRANCH   1   3
BRANCH   1  17
ATOM     17  S   UNL     1       0.223   9.525  22.156  0.00  0.00    +0.000 S 
ATOM     18  O   UNL     1       1.520   9.558  22.801  0.00  0.00    +0.000 OA
ATOM     19  O   UNL     1      -0.756   8.532  22.558  0.00  0.00    +0.000 OA
BRANCH  17  24
ATOM     20  C   UNL     1      -2.389  12.392  23.250  0.00  0.00    +0.000 A 
ATOM     21  C   UNL     1      -1.932  13.514  22.564  0.00  0.00    +0.000 A 
ATOM     22  C   UNL     1      -0.797  13.446  21.756  0.00  0.00    +0.000 A 
ATOM     23  C   UNL     1      -0.111  12.242  21.592  0.00  0.00    +0.000 A 
ATOM     24  C   UNL     1      -0.530  11.120  22.330  0.00  0.00    +0.000 A 
ATOM     25  C   UNL     1      -1.673  11.202  23.154  0.00  0.00    +0.000 A 
BRANCH  20  27
ATOM     26  C   UNL     1      -3.890  13.946  24.248  0.00  0.00    +0.000 C 
ATOM     27  O   UNL     1      -3.542  12.600  23.950  0.00  0.00    +0.000 OA
ENDBRANCH  20  27
BRANCH  23  28
ATOM     28  O   UNL     1       0.990  12.132  20.777  0.00  0.00    +0.000 OA
ATOM     29  C   UNL     1       0.823  12.710  19.468  0.00  0.00    +0.000 C 
ENDBRANCH  23  28
ENDBRANCH  17  24
ENDBRANCH   1  17
TORSDOF 5
ENDMDL
MODEL 6
REMARK VINA RESULT:      -7.5      5.073      9.389
REMARK  Name = 
REMARK  7 active torsions:
REMARK  status: ('A' for Active; 'I' for Inactive)
REMARK    1  A    between atoms: C_1  and  O_2
REMARK    2  A    between atoms: O_2  and  C_3
REMARK    3  A    between atoms: C_6  and  O_7
REMARK    4  A    between atoms: O_7  and  C_8
REMARK    5  A    between atoms: C_9  and  S_10
REMARK    6  A    between atoms: S_10  and  N_13
REMARK    7  A    between atoms: N_13  and  C_14
REMARK                            x       y       z     vdW  Elec       q    Type
REMARK                         _______ _______ _______ _____ _____    ______ ____
ROOT
ATOM      1  N   UNL     1       0.108   9.946  19.869  0.00  0.00    +0.000 N 
ATOM      2  H   UNL     1      -0.764   9.742  19.390  0.00  0.00    +0.000 HD
ENDROOT
BRANCH   1   3
ATOM      3  C   UNL     1       1.211   9.087  19.591  0.00  0.00    +0.000 A 
ATOM      4  C   UNL     1       1.869   9.277  18.377  0.00  0.00    +0.000 A 
ATOM      5  C   UNL     1       2.618   8.268  17.794  0.00  0.00    +0.000 A 
ATOM      6  C   UNL     1       2.604   7.040  18.447  0.00  0.00    +0.000 A 
ATOM      7  N   UNL     1       2.862   5.783  17.941  0.00  0.00    +0.000 N 
ATOM      8  C   UNL     1       2.361   4.857  18.817  0.00  0.00    +0.000 A 
ATOM      9  C   UNL     1       1.876   3.566  18.634  0.00  0.00    +0.000 A 
ATOM     10  C   UNL     1       1.566   2.907  19.814  0.00  0.00    +0.000 A 
ATOM     11  N   UNL     1       1.859   3.364  21.054  0.00  0.00    +0.000 NA
ATOM     12  C   UNL     1       2.276   4.652  21.194  0.00  0.00    +0.000 A 
ATOM     13  C   UNL     1       2.357   5.474  20.067  0.00  0.00    +0.000 A 
ATOM     14  C   UNL     1       2.146   6.860  19.754  0.00  0.00    +0.000 A 
ATOM     15  C   UNL     1       1.433   7.928  20.361  0.00  0.00    +0.000 A 
ATOM     16  H   UNL     1       3.133   5.597  16.989  0.00  0.00    +0.000 HD
ENDBRANCH   1   3
BRANCH   1  17
ATOM     17  S   UNL     1       0.283  11.581  20.209  0.00  0.00    +0.000 S 
ATOM     18  O   UNL     1       0.185  12.293  18.951  0.00  0.00    +0.000 OA
ATOM     19  O   UNL     1       1.487  11.697  21.011  0.00  0.00    +0.000 OA
BRANCH  17  24
ATOM     20  C   UNL     1      -3.073  13.443  21.436  0.00  0.00    +0.000 A 
ATOM     21  C   UNL     1      -3.198  13.031  22.760  0.00  0.00    +0.000 A 
ATOM     22  C   UNL     1      -2.273  12.152  23.326  0.00  0.00    +0.000 A 
ATOM     23  C   UNL     1      -1.184  11.690  22.585  0.00  0.00    +0.000 A 
ATOM     24  C   UNL     1      -1.087  12.053  21.229  0.00  0.00    +0.000 A 
ATOM     25  C   UNL     1      -2.033  12.934  20.663  0.00  0.00    +0.000 A 
BRANCH  20  27
ATOM     26  C   UNL     1      -5.346  14.143  21.507  0.00  0.00    +0.000 C 
ATOM     27  O   UNL     1      -4.017  14.347  21.045  0.00  0.00    +0.000 OA
ENDBRANCH  20  27
BRANCH  23  28
ATOM     28  O   UNL     1      -0.237  10.851  23.122  0.00  0.00    +0.000 OA
ATOM     29  C   UNL     1      -0.638   9.469  23.197  0.00  0.00    +0.000 C 
ENDBRANCH  23  28
ENDBRANCH  17  24
ENDBRANCH   1  17
TORSDOF 5
ENDMDL
MODEL 7
REMARK VINA RESULT:      -7.4      2.225      3.531
REMARK  Name = 
REMARK  7 active torsions:
REMARK  status: ('A' for Active; 'I' for Inactive)
REMARK    1  A    between atoms: C_1  and  O_2
REMARK    2  A    between atoms: O_2  and  C_3
REMARK    3  A    between atoms: C_6  and  O_7
REMARK    4  A    between atoms: O_7  and  C_8
REMARK    5  A    between atoms: C_9  and  S_10
REMARK    6  A    between atoms: S_10  and  N_13
REMARK    7  A    between atoms: N_13  and  C_14
REMARK                            x       y       z     vdW  Elec       q    Type
REMARK                         _______ _______ _______ _____ _____    ______ ____
ROOT
ATOM      1  N   UNL     1       2.411   6.646  20.708  0.00  0.00    +0.000 N 
ATOM      2  H   UNL     1       3.381   6.802  20.964  0.00  0.00    +0.000 HD
ENDROOT
BRANCH   1   3
ATOM      3  C   UNL     1       1.770   7.674  19.957  0.00  0.00    +0.000 A 
ATOM      4  C   UNL     1       2.084   7.755  18.602  0.00  0.00    +0.000 A 
ATOM      5  C   UNL     1       1.910   8.930  17.888  0.00  0.00    +0.000 A 
ATOM      6  C   UNL     1       1.485  10.033  18.619  0.00  0.00    +0.000 A 
ATOM      7  N   UNL     1       1.627  11.374  18.330  0.00  0.00    +0.000 N 
ATOM      8  C   UNL     1       1.419  12.085  19.483  0.00  0.00    +0.000 A 
ATOM      9  C   UNL     1       1.902  13.315  19.921  0.00  0.00    +0.000 A 
ATOM     10  C   UNL     1       1.349  13.744  21.118  0.00  0.00    +0.000 A 
ATOM     11  N   UNL     1       0.308  13.149  21.745  0.00  0.00    +0.000 NA
ATOM     12  C   UNL     1      -0.096  11.921  21.320  0.00  0.00    +0.000 A 
ATOM     13  C   UNL     1       0.593  11.294  20.279  0.00  0.00    +0.000 A 
ATOM     14  C   UNL     1       0.960   9.955  19.911  0.00  0.00    +0.000 A 
ATOM     15  C   UNL     1       1.091   8.724  20.608  0.00  0.00    +0.000 A 
ATOM     16  H   UNL     1       2.056  11.735  17.493  0.00  0.00    +0.000 HD
ENDBRANCH   1   3
BRANCH   1  17
ATOM     17  S   UNL     1       2.056   5.016  20.521  0.00  0.00    +0.000 S 
ATOM     18  O   UNL     1       0.654   4.921  20.163  0.00  0.00    +0.000 OA
ATOM     19  O   UNL     1       2.538   4.359  21.721  0.00  0.00    +0.000 OA
BRANCH  17  24
ATOM     20  C   UNL     1       5.183   4.458  18.042  0.00  0.00    +0.000 A 
ATOM     21  C   UNL     1       4.633   3.718  16.999  0.00  0.00    +0.000 A 
ATOM     22  C   UNL     1       3.288   3.343  17.020  0.00  0.00    +0.000 A 
ATOM     23  C   UNL     1       2.458   3.728  18.073  0.00  0.00    +0.000 A 
ATOM     24  C   UNL     1       3.023   4.422  19.160  0.00  0.00    +0.000 A 
ATOM     25  C   UNL     1       4.385   4.787  19.135  0.00  0.00    +0.000 A 
BRANCH  20  27
ATOM     26  C   UNL     1       7.053   4.535  16.572  0.00  0.00    +0.000 C 
ATOM     27  O   UNL     1       6.491   4.799  17.851  0.00  0.00    +0.000 OA
ENDBRANCH  20  27
BRANCH  23  28
ATOM     28  O   UNL     1       1.122   3.405  18.108  0.00  0.00    +0.000 OA
ATOM     29  C   UNL     1       0.840   2.096  18.642  0.00  0.00    +0.000 C 
ENDBRANCH  23  28
ENDBRANCH  17  24
ENDBRANCH   1  17
TORSDOF 5
ENDMDL
MODEL 8
REMARK VINA RESULT:      -7.4      5.117      9.444
REMARK  Name = 
REMARK  7 active torsions:
REMARK  status: ('A' for Active; 'I' for Inactive)
REMARK    1  A    between atoms: C_1  and  O_2
REMARK    2  A    between atoms: O_2  and  C_3
REMARK    3  A    between atoms: C_6  and  O_7
REMARK    4  A    between atoms: O_7  and  C_8
REMARK    5  A    between atoms: C_9  and  S_10
REMARK    6  A    between atoms: S_10  and  N_13
REMARK    7  A    between atoms: N_13  and  C_14
REMARK                            x       y       z     vdW  Elec       q    Type
REMARK                         _______ _______ _______ _____ _____    ______ ____
ROOT
ATOM      1  N   UNL     1       0.254  10.249  19.768  0.00  0.00    +0.000 N 
ATOM      2  H   UNL     1      -0.584  10.197  19.198  0.00  0.00    +0.000 HD
ENDROOT
BRANCH   1   3
ATOM      3  C   UNL     1       1.288   9.311  19.478  0.00  0.00    +0.000 A 
ATOM      4  C   UNL     1       1.910   9.422  18.236  0.00  0.00    +0.000 A 
ATOM      5  C   UNL     1       2.570   8.349  17.659  0.00  0.00    +0.000 A 
ATOM      6  C   UNL     1       2.502   7.145  18.350  0.00  0.00    +0.000 A 
ATOM      7  N   UNL     1       2.658   5.859  17.876  0.00  0.00    +0.000 N 
ATOM      8  C   UNL     1       2.131   4.994  18.798  0.00  0.00    +0.000 A 
ATOM      9  C   UNL     1       1.557   3.733  18.674  0.00  0.00    +0.000 A 
ATOM     10  C   UNL     1       1.250   3.131  19.884  0.00  0.00    +0.000 A 
ATOM     11  N   UNL     1       1.618   3.604  21.097  0.00  0.00    +0.000 NA
ATOM     12  C   UNL     1       2.124   4.864  21.182  0.00  0.00    +0.000 A 
ATOM     13  C   UNL     1       2.214   5.646  20.028  0.00  0.00    +0.000 A 
ATOM     14  C   UNL     1       2.082   7.033  19.678  0.00  0.00    +0.000 A 
ATOM     15  C   UNL     1       1.464   8.163  20.276  0.00  0.00    +0.000 A 
ATOM     16  H   UNL     1       2.881   5.628  16.921  0.00  0.00    +0.000 HD
ENDBRANCH   1   3
BRANCH   1  17
ATOM     17  S   UNL     1       0.557  11.806  20.318  0.00  0.00    +0.000 S 
ATOM     18  O   UNL     1       0.446  12.693  19.177  0.00  0.00    +0.000 OA
ATOM     19  O   UNL     1       1.805  11.735  21.056  0.00  0.00    +0.000 OA
BRANCH  17  24
ATOM     20  C   UNL     1      -2.049  13.983  22.485  0.00  0.00    +0.000 A 
ATOM     21  C   UNL     1      -2.598  13.046  23.356  0.00  0.00    +0.000 A 
ATOM     22  C   UNL     1      -2.208  11.707  23.303  0.00  0.00    +0.000 A 
ATOM     23  C   UNL     1      -1.237  11.283  22.396  0.00  0.00    +0.000 A 
ATOM     24  C   UNL     1      -0.724  12.213  21.472  0.00  0.00    +0.000 A 
ATOM     25  C   UNL     1      -1.132  13.562  21.526  0.00  0.00    +0.000 A 
BRANCH  20  27
ATOM     26  C   UNL     1      -3.150  15.525  23.925  0.00  0.00    +0.000 C 
ATOM     27  O   UNL     1      -2.484  15.260  22.698  0.00  0.00    +0.000 OA
ENDBRANCH  20  27
BRANCH  23  28
ATOM     28  O   UNL     1      -0.806   9.979  22.341  0.00  0.00    +0.000 OA
ATOM     29  C   UNL     1      -0.016   9.563  23.472  0.00  0.00    +0.000 C 
ENDBRANCH  23  28
ENDBRANCH  17  24
ENDBRANCH   1  17
TORSDOF 5
ENDMDL
MODEL 9
REMARK VINA RESULT:      -7.4      4.106      8.093
REMARK  Name = 
REMARK  7 active torsions:
REMARK  status: ('A' for Active; 'I' for Inactive)
REMARK    1  A    between atoms: C_1  and  O_2
REMARK    2  A    between atoms: O_2  and  C_3
REMARK    3  A    between atoms: C_6  and  O_7
REMARK    4  A    between atoms: O_7  and  C_8
REMARK    5  A    between atoms: C_9  and  S_10
REMARK    6  A    between atoms: S_10  and  N_13
REMARK    7  A    between atoms: N_13  and  C_14
REMARK                            x       y       z     vdW  Elec       q    Type
REMARK                         _______ _______ _______ _____ _____    ______ ____
ROOT
ATOM      1  N   UNL     1       1.662   8.600  21.397  0.00  0.00    +0.000 N 
ATOM      2  H   UNL     1       2.319   8.629  22.170  0.00  0.00    +0.000 HD
ENDROOT
BRANCH   1   3
ATOM      3  C   UNL     1       1.781   7.504  20.493  0.00  0.00    +0.000 A 
ATOM      4  C   UNL     1       1.424   6.246  20.974  0.00  0.00    +0.000 A 
ATOM      5  C   UNL     1       1.906   5.085  20.393  0.00  0.00    +0.000 A 
ATOM      6  C   UNL     1       2.825   5.252  19.363  0.00  0.00    +0.000 A 
ATOM      7  N   UNL     1       3.776   4.370  18.893  0.00  0.00    +0.000 N 
ATOM      8  C   UNL     1       4.692   5.076  18.161  0.00  0.00    +0.000 A 
ATOM      9  C   UNL     1       6.044   4.865  17.903  0.00  0.00    +0.000 A 
ATOM     10  C   UNL     1       6.593   5.765  17.001  0.00  0.00    +0.000 A 
ATOM     11  N   UNL     1       5.885   6.663  16.278  0.00  0.00    +0.000 NA
ATOM     12  C   UNL     1       4.581   6.879  16.600  0.00  0.00    +0.000 A 
ATOM     13  C   UNL     1       4.020   6.201  17.685  0.00  0.00    +0.000 A 
ATOM     14  C   UNL     1       3.050   6.467  18.711  0.00  0.00    +0.000 A 
ATOM     15  C   UNL     1       2.496   7.642  19.286  0.00  0.00    +0.000 A 
ATOM     16  H   UNL     1       3.906   3.434  19.244  0.00  0.00    +0.000 HD
ENDBRANCH   1   3
BRANCH   1  17
ATOM     17  S   UNL     1       0.192   9.315  21.781  0.00  0.00    +0.000 S 
ATOM     18  O   UNL     1       0.387  10.066  23.005  0.00  0.00    +0.000 OA
ATOM     19  O   UNL     1      -0.795   8.252  21.738  0.00  0.00    +0.000 OA
BRANCH  17  24
ATOM     20  C   UNL     1      -1.509  10.871  18.476  0.00  0.00    +0.000 A 
ATOM     21  C   UNL     1      -0.796  12.050  18.278  0.00  0.00    +0.000 A 
ATOM     22  C   UNL     1       0.221  12.427  19.157  0.00  0.00    +0.000 A 
ATOM     23  C   UNL     1       0.566  11.615  20.238  0.00  0.00    +0.000 A 
ATOM     24  C   UNL     1      -0.192  10.454  20.479  0.00  0.00    +0.000 A 
ATOM     25  C   UNL     1      -1.226  10.087  19.591  0.00  0.00    +0.000 A 
BRANCH  20  27
ATOM     26  C   UNL     1      -3.699  11.236  17.620  0.00  0.00    +0.000 C 
ATOM     27  O   UNL     1      -2.429  10.609  17.503  0.00  0.00    +0.000 OA
ENDBRANCH  20  27
BRANCH  23  28
ATOM     28  O   UNL     1       1.584  11.940  21.102  0.00  0.00    +0.000 OA
ATOM     29  C   UNL     1       2.203  13.215  20.842  0.00  0.00    +0.000 C 
ENDBRANCH  23  28
ENDBRANCH  17  24
ENDBRANCH   1  17
TORSDOF 5
ENDMDL
