MODEL 1
REMARK VINA RESULT:      -8.6      0.000      0.000
REMARK  Name = 
REMARK  10 active torsions:
REMARK  status: ('A' for Active; 'I' for Inactive)
REMARK    1  A    between atoms: C_1  and  O_2
REMARK    2  A    between atoms: O_2  and  C_3
REMARK    3  A    between atoms: C_6  and  N_7
REMARK    4  A    between atoms: C_9  and  C_10
REMARK    5  A    between atoms: C_12  and  C_13
REMARK    6  A    between atoms: N_15  and  C_16
REMARK    7  A    between atoms: C_16  and  C_17
REMARK    8  A    between atoms: C_20  and  C_21
REMARK    9  A    between atoms: C_22  and  C_23
REMARK   10  A    between atoms: C_26  and  C_27
REMARK                            x       y       z     vdW  Elec       q    Type
REMARK                         _______ _______ _______ _____ _____    ______ ____
ROOT
ATOM      1  C   UNL     1       7.482   5.978  18.006  0.00  0.00    +0.000 C 
ATOM      2  O   UNL     1       7.848   5.278  18.942  0.00  0.00    +0.000 OA
ATOM      3  N   UNL     1       7.828   7.309  17.926  0.00  0.00    +0.000 N 
ATOM      4  H   UNL     1       7.461   7.879  17.180  0.00  0.00    +0.000 HD
ENDROOT
BRANCH   1  10
ATOM      5  N   UNL     1       5.324   5.216  16.969  0.00  0.00    +0.000 N 
ATOM      6  N   UNL     1       4.915   4.481  15.897  0.00  0.00    +0.000 NA
ATOM      7  C   UNL     1       5.952   4.485  15.059  0.00  0.00    +0.000 A 
ATOM      8  C   UNL     1       5.839   3.865  13.717  0.00  0.00    +0.000 C 
ATOM      9  C   UNL     1       7.083   5.086  15.642  0.00  0.00    +0.000 A 
ATOM     10  C   UNL     1       6.686   5.488  16.907  0.00  0.00    +0.000 A 
BRANCH   5  14
ATOM     11  C   UNL     1       2.393   6.499  19.741  0.00  0.00    +0.000 A 
ATOM     12  C   UNL     1       3.077   5.295  19.931  0.00  0.00    +0.000 A 
ATOM     13  C   UNL     1       4.043   4.871  19.014  0.00  0.00    +0.000 A 
ATOM     14  C   UNL     1       4.349   5.666  17.904  0.00  0.00    +0.000 A 
ATOM     15  C   UNL     1       3.647   6.861  17.697  0.00  0.00    +0.000 A 
ATOM     16  C   UNL     1       2.670   7.271  18.612  0.00  0.00    +0.000 A 
BRANCH  11  18
ATOM     17  C   UNL     1       1.301   8.171  21.007  0.00  0.00    +0.000 C 
ATOM     18  O   UNL     1       1.454   6.793  20.690  0.00  0.00    +0.000 OA
ENDBRANCH  11  18
ENDBRANCH   5  14
ENDBRANCH   1  10
BRANCH   3  19
ATOM     19  C   UNL     1       8.621   7.940  18.953  0.00  0.00    +0.000 C 
BRANCH  19  20
ATOM     20  C   UNL     1       8.758   9.429  18.748  0.00  0.00    +0.000 A 
ATOM     21  C   UNL     1       9.557  10.201  19.601  0.00  0.00    +0.000 A 
ATOM     22  C   UNL     1       9.722  11.576  19.384  0.00  0.00    +0.000 A 
ATOM     23  C   UNL     1       9.116  12.214  18.293  0.00  0.00    +0.000 A 
ATOM     24  C   UNL     1       8.305  11.434  17.455  0.00  0.00    +0.000 A 
ATOM     25  C   UNL     1       8.108  10.068  17.691  0.00  0.00    +0.000 A 
BRANCH  23  26
ATOM     26  C   UNL     1       9.336  13.638  18.037  0.00  0.00    +0.000 A 
ATOM     27  C   UNL     1       8.517  14.789  18.277  0.00  0.00    +0.000 A 
ATOM     28  C   UNL     1       7.174  14.919  18.890  0.00  0.00    +0.000 C 
ATOM     29  N   UNL     1       9.123  15.914  17.873  0.00  0.00    +0.000 NA
ATOM     30  O   UNL     1      10.343  15.529  17.373  0.00  0.00    +0.000 OA
ATOM     31  C   UNL     1      10.475  14.180  17.465  0.00  0.00    +0.000 A 
ATOM     32  C   UNL     1      11.752  13.655  16.938  0.00  0.00    +0.000 C 
ENDBRANCH  23  26
ENDBRANCH  19  20
ENDBRANCH   3  19
TORSDOF 6
ENDMDL
MODEL 2
REMARK VINA RESULT:      -8.6      1.010      1.330
REMARK  Name = 
REMARK  10 active torsions:
REMARK  status: ('A' for Active; 'I' for Inactive)
REMARK    1  A    between atoms: C_1  and  O_2
REMARK    2  A    between atoms: O_2  and  C_3
REMARK    3  A    between atoms: C_6  and  N_7
REMARK    4  A    between atoms: C_9  and  C_10
REMARK    5  A    between atoms: C_12  and  C_13
REMARK    6  A    between atoms: N_15  and  C_16
REMARK    7  A    between atoms: C_16  and  C_17
REMARK    8  A    between atoms: C_20  and  C_21
REMARK    9  A    between atoms: C_22  and  C_23
REMARK   10  A    between atoms: C_26  and  C_27
REMARK                            x       y       z     vdW  Elec       q    Type
REMARK                         _______ _______ _______ _____ _____    ______ ____
ROOT
ATOM      1  C   UNL     1       7.381   5.769  18.117  0.00  0.00    +0.000 C 
ATOM      2  O   UNL     1       7.579   5.133  19.145  0.00  0.00    +0.000 OA
ATOM      3  N   UNL     1       7.826   7.067  17.979  0.00  0.00    +0.000 N 
ATOM      4  H   UNL     1       7.595   7.590  17.149  0.00  0.00    +0.000 HD
ENDROOT
BRANCH   1  10
ATOM      5  N   UNL     1       5.493   4.541  17.005  0.00  0.00    +0.000 N 
ATOM      6  N   UNL     1       5.254   3.893  15.830  0.00  0.00    +0.000 NA
ATOM      7  C   UNL     1       6.178   4.354  14.986  0.00  0.00    +0.000 A 
ATOM      8  C   UNL     1       6.165   3.949  13.560  0.00  0.00    +0.000 C 
ATOM      9  C   UNL     1       7.108   5.181  15.643  0.00  0.00    +0.000 A 
ATOM     10  C   UNL     1       6.698   5.233  16.965  0.00  0.00    +0.000 A 
BRANCH   5  14
ATOM     11  C   UNL     1       2.510   4.387  20.004  0.00  0.00    +0.000 A 
ATOM     12  C   UNL     1       3.444   3.356  19.872  0.00  0.00    +0.000 A 
ATOM     13  C   UNL     1       4.427   3.407  18.880  0.00  0.00    +0.000 A 
ATOM     14  C   UNL     1       4.496   4.509  18.021  0.00  0.00    +0.000 A 
ATOM     15  C   UNL     1       3.546   5.531  18.133  0.00  0.00    +0.000 A 
ATOM     16  C   UNL     1       2.554   5.466  19.119  0.00  0.00    +0.000 A 
BRANCH  11  18
ATOM     17  C   UNL     1       1.518   2.910  21.561  0.00  0.00    +0.000 C 
ATOM     18  O   UNL     1       1.582   4.213  20.992  0.00  0.00    +0.000 OA
ENDBRANCH  11  18
ENDBRANCH   5  14
ENDBRANCH   1  10
BRANCH   3  19
ATOM     19  C   UNL     1       8.524   7.736  19.049  0.00  0.00    +0.000 C 
BRANCH  19  20
ATOM     20  C   UNL     1       8.686   9.216  18.799  0.00  0.00    +0.000 A 
ATOM     21  C   UNL     1       9.502   9.999  19.625  0.00  0.00    +0.000 A 
ATOM     22  C   UNL     1       9.689  11.364  19.367  0.00  0.00    +0.000 A 
ATOM     23  C   UNL     1       9.088  11.980  18.261  0.00  0.00    +0.000 A 
ATOM     24  C   UNL     1       8.260  11.190  17.450  0.00  0.00    +0.000 A 
ATOM     25  C   UNL     1       8.041   9.835  17.726  0.00  0.00    +0.000 A 
BRANCH  23  26
ATOM     26  C   UNL     1       9.331  13.392  17.961  0.00  0.00    +0.000 A 
ATOM     27  C   UNL     1       8.542  14.566  18.189  0.00  0.00    +0.000 A 
ATOM     28  C   UNL     1       7.216  14.740  18.829  0.00  0.00    +0.000 C 
ATOM     29  N   UNL     1       9.161  15.666  17.741  0.00  0.00    +0.000 NA
ATOM     30  O   UNL     1      10.360  15.243  17.224  0.00  0.00    +0.000 OA
ATOM     31  C   UNL     1      10.467  13.895  17.349  0.00  0.00    +0.000 A 
ATOM     32  C   UNL     1      11.720  13.330  16.807  0.00  0.00    +0.000 C 
ENDBRANCH  23  26
ENDBRANCH  19  20
ENDBRANCH   3  19
TORSDOF 6
ENDMDL
MODEL 3
REMARK VINA RESULT:      -8.6      1.132      1.929
REMARK  Name = 
REMARK  10 active torsions:
REMARK  status: ('A' for Active; 'I' for Inactive)
REMARK    1  A    between atoms: C_1  and  O_2
REMARK    2  A    between atoms: O_2  and  C_3
REMARK    3  A    between atoms: C_6  and  N_7
REMARK    4  A    between atoms: C_9  and  C_10
REMARK    5  A    between atoms: C_12  and  C_13
REMARK    6  A    between atoms: N_15  and  C_16
REMARK    7  A    between atoms: C_16  and  C_17
REMARK    8  A    between atoms: C_20  and  C_21
REMARK    9  A    between atoms: C_22  and  C_23
REMARK   10  A    between atoms: C_26  and  C_27
REMARK                            x       y       z     vdW  Elec       q    Type
REMARK                         _______ _______ _______ _____ _____    ______ ____
ROOT
ATOM      1  C   UNL     1       7.429   5.621  17.642  0.00  0.00    +0.000 C 
ATOM      2  O   UNL     1       7.762   4.876  18.555  0.00  0.00    +0.000 OA
ATOM      3  N   UNL     1       7.675   6.976  17.694  0.00  0.00    +0.000 N 
ATOM      4  H   UNL     1       7.335   7.576  16.959  0.00  0.00    +0.000 HD
ENDROOT
BRANCH   1  10
ATOM      5  N   UNL     1       5.512   4.595  16.383  0.00  0.00    +0.000 N 
ATOM      6  N   UNL     1       5.294   3.984  15.184  0.00  0.00    +0.000 NA
ATOM      7  C   UNL     1       6.314   4.361  14.413  0.00  0.00    +0.000 A 
ATOM      8  C   UNL     1       6.361   3.972  12.982  0.00  0.00    +0.000 C 
ATOM      9  C   UNL     1       7.272   5.086  15.145  0.00  0.00    +0.000 A 
ATOM     10  C   UNL     1       6.779   5.166  16.437  0.00  0.00    +0.000 A 
BRANCH   5  14
ATOM     11  C   UNL     1       2.320   4.714  19.161  0.00  0.00    +0.000 A 
ATOM     12  C   UNL     1       3.012   3.525  18.919  0.00  0.00    +0.000 A 
ATOM     13  C   UNL     1       4.064   3.486  18.000  0.00  0.00    +0.000 A 
ATOM     14  C   UNL     1       4.448   4.651  17.328  0.00  0.00    +0.000 A 
ATOM     15  C   UNL     1       3.740   5.839  17.548  0.00  0.00    +0.000 A 
ATOM     16  C   UNL     1       2.677   5.867  18.459  0.00  0.00    +0.000 A 
BRANCH  11  18
ATOM     17  C   UNL     1       1.303   3.469  20.895  0.00  0.00    +0.000 C 
ATOM     18  O   UNL     1       1.295   4.621  20.060  0.00  0.00    +0.000 OA
ENDBRANCH  11  18
ENDBRANCH   5  14
ENDBRANCH   1  10
BRANCH   3  19
ATOM     19  C   UNL     1       8.318   7.576  18.837  0.00  0.00    +0.000 C 
BRANCH  19  20
ATOM     20  C   UNL     1       8.568   9.054  18.652  0.00  0.00    +0.000 A 
ATOM     21  C   UNL     1       9.422   9.751  19.516  0.00  0.00    +0.000 A 
ATOM     22  C   UNL     1       9.690  11.113  19.318  0.00  0.00    +0.000 A 
ATOM     23  C   UNL     1       9.137  11.810  18.236  0.00  0.00    +0.000 A 
ATOM     24  C   UNL     1       8.271  11.105  17.387  0.00  0.00    +0.000 A 
ATOM     25  C   UNL     1       7.971   9.754  17.603  0.00  0.00    +0.000 A 
BRANCH  23  26
ATOM     26  C   UNL     1       9.464  13.216  17.999  0.00  0.00    +0.000 A 
ATOM     27  C   UNL     1      10.568  13.841  17.334  0.00  0.00    +0.000 A 
ATOM     28  C   UNL     1      11.744  13.260  16.642  0.00  0.00    +0.000 C 
ATOM     29  N   UNL     1      10.464  15.176  17.359  0.00  0.00    +0.000 NA
ATOM     30  O   UNL     1       9.295  15.453  18.026  0.00  0.00    +0.000 OA
ATOM     31  C   UNL     1       8.699  14.295  18.411  0.00  0.00    +0.000 A 
ATOM     32  C   UNL     1       7.434  14.478  19.154  0.00  0.00    +0.000 C 
ENDBRANCH  23  26
ENDBRANCH  19  20
ENDBRANCH   3  19
TORSDOF 6
ENDMDL
MODEL 4
REMARK VINA RESULT:      -8.5      0.415      1.694
REMARK  Name = 
REMARK  10 active torsions:
REMARK  status: ('A' for Active; 'I' for Inactive)
REMARK    1  A    between atoms: C_1  and  O_2
REMARK    2  A    between atoms: O_2  and  C_3
REMARK    3  A    between atoms: C_6  and  N_7
REMARK    4  A    between atoms: C_9  and  C_10
REMARK    5  A    between atoms: C_12  and  C_13
REMARK    6  A    between atoms: N_15  and  C_16
REMARK    7  A    between atoms: C_16  and  C_17
REMARK    8  A    between atoms: C_20  and  C_21
REMARK    9  A    between atoms: C_22  and  C_23
REMARK   10  A    between atoms: C_26  and  C_27
REMARK                            x       y       z     vdW  Elec       q    Type
REMARK                         _______ _______ _______ _____ _____    ______ ____
ROOT
ATOM      1  C   UNL     1       7.437   6.018  18.062  0.00  0.00    +0.000 C 
ATOM      2  O   UNL     1       7.738   5.353  19.045  0.00  0.00    +0.000 OA
ATOM      3  N   UNL     1       7.836   7.331  17.933  0.00  0.00    +0.000 N 
ATOM      4  H   UNL     1       7.522   7.875  17.145  0.00  0.00    +0.000 HD
ENDROOT
BRANCH   1  10
ATOM      5  N   UNL     1       5.326   5.146  17.014  0.00  0.00    +0.000 N 
ATOM      6  N   UNL     1       4.960   4.409  15.927  0.00  0.00    +0.000 NA
ATOM      7  C   UNL     1       5.992   4.496  15.087  0.00  0.00    +0.000 A 
ATOM      8  C   UNL     1       5.912   3.898  13.732  0.00  0.00    +0.000 C 
ATOM      9  C   UNL     1       7.085   5.154  15.680  0.00  0.00    +0.000 A 
ATOM     10  C   UNL     1       6.669   5.503  16.955  0.00  0.00    +0.000 A 
BRANCH   5  14
ATOM     11  C   UNL     1       2.389   6.299  19.836  0.00  0.00    +0.000 A 
ATOM     12  C   UNL     1       2.655   7.093  18.717  0.00  0.00    +0.000 A 
ATOM     13  C   UNL     1       3.627   6.712  17.787  0.00  0.00    +0.000 A 
ATOM     14  C   UNL     1       4.329   5.514  17.960  0.00  0.00    +0.000 A 
ATOM     15  C   UNL     1       4.083   4.729  19.094  0.00  0.00    +0.000 A 
ATOM     16  C   UNL     1       3.120   5.125  20.029  0.00  0.00    +0.000 A 
BRANCH  11  18
ATOM     17  C   UNL     1       1.406   8.203  20.836  0.00  0.00    +0.000 C 
ATOM     18  O   UNL     1       1.438   6.788  20.686  0.00  0.00    +0.000 OA
ENDBRANCH  11  18
ENDBRANCH   5  14
ENDBRANCH   1  10
BRANCH   3  19
ATOM     19  C   UNL     1       8.610   7.982  18.961  0.00  0.00    +0.000 C 
BRANCH  19  20
ATOM     20  C   UNL     1       8.731   9.471  18.740  0.00  0.00    +0.000 A 
ATOM     21  C   UNL     1       9.511  10.262  19.593  0.00  0.00    +0.000 A 
ATOM     22  C   UNL     1       9.662  11.636  19.362  0.00  0.00    +0.000 A 
ATOM     23  C   UNL     1       9.062  12.254  18.256  0.00  0.00    +0.000 A 
ATOM     24  C   UNL     1       8.271  11.455  17.418  0.00  0.00    +0.000 A 
ATOM     25  C   UNL     1       8.087  10.089  17.667  0.00  0.00    +0.000 A 
BRANCH  23  26
ATOM     26  C   UNL     1       9.268  13.677  17.986  0.00  0.00    +0.000 A 
ATOM     27  C   UNL     1      10.442  14.425  17.644  0.00  0.00    +0.000 A 
ATOM     28  C   UNL     1      11.843  13.993  17.430  0.00  0.00    +0.000 C 
ATOM     29  N   UNL     1      10.166  15.727  17.490  0.00  0.00    +0.000 NA
ATOM     30  O   UNL     1       8.817  15.858  17.715  0.00  0.00    +0.000 OA
ATOM     31  C   UNL     1       8.279  14.648  18.012  0.00  0.00    +0.000 A 
ATOM     32  C   UNL     1       6.827  14.677  18.288  0.00  0.00    +0.000 C 
ENDBRANCH  23  26
ENDBRANCH  19  20
ENDBRANCH   3  19
TORSDOF 6
ENDMDL
MODEL 5
REMARK VINA RESULT:      -8.3      4.771      9.031
REMARK  Name = 
REMARK  10 active torsions:
REMARK  status: ('A' for Active; 'I' for Inactive)
REMARK    1  A    between atoms: C_1  and  O_2
REMARK    2  A    between atoms: O_2  and  C_3
REMARK    3  A    between atoms: C_6  and  N_7
REMARK    4  A    between atoms: C_9  and  C_10
REMARK    5  A    between atoms: C_12  and  C_13
REMARK    6  A    between atoms: N_15  and  C_16
REMARK    7  A    between atoms: C_16  and  C_17
REMARK    8  A    between atoms: C_20  and  C_21
REMARK    9  A    between atoms: C_22  and  C_23
REMARK   10  A    between atoms: C_26  and  C_27
REMARK                            x       y       z     vdW  Elec       q    Type
REMARK                         _______ _______ _______ _____ _____    ______ ____
ROOT
ATOM      1  C   UNL     1       0.797  10.260  18.885  0.00  0.00    +0.000 C 
ATOM      2  O   UNL     1      -0.091   9.843  18.151  0.00  0.00    +0.000 OA
ATOM      3  N   UNL     1       1.580   9.401  19.625  0.00  0.00    +0.000 N 
ATOM      4  H   UNL     1       2.261   9.772  20.269  0.00  0.00    +0.000 HD
ENDROOT
BRANCH   1  10
ATOM      5  N   UNL     1       0.383  12.574  19.772  0.00  0.00    +0.000 N 
ATOM      6  N   UNL     1       0.739  13.855  19.474  0.00  0.00    +0.000 NA
ATOM      7  C   UNL     1       1.840  13.745  18.729  0.00  0.00    +0.000 A 
ATOM      8  C   UNL     1       2.584  14.954  18.301  0.00  0.00    +0.000 C 
ATOM      9  C   UNL     1       2.114  12.401  18.413  0.00  0.00    +0.000 A 
ATOM     10  C   UNL     1       1.121  11.658  19.030  0.00  0.00    +0.000 A 
BRANCH   5  14
ATOM     11  C   UNL     1      -2.454  11.969  22.855  0.00  0.00    +0.000 A 
ATOM     12  C   UNL     1      -2.793  12.681  21.701  0.00  0.00    +0.000 A 
ATOM     13  C   UNL     1      -1.855  12.882  20.685  0.00  0.00    +0.000 A 
ATOM     14  C   UNL     1      -0.567  12.349  20.807  0.00  0.00    +0.000 A 
ATOM     15  C   UNL     1      -0.216  11.657  21.973  0.00  0.00    +0.000 A 
ATOM     16  C   UNL     1      -1.156  11.474  22.994  0.00  0.00    +0.000 A 
BRANCH  11  18
ATOM     17  C   UNL     1      -4.055  13.083  24.192  0.00  0.00    +0.000 C 
ATOM     18  O   UNL     1      -3.446  11.862  23.788  0.00  0.00    +0.000 OA
ENDBRANCH  11  18
ENDBRANCH   5  14
ENDBRANCH   1  10
BRANCH   3  19
ATOM     19  C   UNL     1       1.372   7.974  19.583  0.00  0.00    +0.000 C 
BRANCH  19  20
ATOM     20  C   UNL     1       2.547   7.234  18.990  0.00  0.00    +0.000 A 
ATOM     21  C   UNL     1       3.200   7.720  17.850  0.00  0.00    +0.000 A 
ATOM     22  C   UNL     1       4.319   7.058  17.325  0.00  0.00    +0.000 A 
ATOM     23  C   UNL     1       4.835   5.909  17.940  0.00  0.00    +0.000 A 
ATOM     24  C   UNL     1       4.163   5.423  19.071  0.00  0.00    +0.000 A 
ATOM     25  C   UNL     1       3.022   6.060  19.576  0.00  0.00    +0.000 A 
BRANCH  23  26
ATOM     26  C   UNL     1       6.036   5.254  17.423  0.00  0.00    +0.000 A 
ATOM     27  C   UNL     1       6.295   4.562  16.195  0.00  0.00    +0.000 A 
ATOM     28  C   UNL     1       5.425   4.300  15.023  0.00  0.00    +0.000 C 
ATOM     29  N   UNL     1       7.554   4.109  16.143  0.00  0.00    +0.000 NA
ATOM     30  O   UNL     1       8.146   4.498  17.320  0.00  0.00    +0.000 OA
ATOM     31  C   UNL     1       7.251   5.175  18.085  0.00  0.00    +0.000 A 
ATOM     32  C   UNL     1       7.782   5.628  19.388  0.00  0.00    +0.000 C 
ENDBRANCH  23  26
ENDBRANCH  19  20
ENDBRANCH   3  19
TORSDOF 6
ENDMDL
MODEL 6
REMARK VINA RESULT:      -8.3      3.228      7.123
REMARK  Name = 
REMARK  10 active torsions:
REMARK  status: ('A' for Active; 'I' for Inactive)
REMARK    1  A    between atoms: C_1  and  O_2
REMARK    2  A    between atoms: O_2  and  C_3
REMARK    3  A    between atoms: C_6  and  N_7
REMARK    4  A    between atoms: C_9  and  C_10
REMARK    5  A    between atoms: C_12  and  C_13
REMARK    6  A    between atoms: N_15  and  C_16
REMARK    7  A    between atoms: C_16  and  C_17
REMARK    8  A    between atoms: C_20  and  C_21
REMARK    9  A    between atoms: C_22  and  C_23
REMARK   10  A    between atoms: C_26  and  C_27
REMARK                            x       y       z     vdW  Elec       q    Type
REMARK                         _______ _______ _______ _____ _____    ______ ____
ROOT
ATOM      1  C   UNL     1       4.659   4.707  18.110  0.00  0.00    +0.000 C 
ATOM      2  O   UNL     1       4.791   3.914  19.034  0.00  0.00    +0.000 OA
ATOM      3  N   UNL     1       3.767   5.755  18.185  0.00  0.00    +0.000 N 
ATOM      4  H   UNL     1       3.630   6.355  17.387  0.00  0.00    +0.000 HD
ENDROOT
BRANCH   1  10
ATOM      5  N   UNL     1       6.364   5.575  16.482  0.00  0.00    +0.000 N 
ATOM      6  N   UNL     1       6.681   5.424  15.165  0.00  0.00    +0.000 NA
ATOM      7  C   UNL     1       6.118   4.271  14.803  0.00  0.00    +0.000 A 
ATOM      8  C   UNL     1       6.341   3.717  13.446  0.00  0.00    +0.000 C 
ATOM      9  C   UNL     1       5.311   3.747  15.830  0.00  0.00    +0.000 A 
ATOM     10  C   UNL     1       5.418   4.639  16.885  0.00  0.00    +0.000 A 
BRANCH   5  14
ATOM     11  C   UNL     1       8.492   8.474  18.714  0.00  0.00    +0.000 A 
ATOM     12  C   UNL     1       7.805   8.831  17.551  0.00  0.00    +0.000 A 
ATOM     13  C   UNL     1       7.105   7.873  16.813  0.00  0.00    +0.000 A 
ATOM     14  C   UNL     1       7.068   6.544  17.250  0.00  0.00    +0.000 A 
ATOM     15  C   UNL     1       7.777   6.177  18.401  0.00  0.00    +0.000 A 
ATOM     16  C   UNL     1       8.490   7.140  19.126  0.00  0.00    +0.000 A 
BRANCH  11  18
ATOM     17  C   UNL     1       9.285  10.698  18.589  0.00  0.00    +0.000 C 
ATOM     18  O   UNL     1       9.161   9.492  19.334  0.00  0.00    +0.000 OA
ENDBRANCH  11  18
ENDBRANCH   5  14
ENDBRANCH   1  10
BRANCH   3  19
ATOM     19  C   UNL     1       2.937   5.949  19.349  0.00  0.00    +0.000 C 
BRANCH  19  20
ATOM     20  C   UNL     1       2.242   7.289  19.348  0.00  0.00    +0.000 A 
ATOM     21  C   UNL     1       2.142   8.046  18.174  0.00  0.00    +0.000 A 
ATOM     22  C   UNL     1       1.457   9.269  18.162  0.00  0.00    +0.000 A 
ATOM     23  C   UNL     1       0.827   9.757  19.315  0.00  0.00    +0.000 A 
ATOM     24  C   UNL     1       0.947   8.998  20.488  0.00  0.00    +0.000 A 
ATOM     25  C   UNL     1       1.663   7.795  20.514  0.00  0.00    +0.000 A 
BRANCH  23  26
ATOM     26  C   UNL     1       0.065  11.005  19.285  0.00  0.00    +0.000 A 
ATOM     27  C   UNL     1      -1.219  11.328  18.736  0.00  0.00    +0.000 A 
ATOM     28  C   UNL     1      -2.215  10.488  18.028  0.00  0.00    +0.000 C 
ATOM     29  N   UNL     1      -1.528  12.616  18.936  0.00  0.00    +0.000 NA
ATOM     30  O   UNL     1      -0.469  13.158  19.622  0.00  0.00    +0.000 OA
ATOM     31  C   UNL     1       0.480  12.210  19.830  0.00  0.00    +0.000 A 
ATOM     32  C   UNL     1       1.676  12.692  20.551  0.00  0.00    +0.000 C 
ENDBRANCH  23  26
ENDBRANCH  19  20
ENDBRANCH   3  19
TORSDOF 6
ENDMDL
MODEL 7
REMARK VINA RESULT:      -8.3      0.262      1.250
REMARK  Name = 
REMARK  10 active torsions:
REMARK  status: ('A' for Active; 'I' for Inactive)
REMARK    1  A    between atoms: C_1  and  O_2
REMARK    2  A    between atoms: O_2  and  C_3
REMARK    3  A    between atoms: C_6  and  N_7
REMARK    4  A    between atoms: C_9  and  C_10
REMARK    5  A    between atoms: C_12  and  C_13
REMARK    6  A    between atoms: N_15  and  C_16
REMARK    7  A    between atoms: C_16  and  C_17
REMARK    8  A    between atoms: C_20  and  C_21
REMARK    9  A    between atoms: C_22  and  C_23
REMARK   10  A    between atoms: C_26  and  C_27
REMARK                            x       y       z     vdW  Elec       q    Type
REMARK                         _______ _______ _______ _____ _____    ______ ____
ROOT
ATOM      1  C   UNL     1       7.420   6.077  18.038  0.00  0.00    +0.000 C 
ATOM      2  O   UNL     1       7.763   5.376  18.982  0.00  0.00    +0.000 OA
ATOM      3  N   UNL     1       7.793   7.401  17.954  0.00  0.00    +0.000 N 
ATOM      4  H   UNL     1       7.445   7.973  17.200  0.00  0.00    +0.000 HD
ENDROOT
BRANCH   1  10
ATOM      5  N   UNL     1       5.269   5.307  16.994  0.00  0.00    +0.000 N 
ATOM      6  N   UNL     1       4.866   4.584  15.910  0.00  0.00    +0.000 NA
ATOM      7  C   UNL     1       5.900   4.615  15.069  0.00  0.00    +0.000 A 
ATOM      8  C   UNL     1       5.791   4.017  13.717  0.00  0.00    +0.000 C 
ATOM      9  C   UNL     1       7.025   5.221  15.660  0.00  0.00    +0.000 A 
ATOM     10  C   UNL     1       6.627   5.596  16.933  0.00  0.00    +0.000 A 
BRANCH   5  14
ATOM     11  C   UNL     1       2.392   6.619  19.808  0.00  0.00    +0.000 A 
ATOM     12  C   UNL     1       2.658   7.366  18.657  0.00  0.00    +0.000 A 
ATOM     13  C   UNL     1       3.610   6.933  17.730  0.00  0.00    +0.000 A 
ATOM     14  C   UNL     1       4.291   5.729  17.938  0.00  0.00    +0.000 A 
ATOM     15  C   UNL     1       4.045   4.991  19.103  0.00  0.00    +0.000 A 
ATOM     16  C   UNL     1       3.102   5.439  20.035  0.00  0.00    +0.000 A 
BRANCH  11  18
ATOM     17  C   UNL     1       1.261   8.562  20.541  0.00  0.00    +0.000 C 
ATOM     18  O   UNL     1       1.461   7.158  20.651  0.00  0.00    +0.000 OA
ENDBRANCH  11  18
ENDBRANCH   5  14
ENDBRANCH   1  10
BRANCH   3  19
ATOM     19  C   UNL     1       8.586   8.022  18.986  0.00  0.00    +0.000 C 
BRANCH  19  20
ATOM     20  C   UNL     1       8.790   9.499  18.752  0.00  0.00    +0.000 A 
ATOM     21  C   UNL     1       8.141  10.156  17.698  0.00  0.00    +0.000 A 
ATOM     22  C   UNL     1       8.293  11.536  17.507  0.00  0.00    +0.000 A 
ATOM     23  C   UNL     1       9.074  12.305  18.380  0.00  0.00    +0.000 A 
ATOM     24  C   UNL     1       9.732  11.635  19.422  0.00  0.00    +0.000 A 
ATOM     25  C   UNL     1       9.612  10.250  19.593  0.00  0.00    +0.000 A 
BRANCH  23  26
ATOM     26  C   UNL     1       9.185  13.754  18.212  0.00  0.00    +0.000 A 
ATOM     27  C   UNL     1       8.340  14.832  18.632  0.00  0.00    +0.000 A 
ATOM     28  C   UNL     1       7.072  14.834  19.401  0.00  0.00    +0.000 C 
ATOM     29  N   UNL     1       8.832  16.018  18.251  0.00  0.00    +0.000 NA
ATOM     30  O   UNL     1      10.004  15.748  17.589  0.00  0.00    +0.000 OA
ATOM     31  C   UNL     1      10.219  14.407  17.559  0.00  0.00    +0.000 A 
ATOM     32  C   UNL     1      11.452  14.002  16.852  0.00  0.00    +0.000 C 
ENDBRANCH  23  26
ENDBRANCH  19  20
ENDBRANCH   3  19
TORSDOF 6
ENDMDL
MODEL 8
REMARK VINA RESULT:      -8.3      1.096      2.110
REMARK  Name = 
REMARK  10 active torsions:
REMARK  status: ('A' for Active; 'I' for Inactive)
REMARK    1  A    between atoms: C_1  and  O_2
REMARK    2  A    between atoms: O_2  and  C_3
REMARK    3  A    between atoms: C_6  and  N_7
REMARK    4  A    between atoms: C_9  and  C_10
REMARK    5  A    between atoms: C_12  and  C_13
REMARK    6  A    between atoms: N_15  and  C_16
REMARK    7  A    between atoms: C_16  and  C_17
REMARK    8  A    between atoms: C_20  and  C_21
REMARK    9  A    between atoms: C_22  and  C_23
REMARK   10  A    between atoms: C_26  and  C_27
REMARK                            x       y       z     vdW  Elec       q    Type
REMARK                         _______ _______ _______ _____ _____    ______ ____
ROOT
ATOM      1  C   UNL     1       7.316   5.870  18.082  0.00  0.00    +0.000 C 
ATOM      2  O   UNL     1       7.449   5.276  19.145  0.00  0.00    +0.000 OA
ATOM      3  N   UNL     1       7.811   7.144  17.905  0.00  0.00    +0.000 N 
ATOM      4  H   UNL     1       7.633   7.636  17.043  0.00  0.00    +0.000 HD
ENDROOT
BRANCH   1  10
ATOM      5  N   UNL     1       5.466   4.596  16.957  0.00  0.00    +0.000 N 
ATOM      6  N   UNL     1       5.259   3.924  15.789  0.00  0.00    +0.000 NA
ATOM      7  C   UNL     1       6.191   4.384  14.954  0.00  0.00    +0.000 A 
ATOM      8  C   UNL     1       6.211   3.955  13.535  0.00  0.00    +0.000 C 
ATOM      9  C   UNL     1       7.097   5.236  15.614  0.00  0.00    +0.000 A 
ATOM     10  C   UNL     1       6.662   5.305  16.927  0.00  0.00    +0.000 A 
BRANCH   5  14
ATOM     11  C   UNL     1       2.422   4.457  19.895  0.00  0.00    +0.000 A 
ATOM     12  C   UNL     1       3.236   3.347  19.657  0.00  0.00    +0.000 A 
ATOM     13  C   UNL     1       4.239   3.392  18.685  0.00  0.00    +0.000 A 
ATOM     14  C   UNL     1       4.451   4.567  17.954  0.00  0.00    +0.000 A 
ATOM     15  C   UNL     1       3.621   5.674  18.172  0.00  0.00    +0.000 A 
ATOM     16  C   UNL     1       2.608   5.615  19.137  0.00  0.00    +0.000 A 
BRANCH  11  18
ATOM     17  C   UNL     1       1.578   3.107  21.643  0.00  0.00    +0.000 C 
ATOM     18  O   UNL     1       1.461   4.283  20.850  0.00  0.00    +0.000 OA
ENDBRANCH  11  18
ENDBRANCH   5  14
ENDBRANCH   1  10
BRANCH   3  19
ATOM     19  C   UNL     1       8.489   7.839  18.972  0.00  0.00    +0.000 C 
BRANCH  19  20
ATOM     20  C   UNL     1       8.673   9.309  18.682  0.00  0.00    +0.000 A 
ATOM     21  C   UNL     1       8.026   9.914  17.597  0.00  0.00    +0.000 A 
ATOM     22  C   UNL     1       8.160  11.288  17.355  0.00  0.00    +0.000 A 
ATOM     23  C   UNL     1       8.921  12.102  18.204  0.00  0.00    +0.000 A 
ATOM     24  C   UNL     1       9.577  11.483  19.278  0.00  0.00    +0.000 A 
ATOM     25  C   UNL     1       9.476  10.104  19.502  0.00  0.00    +0.000 A 
BRANCH  23  26
ATOM     26  C   UNL     1       9.012  13.545  17.981  0.00  0.00    +0.000 A 
ATOM     27  C   UNL     1      10.138  14.423  17.853  0.00  0.00    +0.000 A 
ATOM     28  C   UNL     1      11.595  14.150  17.884  0.00  0.00    +0.000 C 
ATOM     29  N   UNL     1       9.751  15.691  17.660  0.00  0.00    +0.000 NA
ATOM     30  O   UNL     1       8.378  15.671  17.648  0.00  0.00    +0.000 OA
ATOM     31  C   UNL     1       7.933  14.403  17.840  0.00  0.00    +0.000 A 
ATOM     32  C   UNL     1       6.461  14.269  17.860  0.00  0.00    +0.000 C 
ENDBRANCH  23  26
ENDBRANCH  19  20
ENDBRANCH   3  19
TORSDOF 6
ENDMDL
MODEL 9
REMARK VINA RESULT:      -8.3      5.690      9.360
REMARK  Name = 
REMARK  10 active torsions:
REMARK  status: ('A' for Active; 'I' for Inactive)
REMARK    1  A    between atoms: C_1  and  O_2
REMARK    2  A    between atoms: O_2  and  C_3
REMARK    3  A    between atoms: C_6  and  N_7
REMARK    4  A    between atoms: C_9  and  C_10
REMARK    5  A    between atoms: C_12  and  C_13
REMARK    6  A    between atoms: N_15  and  C_16
REMARK    7  A    between atoms: C_16  and  C_17
REMARK    8  A    between atoms: C_20  and  C_21
REMARK    9  A    between atoms: C_22  and  C_23
REMARK   10  A    between atoms: C_26  and  C_27
REMARK                            x       y       z     vdW  Elec       q    Type
REMARK                         _______ _______ _______ _____ _____    ______ ____
ROOT
ATOM      1  C   UNL     1       2.534   7.225  19.116  0.00  0.00    +0.000 C 
ATOM      2  O   UNL     1       3.114   7.532  18.082  0.00  0.00    +0.000 OA
ATOM      3  N   UNL     1       1.836   8.157  19.853  0.00  0.00    +0.000 N 
ATOM      4  H   UNL     1       1.422   7.893  20.733  0.00  0.00    +0.000 HD
ENDROOT
BRANCH   1  10
ATOM      5  N   UNL     1       3.206   4.804  19.121  0.00  0.00    +0.000 N 
ATOM      6  N   UNL     1       2.748   3.623  19.624  0.00  0.00    +0.000 NA
ATOM      7  C   UNL     1       1.930   3.964  20.620  0.00  0.00    +0.000 A 
ATOM      8  C   UNL     1       1.318   2.925  21.483  0.00  0.00    +0.000 C 
ATOM      9  C   UNL     1       1.734   5.357  20.670  0.00  0.00    +0.000 A 
ATOM     10  C   UNL     1       2.506   5.884  19.647  0.00  0.00    +0.000 A 
BRANCH   5  14
ATOM     11  C   UNL     1       6.545   4.699  16.522  0.00  0.00    +0.000 A 
ATOM     12  C   UNL     1       5.252   4.494  16.032  0.00  0.00    +0.000 A 
ATOM     13  C   UNL     1       4.151   4.527  16.892  0.00  0.00    +0.000 A 
ATOM     14  C   UNL     1       4.335   4.788  18.254  0.00  0.00    +0.000 A 
ATOM     15  C   UNL     1       5.631   4.968  18.752  0.00  0.00    +0.000 A 
ATOM     16  C   UNL     1       6.731   4.918  17.888  0.00  0.00    +0.000 A 
BRANCH  11  18
ATOM     17  C   UNL     1       7.148   4.819  14.238  0.00  0.00    +0.000 C 
ATOM     18  O   UNL     1       7.542   4.617  15.590  0.00  0.00    +0.000 OA
ENDBRANCH  11  18
ENDBRANCH   5  14
ENDBRANCH   1  10
BRANCH   3  19
ATOM     19  C   UNL     1       1.776   9.540  19.446  0.00  0.00    +0.000 C 
BRANCH  19  20
ATOM     20  C   UNL     1       0.374   9.985  19.109  0.00  0.00    +0.000 A 
ATOM     21  C   UNL     1      -0.314  10.882  19.936  0.00  0.00    +0.000 A 
ATOM     22  C   UNL     1      -1.598  11.331  19.599  0.00  0.00    +0.000 A 
ATOM     23  C   UNL     1      -2.220  10.921  18.413  0.00  0.00    +0.000 A 
ATOM     24  C   UNL     1      -1.528  10.011  17.600  0.00  0.00    +0.000 A 
ATOM     25  C   UNL     1      -0.261   9.531  17.951  0.00  0.00    +0.000 A 
BRANCH  23  26
ATOM     26  C   UNL     1      -3.537  11.436  18.036  0.00  0.00    +0.000 A 
ATOM     27  C   UNL     1      -4.254  11.410  16.795  0.00  0.00    +0.000 A 
ATOM     28  C   UNL     1      -3.902  10.826  15.479  0.00  0.00    +0.000 C 
ATOM     29  N   UNL     1      -5.443  12.016  16.904  0.00  0.00    +0.000 NA
ATOM     30  O   UNL     1      -5.535  12.440  18.207  0.00  0.00    +0.000 OA
ATOM     31  C   UNL     1      -4.407  12.103  18.883  0.00  0.00    +0.000 A 
ATOM     32  C   UNL     1      -4.394  12.527  20.299  0.00  0.00    +0.000 C 
ENDBRANCH  23  26
ENDBRANCH  19  20
ENDBRANCH   3  19
TORSDOF 6
ENDMDL
