MODEL 1
REMARK VINA RESULT:      -7.1      0.000      0.000
REMARK  Name = 
REMARK  6 active torsions:
REMARK  status: ('A' for Active; 'I' for Inactive)
REMARK    1  A    between atoms: C_1  and  C_2
REMARK    2  A    between atoms: C_2  and  N_3
REMARK    3  A    between atoms: N_3  and  C_4
REMARK    4  A    between atoms: N_3  and  S_13
REMARK    5  A    between atoms: C_4  and  C_5
REMARK    6  A    between atoms: S_13  and  C_16
REMARK                            x       y       z     vdW  Elec       q    Type
REMARK                         _______ _______ _______ _____ _____    ______ ____
ROOT
ATOM      1  N   UNL     1       5.000   4.152  16.677  0.00  0.00    +0.000 NA
ENDROOT
BRANCH   1   2
ATOM      2  S   UNL     1       5.598   5.193  17.936  0.00  0.00    +0.000 S 
ATOM      3  O   UNL     1       5.834   4.386  19.108  0.00  0.00    +0.000 OA
ATOM      4  O   UNL     1       6.631   6.013  17.336  0.00  0.00    +0.000 OA
BRANCH   2   5
ATOM      5  C   UNL     1       4.221   6.254  18.316  0.00  0.00    +0.000 A 
ATOM      6  C   UNL     1       3.896   7.299  17.443  0.00  0.00    +0.000 A 
ATOM      7  C   UNL     1       2.831   8.144  17.759  0.00  0.00    +0.000 A 
ATOM      8  C   UNL     1       2.101   7.930  18.925  0.00  0.00    +0.000 A 
ATOM      9  F   UNL     1       1.082   8.746  19.223  0.00  0.00    +0.000 F 
ATOM     10  C   UNL     1       2.412   6.883  19.788  0.00  0.00    +0.000 A 
ATOM     11  C   UNL     1       3.478   6.036  19.485  0.00  0.00    +0.000 A 
ENDBRANCH   2   5
ENDBRANCH   1   2
BRANCH   1  13
ATOM     12  C   UNL     1       5.772   4.358  14.298  0.00  0.00    +0.000 C 
ATOM     13  C   UNL     1       6.050   3.772  15.675  0.00  0.00    +0.000 C 
ENDBRANCH   1  13
BRANCH   1  14
ATOM     14  C   UNL     1       4.357   2.931  17.282  0.00  0.00    +0.000 C 
BRANCH  14  15
ATOM     15  C   UNL     1       2.859   2.963  17.560  0.00  0.00    +0.000 C 
ATOM     16  O   UNL     1       2.064   3.195  16.647  0.00  0.00    +0.000 OA
ATOM     17  N   UNL     1       2.451   2.864  18.889  0.00  0.00    +0.000 N 
ATOM     18  C   UNL     1       1.017   2.946  19.183  0.00  0.00    +0.000 C 
ATOM     19  C   UNL     1       0.763   3.427  20.617  0.00  0.00    +0.000 C 
ATOM     20  O   UNL     1       1.493   2.643  21.575  0.00  0.00    +0.000 OA
ATOM     21  C   UNL     1       2.900   2.713  21.312  0.00  0.00    +0.000 C 
ATOM     22  C   UNL     1       3.230   2.176  19.917  0.00  0.00    +0.000 C 
ENDBRANCH  14  15
ENDBRANCH   1  14
TORSDOF 5
ENDMDL
MODEL 2
REMARK VINA RESULT:      -7.0      0.080      1.040
REMARK  Name = 
REMARK  6 active torsions:
REMARK  status: ('A' for Active; 'I' for Inactive)
REMARK    1  A    between atoms: C_1  and  C_2
REMARK    2  A    between atoms: C_2  and  N_3
REMARK    3  A    between atoms: N_3  and  C_4
REMARK    4  A    between atoms: N_3  and  S_13
REMARK    5  A    between atoms: C_4  and  C_5
REMARK    6  A    between atoms: S_13  and  C_16
REMARK                            x       y       z     vdW  Elec       q    Type
REMARK                         _______ _______ _______ _____ _____    ______ ____
ROOT
ATOM      1  N   UNL     1       5.006   4.200  16.654  0.00  0.00    +0.000 NA
ENDROOT
BRANCH   1   2
ATOM      2  S   UNL     1       5.590   5.188  17.961  0.00  0.00    +0.000 S 
ATOM      3  O   UNL     1       5.770   4.342  19.116  0.00  0.00    +0.000 OA
ATOM      4  O   UNL     1       6.662   5.998  17.418  0.00  0.00    +0.000 OA
BRANCH   2   5
ATOM      5  C   UNL     1       4.229   6.272  18.331  0.00  0.00    +0.000 A 
ATOM      6  C   UNL     1       3.474   6.057  19.491  0.00  0.00    +0.000 A 
ATOM      7  C   UNL     1       2.391   6.896  19.764  0.00  0.00    +0.000 A 
ATOM      8  C   UNL     1       2.085   7.936  18.891  0.00  0.00    +0.000 A 
ATOM      9  F   UNL     1       1.043   8.734  19.156  0.00  0.00    +0.000 F 
ATOM     10  C   UNL     1       2.842   8.162  17.744  0.00  0.00    +0.000 A 
ATOM     11  C   UNL     1       3.923   7.326  17.459  0.00  0.00    +0.000 A 
ENDBRANCH   2   5
ENDBRANCH   1   2
BRANCH   1  13
ATOM     12  C   UNL     1       5.663   4.181  14.232  0.00  0.00    +0.000 C 
ATOM     13  C   UNL     1       6.072   3.844  15.660  0.00  0.00    +0.000 C 
ENDBRANCH   1  13
BRANCH   1  14
ATOM     14  C   UNL     1       4.339   2.965  17.202  0.00  0.00    +0.000 C 
BRANCH  14  15
ATOM     15  C   UNL     1       2.847   3.024  17.511  0.00  0.00    +0.000 C 
ATOM     16  O   UNL     1       2.040   3.299  16.620  0.00  0.00    +0.000 OA
ATOM     17  N   UNL     1       2.463   2.898  18.844  0.00  0.00    +0.000 N 
ATOM     18  C   UNL     1       1.037   3.004  19.169  0.00  0.00    +0.000 C 
ATOM     19  C   UNL     1       0.823   3.452  20.621  0.00  0.00    +0.000 C 
ATOM     20  O   UNL     1       1.552   2.626  21.542  0.00  0.00    +0.000 OA
ATOM     21  C   UNL     1       2.955   2.671  21.254  0.00  0.00    +0.000 C 
ATOM     22  C   UNL     1       3.246   2.164  19.838  0.00  0.00    +0.000 C 
ENDBRANCH  14  15
ENDBRANCH   1  14
TORSDOF 5
ENDMDL
MODEL 3
REMARK VINA RESULT:      -6.8      3.203      5.078
REMARK  Name = 
REMARK  6 active torsions:
REMARK  status: ('A' for Active; 'I' for Inactive)
REMARK    1  A    between atoms: C_1  and  C_2
REMARK    2  A    between atoms: C_2  and  N_3
REMARK    3  A    between atoms: N_3  and  C_4
REMARK    4  A    between atoms: N_3  and  S_13
REMARK    5  A    between atoms: C_4  and  C_5
REMARK    6  A    between atoms: S_13  and  C_16
REMARK                            x       y       z     vdW  Elec       q    Type
REMARK                         _______ _______ _______ _____ _____    ______ ____
ROOT
ATOM      1  N   UNL     1       6.313   4.827  17.641  0.00  0.00    +0.000 NA
ENDROOT
BRANCH   1   2
ATOM      2  S   UNL     1       5.955   6.016  16.423  0.00  0.00    +0.000 S 
ATOM      3  O   UNL     1       4.538   6.283  16.461  0.00  0.00    +0.000 OA
ATOM      4  O   UNL     1       6.947   7.063  16.567  0.00  0.00    +0.000 OA
BRANCH   2   5
ATOM      5  C   UNL     1       6.275   5.178  14.886  0.00  0.00    +0.000 A 
ATOM      6  C   UNL     1       5.360   4.228  14.418  0.00  0.00    +0.000 A 
ATOM      7  C   UNL     1       5.628   3.555  13.224  0.00  0.00    +0.000 A 
ATOM      8  C   UNL     1       6.789   3.844  12.513  0.00  0.00    +0.000 A 
ATOM      9  F   UNL     1       7.042   3.192  11.371  0.00  0.00    +0.000 F 
ATOM     10  C   UNL     1       7.695   4.798  12.969  0.00  0.00    +0.000 A 
ATOM     11  C   UNL     1       7.439   5.473  14.163  0.00  0.00    +0.000 A 
ENDBRANCH   2   5
ENDBRANCH   1   2
BRANCH   1  13
ATOM     12  C   UNL     1       7.962   5.625  19.356  0.00  0.00    +0.000 C 
ATOM     13  C   UNL     1       7.750   4.835  18.072  0.00  0.00    +0.000 C 
ENDBRANCH   1  13
BRANCH   1  14
ATOM     14  C   UNL     1       5.391   5.004  18.819  0.00  0.00    +0.000 C 
BRANCH  14  15
ATOM     15  C   UNL     1       4.646   3.782  19.347  0.00  0.00    +0.000 C 
ATOM     16  O   UNL     1       5.248   2.922  19.993  0.00  0.00    +0.000 OA
ATOM     17  N   UNL     1       3.321   3.618  18.951  0.00  0.00    +0.000 N 
ATOM     18  C   UNL     1       2.603   2.423  19.405  0.00  0.00    +0.000 C 
ATOM     19  C   UNL     1       1.451   2.064  18.457  0.00  0.00    +0.000 C 
ATOM     20  O   UNL     1       0.587   3.189  18.227  0.00  0.00    +0.000 OA
ATOM     21  C   UNL     1       1.323   4.279  17.657  0.00  0.00    +0.000 C 
ATOM     22  C   UNL     1       2.448   4.735  18.591  0.00  0.00    +0.000 C 
ENDBRANCH  14  15
ENDBRANCH   1  14
TORSDOF 5
ENDMDL
MODEL 4
REMARK VINA RESULT:      -6.7      3.418      5.578
REMARK  Name = 
REMARK  6 active torsions:
REMARK  status: ('A' for Active; 'I' for Inactive)
REMARK    1  A    between atoms: C_1  and  C_2
REMARK    2  A    between atoms: C_2  and  N_3
REMARK    3  A    between atoms: N_3  and  C_4
REMARK    4  A    between atoms: N_3  and  S_13
REMARK    5  A    between atoms: C_4  and  C_5
REMARK    6  A    between atoms: S_13  and  C_16
REMARK                            x       y       z     vdW  Elec       q    Type
REMARK                         _______ _______ _______ _____ _____    ______ ____
ROOT
ATOM      1  N   UNL     1       3.321   4.972  18.814  0.00  0.00    +0.000 NA
ENDROOT
BRANCH   1   2
ATOM      2  S   UNL     1       4.984   4.491  18.983  0.00  0.00    +0.000 S 
ATOM      3  O   UNL     1       5.676   5.523  19.717  0.00  0.00    +0.000 OA
ATOM      4  O   UNL     1       4.972   3.108  19.412  0.00  0.00    +0.000 OA
BRANCH   2   5
ATOM      5  C   UNL     1       5.622   4.534  17.321  0.00  0.00    +0.000 A 
ATOM      6  C   UNL     1       4.755   4.302  16.246  0.00  0.00    +0.000 A 
ATOM      7  C   UNL     1       5.264   4.312  14.947  0.00  0.00    +0.000 A 
ATOM      8  C   UNL     1       6.617   4.563  14.736  0.00  0.00    +0.000 A 
ATOM      9  F   UNL     1       7.101   4.567  13.487  0.00  0.00    +0.000 F 
ATOM     10  C   UNL     1       7.480   4.807  15.802  0.00  0.00    +0.000 A 
ATOM     11  C   UNL     1       6.982   4.795  17.105  0.00  0.00    +0.000 A 
ENDBRANCH   2   5
ENDBRANCH   1   2
BRANCH   1  13
ATOM     12  C   UNL     1       1.610   4.125  20.443  0.00  0.00    +0.000 C 
ATOM     13  C   UNL     1       2.352   3.873  19.137  0.00  0.00    +0.000 C 
ENDBRANCH   1  13
BRANCH   1  14
ATOM     14  C   UNL     1       3.053   6.197  19.649  0.00  0.00    +0.000 C 
BRANCH  14  15
ATOM     15  C   UNL     1       2.357   7.384  18.993  0.00  0.00    +0.000 C 
ATOM     16  O   UNL     1       2.468   7.574  17.780  0.00  0.00    +0.000 OA
ATOM     17  N   UNL     1       1.725   8.300  19.831  0.00  0.00    +0.000 N 
ATOM     18  C   UNL     1       1.094   9.477  19.223  0.00  0.00    +0.000 C 
ATOM     19  C   UNL     1       0.998  10.640  20.219  0.00  0.00    +0.000 C 
ATOM     20  O   UNL     1       0.372  10.234  21.447  0.00  0.00    +0.000 OA
ATOM     21  C   UNL     1       1.113   9.171  22.060  0.00  0.00    +0.000 C 
ATOM     22  C   UNL     1       1.183   7.946  21.143  0.00  0.00    +0.000 C 
ENDBRANCH  14  15
ENDBRANCH   1  14
TORSDOF 5
ENDMDL
MODEL 5
REMARK VINA RESULT:      -6.6      3.168      4.915
REMARK  Name = 
REMARK  6 active torsions:
REMARK  status: ('A' for Active; 'I' for Inactive)
REMARK    1  A    between atoms: C_1  and  C_2
REMARK    2  A    between atoms: C_2  and  N_3
REMARK    3  A    between atoms: N_3  and  C_4
REMARK    4  A    between atoms: N_3  and  S_13
REMARK    5  A    between atoms: C_4  and  C_5
REMARK    6  A    between atoms: S_13  and  C_16
REMARK                            x       y       z     vdW  Elec       q    Type
REMARK                         _______ _______ _______ _____ _____    ______ ____
ROOT
ATOM      1  N   UNL     1       6.427   4.756  17.347  0.00  0.00    +0.000 NA
ENDROOT
BRANCH   1   2
ATOM      2  S   UNL     1       6.503   5.967  16.100  0.00  0.00    +0.000 S 
ATOM      3  O   UNL     1       5.256   6.692  16.106  0.00  0.00    +0.000 OA
ATOM      4  O   UNL     1       7.785   6.625  16.242  0.00  0.00    +0.000 OA
BRANCH   2   5
ATOM      5  C   UNL     1       6.541   5.032  14.586  0.00  0.00    +0.000 A 
ATOM      6  C   UNL     1       7.587   5.237  13.678  0.00  0.00    +0.000 A 
ATOM      7  C   UNL     1       7.599   4.520  12.481  0.00  0.00    +0.000 A 
ATOM      8  C   UNL     1       6.584   3.606  12.211  0.00  0.00    +0.000 A 
ATOM      9  F   UNL     1       6.600   2.923  11.059  0.00  0.00    +0.000 F 
ATOM     10  C   UNL     1       5.550   3.389  13.118  0.00  0.00    +0.000 A 
ATOM     11  C   UNL     1       5.526   4.104  14.316  0.00  0.00    +0.000 A 
ENDBRANCH   2   5
ENDBRANCH   1   2
BRANCH   1  13
ATOM     12  C   UNL     1       7.325   5.635  19.520  0.00  0.00    +0.000 C 
ATOM     13  C   UNL     1       7.602   4.795  18.281  0.00  0.00    +0.000 C 
ENDBRANCH   1  13
BRANCH   1  14
ATOM     14  C   UNL     1       5.129   4.875  18.101  0.00  0.00    +0.000 C 
BRANCH  14  15
ATOM     15  C   UNL     1       4.196   3.669  18.135  0.00  0.00    +0.000 C 
ATOM     16  O   UNL     1       4.345   2.749  17.327  0.00  0.00    +0.000 OA
ATOM     17  N   UNL     1       3.109   3.723  19.004  0.00  0.00    +0.000 N 
ATOM     18  C   UNL     1       2.171   2.596  19.012  0.00  0.00    +0.000 C 
ATOM     19  C   UNL     1       0.782   3.025  19.505  0.00  0.00    +0.000 C 
ATOM     20  O   UNL     1       0.856   3.708  20.766  0.00  0.00    +0.000 OA
ATOM     21  C   UNL     1       1.681   4.876  20.656  0.00  0.00    +0.000 C 
ATOM     22  C   UNL     1       3.107   4.508  20.238  0.00  0.00    +0.000 C 
ENDBRANCH  14  15
ENDBRANCH   1  14
TORSDOF 5
ENDMDL
MODEL 6
REMARK VINA RESULT:      -6.6      3.249      4.901
REMARK  Name = 
REMARK  6 active torsions:
REMARK  status: ('A' for Active; 'I' for Inactive)
REMARK    1  A    between atoms: C_1  and  C_2
REMARK    2  A    between atoms: C_2  and  N_3
REMARK    3  A    between atoms: N_3  and  C_4
REMARK    4  A    between atoms: N_3  and  S_13
REMARK    5  A    between atoms: C_4  and  C_5
REMARK    6  A    between atoms: S_13  and  C_16
REMARK                            x       y       z     vdW  Elec       q    Type
REMARK                         _______ _______ _______ _____ _____    ______ ____
ROOT
ATOM      1  N   UNL     1       6.432   4.692  17.474  0.00  0.00    +0.000 NA
ENDROOT
BRANCH   1   2
ATOM      2  S   UNL     1       6.156   5.932  16.285  0.00  0.00    +0.000 S 
ATOM      3  O   UNL     1       4.761   6.294  16.332  0.00  0.00    +0.000 OA
ATOM      4  O   UNL     1       7.217   6.905  16.452  0.00  0.00    +0.000 OA
BRANCH   2   5
ATOM      5  C   UNL     1       6.418   5.110  14.728  0.00  0.00    +0.000 A 
ATOM      6  C   UNL     1       5.501   4.143  14.299  0.00  0.00    +0.000 A 
ATOM      7  C   UNL     1       5.723   3.483  13.089  0.00  0.00    +0.000 A 
ATOM      8  C   UNL     1       6.841   3.802  12.323  0.00  0.00    +0.000 A 
ATOM      9  F   UNL     1       7.051   3.163  11.165  0.00  0.00    +0.000 F 
ATOM     10  C   UNL     1       7.748   4.773  12.740  0.00  0.00    +0.000 A 
ATOM     11  C   UNL     1       7.537   5.435  13.950  0.00  0.00    +0.000 A 
ENDBRANCH   2   5
ENDBRANCH   1   2
BRANCH   1  13
ATOM     12  C   UNL     1       7.510   5.632  19.536  0.00  0.00    +0.000 C 
ATOM     13  C   UNL     1       7.714   4.873  18.232  0.00  0.00    +0.000 C 
ENDBRANCH   1  13
BRANCH   1  14
ATOM     14  C   UNL     1       5.254   4.607  18.409  0.00  0.00    +0.000 C 
BRANCH  14  15
ATOM     15  C   UNL     1       4.232   3.497  18.189  0.00  0.00    +0.000 C 
ATOM     16  O   UNL     1       4.329   2.749  17.213  0.00  0.00    +0.000 OA
ATOM     17  N   UNL     1       3.131   3.460  19.042  0.00  0.00    +0.000 N 
ATOM     18  C   UNL     1       2.110   2.433  18.814  0.00  0.00    +0.000 C 
ATOM     19  C   UNL     1       0.746   2.862  19.371  0.00  0.00    +0.000 C 
ATOM     20  O   UNL     1       0.841   3.269  20.746  0.00  0.00    +0.000 OA
ATOM     21  C   UNL     1       1.755   4.365  20.882  0.00  0.00    +0.000 C 
ATOM     22  C   UNL     1       3.159   3.978  20.409  0.00  0.00    +0.000 C 
ENDBRANCH  14  15
ENDBRANCH   1  14
TORSDOF 5
ENDMDL
MODEL 7
REMARK VINA RESULT:      -6.6      3.488      5.550
REMARK  Name = 
REMARK  6 active torsions:
REMARK  status: ('A' for Active; 'I' for Inactive)
REMARK    1  A    between atoms: C_1  and  C_2
REMARK    2  A    between atoms: C_2  and  N_3
REMARK    3  A    between atoms: N_3  and  C_4
REMARK    4  A    between atoms: N_3  and  S_13
REMARK    5  A    between atoms: C_4  and  C_5
REMARK    6  A    between atoms: S_13  and  C_16
REMARK                            x       y       z     vdW  Elec       q    Type
REMARK                         _______ _______ _______ _____ _____    ______ ____
ROOT
ATOM      1  N   UNL     1       3.316   5.247  18.605  0.00  0.00    +0.000 NA
ENDROOT
BRANCH   1   2
ATOM      2  S   UNL     1       4.881   4.525  18.836  0.00  0.00    +0.000 S 
ATOM      3  O   UNL     1       5.673   5.422  19.642  0.00  0.00    +0.000 OA
ATOM      4  O   UNL     1       4.647   3.145  19.212  0.00  0.00    +0.000 OA
BRANCH   2   5
ATOM      5  C   UNL     1       5.607   4.526  17.211  0.00  0.00    +0.000 A 
ATOM      6  C   UNL     1       6.969   4.814  17.066  0.00  0.00    +0.000 A 
ATOM      7  C   UNL     1       7.528   4.838  15.787  0.00  0.00    +0.000 A 
ATOM      8  C   UNL     1       6.730   4.565  14.679  0.00  0.00    +0.000 A 
ATOM      9  F   UNL     1       7.271   4.593  13.454  0.00  0.00    +0.000 F 
ATOM     10  C   UNL     1       5.378   4.264  14.820  0.00  0.00    +0.000 A 
ATOM     11  C   UNL     1       4.809   4.242  16.094  0.00  0.00    +0.000 A 
ENDBRANCH   2   5
ENDBRANCH   1   2
BRANCH   1  13
ATOM     12  C   UNL     1       1.380   3.962  17.657  0.00  0.00    +0.000 C 
ATOM     13  C   UNL     1       2.182   4.310  18.903  0.00  0.00    +0.000 C 
ENDBRANCH   1  13
BRANCH   1  14
ATOM     14  C   UNL     1       3.207   6.510  19.420  0.00  0.00    +0.000 C 
BRANCH  14  15
ATOM     15  C   UNL     1       2.358   7.653  18.877  0.00  0.00    +0.000 C 
ATOM     16  O   UNL     1       2.356   7.903  17.669  0.00  0.00    +0.000 OA
ATOM     17  N   UNL     1       1.714   8.471  19.803  0.00  0.00    +0.000 N 
ATOM     18  C   UNL     1       0.935   9.608  19.302  0.00  0.00    +0.000 C 
ATOM     19  C   UNL     1       0.813  10.714  20.357  0.00  0.00    +0.000 C 
ATOM     20  O   UNL     1       0.325  10.201  21.607  0.00  0.00    +0.000 OA
ATOM     21  C   UNL     1       1.203   9.186  22.110  0.00  0.00    +0.000 C 
ATOM     22  C   UNL     1       1.311   8.013  21.132  0.00  0.00    +0.000 C 
ENDBRANCH  14  15
ENDBRANCH   1  14
TORSDOF 5
ENDMDL
MODEL 8
REMARK VINA RESULT:      -6.5      3.377      5.250
REMARK  Name = 
REMARK  6 active torsions:
REMARK  status: ('A' for Active; 'I' for Inactive)
REMARK    1  A    between atoms: C_1  and  C_2
REMARK    2  A    between atoms: C_2  and  N_3
REMARK    3  A    between atoms: N_3  and  C_4
REMARK    4  A    between atoms: N_3  and  S_13
REMARK    5  A    between atoms: C_4  and  C_5
REMARK    6  A    between atoms: S_13  and  C_16
REMARK                            x       y       z     vdW  Elec       q    Type
REMARK                         _______ _______ _______ _____ _____    ______ ____
ROOT
ATOM      1  N   UNL     1       2.487   4.887  19.189  0.00  0.00    +0.000 NA
ENDROOT
BRANCH   1   2
ATOM      2  S   UNL     1       3.809   3.879  18.679  0.00  0.00    +0.000 S 
ATOM      3  O   UNL     1       4.297   3.164  19.833  0.00  0.00    +0.000 OA
ATOM      4  O   UNL     1       3.370   3.203  17.474  0.00  0.00    +0.000 OA
BRANCH   2   5
ATOM      5  C   UNL     1       5.084   5.031  18.216  0.00  0.00    +0.000 A 
ATOM      6  C   UNL     1       4.966   5.742  17.015  0.00  0.00    +0.000 A 
ATOM      7  C   UNL     1       5.980   6.626  16.645  0.00  0.00    +0.000 A 
ATOM      8  C   UNL     1       7.085   6.798  17.475  0.00  0.00    +0.000 A 
ATOM      9  F   UNL     1       8.057   7.645  17.112  0.00  0.00    +0.000 F 
ATOM     10  C   UNL     1       7.199   6.104  18.677  0.00  0.00    +0.000 A 
ATOM     11  C   UNL     1       6.193   5.214  19.054  0.00  0.00    +0.000 A 
ENDBRANCH   2   5
ENDBRANCH   1   2
BRANCH   1  13
ATOM     12  C   UNL     1       0.806   3.144  19.846  0.00  0.00    +0.000 C 
ATOM     13  C   UNL     1       1.689   4.293  20.312  0.00  0.00    +0.000 C 
ENDBRANCH   1  13
BRANCH   1  14
ATOM     14  C   UNL     1       2.996   6.259  19.549  0.00  0.00    +0.000 C 
BRANCH  14  15
ATOM     15  C   UNL     1       2.267   7.474  18.985  0.00  0.00    +0.000 C 
ATOM     16  O   UNL     1       2.323   7.724  17.779  0.00  0.00    +0.000 OA
ATOM     17  N   UNL     1       1.672   8.345  19.894  0.00  0.00    +0.000 N 
ATOM     18  C   UNL     1       1.012   9.547  19.375  0.00  0.00    +0.000 C 
ATOM     19  C   UNL     1       0.958  10.659  20.431  0.00  0.00    +0.000 C 
ATOM     20  O   UNL     1       0.390  10.190  21.663  0.00  0.00    +0.000 OA
ATOM     21  C   UNL     1       1.159   9.101  22.189  0.00  0.00    +0.000 C 
ATOM     22  C   UNL     1       1.191   7.924  21.210  0.00  0.00    +0.000 C 
ENDBRANCH  14  15
ENDBRANCH   1  14
TORSDOF 5
ENDMDL
MODEL 9
REMARK VINA RESULT:      -6.5      3.298      5.198
REMARK  Name = 
REMARK  6 active torsions:
REMARK  status: ('A' for Active; 'I' for Inactive)
REMARK    1  A    between atoms: C_1  and  C_2
REMARK    2  A    between atoms: C_2  and  N_3
REMARK    3  A    between atoms: N_3  and  C_4
REMARK    4  A    between atoms: N_3  and  S_13
REMARK    5  A    between atoms: C_4  and  C_5
REMARK    6  A    between atoms: S_13  and  C_16
REMARK                            x       y       z     vdW  Elec       q    Type
REMARK                         _______ _______ _______ _____ _____    ______ ____
ROOT
ATOM      1  N   UNL     1       2.927   4.601  19.279  0.00  0.00    +0.000 NA
ENDROOT
BRANCH   1   2
ATOM      2  S   UNL     1       4.294   3.689  18.707  0.00  0.00    +0.000 S 
ATOM      3  O   UNL     1       4.873   2.998  19.833  0.00  0.00    +0.000 OA
ATOM      4  O   UNL     1       3.856   2.997  17.512  0.00  0.00    +0.000 OA
BRANCH   2   5
ATOM      5  C   UNL     1       5.470   4.930  18.212  0.00  0.00    +0.000 A 
ATOM      6  C   UNL     1       6.529   5.255  19.069  0.00  0.00    +0.000 A 
ATOM      7  C   UNL     1       7.434   6.247  18.687  0.00  0.00    +0.000 A 
ATOM      8  C   UNL     1       7.281   6.887  17.460  0.00  0.00    +0.000 A 
ATOM      9  F   UNL     1       8.151   7.840  17.101  0.00  0.00    +0.000 F 
ATOM     10  C   UNL     1       6.238   6.557  16.599  0.00  0.00    +0.000 A 
ATOM     11  C   UNL     1       5.324   5.570  16.974  0.00  0.00    +0.000 A 
ENDBRANCH   2   5
ENDBRANCH   1   2
BRANCH   1  13
ATOM     12  C   UNL     1       0.825   3.552  20.161  0.00  0.00    +0.000 C 
ATOM     13  C   UNL     1       2.255   3.977  20.467  0.00  0.00    +0.000 C 
ENDBRANCH   1  13
BRANCH   1  14
ATOM     14  C   UNL     1       3.342   6.020  19.571  0.00  0.00    +0.000 C 
BRANCH  14  15
ATOM     15  C   UNL     1       2.567   7.153  18.907  0.00  0.00    +0.000 C 
ATOM     16  O   UNL     1       2.656   7.334  17.691  0.00  0.00    +0.000 OA
ATOM     17  N   UNL     1       1.886   8.038  19.740  0.00  0.00    +0.000 N 
ATOM     18  C   UNL     1       1.178   9.165  19.124  0.00  0.00    +0.000 C 
ATOM     19  C   UNL     1       1.018  10.333  20.107  0.00  0.00    +0.000 C 
ATOM     20  O   UNL     1       0.428   9.904  21.345  0.00  0.00    +0.000 OA
ATOM     21  C   UNL     1       1.239   8.896  21.963  0.00  0.00    +0.000 C 
ATOM     22  C   UNL     1       1.378   7.667  21.060  0.00  0.00    +0.000 C 
ENDBRANCH  14  15
ENDBRANCH   1  14
TORSDOF 5
ENDMDL
