MODEL 1
REMARK VINA RESULT:      -8.6      0.000      0.000
REMARK  Name = 
REMARK  8 active torsions:
REMARK  status: ('A' for Active; 'I' for Inactive)
REMARK    1  A    between atoms: C_1  and  O_2
REMARK    2  A    between atoms: O_2  and  C_3
REMARK    3  A    between atoms: C_6  and  C_7
REMARK    4  A    between atoms: C_7  and  C_9
REMARK    5  A    between atoms: C_12  and  C_13
REMARK    6  A    between atoms: C_13  and  N_14
REMARK    7  A    between atoms: C_27  and  O_28
REMARK    8  A    between atoms: O_28  and  C_29
REMARK                            x       y       z     vdW  Elec       q    Type
REMARK                         _______ _______ _______ _____ _____    ______ ____
ROOT
ATOM      1  C   UNL     1       1.415   9.086  19.014  0.00  0.00    +0.000 A 
ATOM      2  C   UNL     1       1.982   8.301  18.013  0.00  0.00    +0.000 A 
ATOM      3  C   UNL     1       2.453   7.020  18.302  0.00  0.00    +0.000 A 
ATOM      4  C   UNL     1       2.384   6.507  19.608  0.00  0.00    +0.000 A 
ATOM      5  C   UNL     1       1.789   7.289  20.608  0.00  0.00    +0.000 A 
ATOM      6  C   UNL     1       1.280   8.560  20.306  0.00  0.00    +0.000 A 
ENDROOT
BRANCH   1   7
ATOM      7  C   UNL     1       0.924  10.443  18.654  0.00  0.00    +0.000 C 
ATOM      8  O   UNL     1       1.744  11.318  18.378  0.00  0.00    +0.000 OA
BRANCH   7  12
ATOM      9  C   UNL     1      -3.221  11.562  18.489  0.00  0.00    +0.000 A 
ATOM     10  C   UNL     1      -2.381  12.026  19.518  0.00  0.00    +0.000 A 
ATOM     11  C   UNL     1      -1.040  11.654  19.569  0.00  0.00    +0.000 A 
ATOM     12  C   UNL     1      -0.523  10.778  18.616  0.00  0.00    +0.000 A 
ATOM     13  C   UNL     1      -1.384  10.213  17.674  0.00  0.00    +0.000 A 
ATOM     14  C   UNL     1      -2.725  10.608  17.585  0.00  0.00    +0.000 A 
BRANCH   9  16
ATOM     15  C   UNL     1      -5.079  12.590  19.545  0.00  0.00    +0.000 C 
ATOM     16  O   UNL     1      -4.515  11.988  18.379  0.00  0.00    +0.000 OA
ENDBRANCH   9  16
BRANCH  14  17
ATOM     17  O   UNL     1      -3.363   9.977  16.554  0.00  0.00    +0.000 OA
ATOM     18  C   UNL     1      -2.806  10.036  15.253  0.00  0.00    +0.000 C 
ENDBRANCH  14  17
ENDBRANCH   7  12
ENDBRANCH   1   7
BRANCH   4  19
ATOM     19  C   UNL     1       2.897   5.113  19.910  0.00  0.00    +0.000 C 
BRANCH  19  20
ATOM     20  N   UNL     1       4.144   4.709  19.273  0.00  0.00    +0.000 NA
ATOM     21  C   UNL     1       5.217   5.701  19.247  0.00  0.00    +0.000 C 
ATOM     22  C   UNL     1       6.541   5.009  18.820  0.00  0.00    +0.000 C 
ATOM     23  C   UNL     1       6.366   4.551  17.393  0.00  0.00    +0.000 A 
ATOM     24  C   UNL     1       7.406   4.608  16.467  0.00  0.00    +0.000 A 
ATOM     25  C   UNL     1       7.095   4.657  15.112  0.00  0.00    +0.000 A 
ATOM     26  C   UNL     1       5.760   4.637  14.700  0.00  0.00    +0.000 A 
ATOM     27  C   UNL     1       4.741   4.400  15.626  0.00  0.00    +0.000 A 
ATOM     28  C   UNL     1       5.051   4.283  16.979  0.00  0.00    +0.000 A 
ATOM     29  C   UNL     1       4.022   3.932  18.034  0.00  0.00    +0.000 C 
ENDBRANCH  19  20
ENDBRANCH   4  19
TORSDOF 6
ENDMDL
MODEL 2
REMARK VINA RESULT:      -8.5      0.808      1.816
REMARK  Name = 
REMARK  8 active torsions:
REMARK  status: ('A' for Active; 'I' for Inactive)
REMARK    1  A    between atoms: C_1  and  O_2
REMARK    2  A    between atoms: O_2  and  C_3
REMARK    3  A    between atoms: C_6  and  C_7
REMARK    4  A    between atoms: C_7  and  C_9
REMARK    5  A    between atoms: C_12  and  C_13
REMARK    6  A    between atoms: C_13  and  N_14
REMARK    7  A    between atoms: C_27  and  O_28
REMARK    8  A    between atoms: O_28  and  C_29
REMARK                            x       y       z     vdW  Elec       q    Type
REMARK                         _______ _______ _______ _____ _____    ______ ____
ROOT
ATOM      1  C   UNL     1       1.390   9.071  19.033  0.00  0.00    +0.000 A 
ATOM      2  C   UNL     1       1.983   8.296  18.040  0.00  0.00    +0.000 A 
ATOM      3  C   UNL     1       2.474   7.024  18.336  0.00  0.00    +0.000 A 
ATOM      4  C   UNL     1       2.400   6.512  19.642  0.00  0.00    +0.000 A 
ATOM      5  C   UNL     1       1.778   7.284  20.634  0.00  0.00    +0.000 A 
ATOM      6  C   UNL     1       1.249   8.545  20.324  0.00  0.00    +0.000 A 
ENDROOT
BRANCH   1   7
ATOM      7  C   UNL     1       0.878  10.418  18.665  0.00  0.00    +0.000 C 
ATOM      8  O   UNL     1       1.681  11.337  18.509  0.00  0.00    +0.000 OA
BRANCH   7  12
ATOM      9  C   UNL     1      -3.344  11.066  18.201  0.00  0.00    +0.000 A 
ATOM     10  C   UNL     1      -2.650  10.162  17.375  0.00  0.00    +0.000 A 
ATOM     11  C   UNL     1      -1.281   9.963  17.528  0.00  0.00    +0.000 A 
ATOM     12  C   UNL     1      -0.571  10.692  18.480  0.00  0.00    +0.000 A 
ATOM     13  C   UNL     1      -1.231  11.682  19.209  0.00  0.00    +0.000 A 
ATOM     14  C   UNL     1      -2.616  11.867  19.095  0.00  0.00    +0.000 A 
BRANCH   9  16
ATOM     15  C   UNL     1      -5.187  11.984  17.025  0.00  0.00    +0.000 C 
ATOM     16  O   UNL     1      -4.702  11.207  18.120  0.00  0.00    +0.000 OA
ENDBRANCH   9  16
BRANCH  14  17
ATOM     17  O   UNL     1      -3.058  12.842  19.945  0.00  0.00    +0.000 OA
ATOM     18  C   UNL     1      -2.387  13.050  21.175  0.00  0.00    +0.000 C 
ENDBRANCH  14  17
ENDBRANCH   7  12
ENDBRANCH   1   7
BRANCH   4  19
ATOM     19  C   UNL     1       2.934   5.128  19.952  0.00  0.00    +0.000 C 
BRANCH  19  20
ATOM     20  N   UNL     1       4.184   4.737  19.312  0.00  0.00    +0.000 NA
ATOM     21  C   UNL     1       5.239   5.747  19.263  0.00  0.00    +0.000 C 
ATOM     22  C   UNL     1       6.572   5.074  18.837  0.00  0.00    +0.000 C 
ATOM     23  C   UNL     1       6.394   4.592  17.417  0.00  0.00    +0.000 A 
ATOM     24  C   UNL     1       7.427   4.655  16.482  0.00  0.00    +0.000 A 
ATOM     25  C   UNL     1       7.105   4.678  15.129  0.00  0.00    +0.000 A 
ATOM     26  C   UNL     1       5.767   4.629  14.728  0.00  0.00    +0.000 A 
ATOM     27  C   UNL     1       4.759   4.387  15.665  0.00  0.00    +0.000 A 
ATOM     28  C   UNL     1       5.081   4.295  17.017  0.00  0.00    +0.000 A 
ATOM     29  C   UNL     1       4.067   3.940  18.085  0.00  0.00    +0.000 C 
ENDBRANCH  19  20
ENDBRANCH   4  19
TORSDOF 6
ENDMDL
MODEL 3
REMARK VINA RESULT:      -8.2      3.860      9.699
REMARK  Name = 
REMARK  8 active torsions:
REMARK  status: ('A' for Active; 'I' for Inactive)
REMARK    1  A    between atoms: C_1  and  O_2
REMARK    2  A    between atoms: O_2  and  C_3
REMARK    3  A    between atoms: C_6  and  C_7
REMARK    4  A    between atoms: C_7  and  C_9
REMARK    5  A    between atoms: C_12  and  C_13
REMARK    6  A    between atoms: C_13  and  N_14
REMARK    7  A    between atoms: C_27  and  O_28
REMARK    8  A    between atoms: O_28  and  C_29
REMARK                            x       y       z     vdW  Elec       q    Type
REMARK                         _______ _______ _______ _____ _____    ______ ____
ROOT
ATOM      1  C   UNL     1       2.742   7.178  18.928  0.00  0.00    +0.000 A 
ATOM      2  C   UNL     1       2.081   7.508  20.108  0.00  0.00    +0.000 A 
ATOM      3  C   UNL     1       1.268   8.640  20.169  0.00  0.00    +0.000 A 
ATOM      4  C   UNL     1       1.119   9.478  19.051  0.00  0.00    +0.000 A 
ATOM      5  C   UNL     1       1.764   9.129  17.857  0.00  0.00    +0.000 A 
ATOM      6  C   UNL     1       2.548   7.968  17.787  0.00  0.00    +0.000 A 
ENDROOT
BRANCH   1   7
ATOM      7  C   UNL     1       3.593   5.958  18.912  0.00  0.00    +0.000 C 
ATOM      8  O   UNL     1       3.459   5.128  19.811  0.00  0.00    +0.000 OA
BRANCH   7  12
ATOM      9  C   UNL     1       6.399   5.302  15.726  0.00  0.00    +0.000 A 
ATOM     10  C   UNL     1       5.258   4.492  15.871  0.00  0.00    +0.000 A 
ATOM     11  C   UNL     1       4.357   4.707  16.910  0.00  0.00    +0.000 A 
ATOM     12  C   UNL     1       4.599   5.708  17.848  0.00  0.00    +0.000 A 
ATOM     13  C   UNL     1       5.795   6.425  17.784  0.00  0.00    +0.000 A 
ATOM     14  C   UNL     1       6.693   6.248  16.722  0.00  0.00    +0.000 A 
BRANCH   9  16
ATOM     15  C   UNL     1       6.763   4.361  13.580  0.00  0.00    +0.000 C 
ATOM     16  O   UNL     1       7.246   5.158  14.662  0.00  0.00    +0.000 OA
ENDBRANCH   9  16
BRANCH  14  17
ATOM     17  O   UNL     1       7.760   7.096  16.827  0.00  0.00    +0.000 OA
ATOM     18  C   UNL     1       7.667   8.229  17.671  0.00  0.00    +0.000 C 
ENDBRANCH  14  17
ENDBRANCH   7  12
ENDBRANCH   1   7
BRANCH   4  19
ATOM     19  C   UNL     1       0.231  10.704  19.129  0.00  0.00    +0.000 C 
BRANCH  19  20
ATOM     20  N   UNL     1       0.795  11.966  18.665  0.00  0.00    +0.000 NA
ATOM     21  C   UNL     1       2.019  12.418  19.324  0.00  0.00    +0.000 C 
ATOM     22  C   UNL     1       2.633  13.590  18.512  0.00  0.00    +0.000 C 
ATOM     23  C   UNL     1       1.666  14.747  18.595  0.00  0.00    +0.000 A 
ATOM     24  C   UNL     1       2.102  16.067  18.697  0.00  0.00    +0.000 A 
ATOM     25  C   UNL     1       1.249  17.013  19.254  0.00  0.00    +0.000 A 
ATOM     26  C   UNL     1      -0.025  16.636  19.689  0.00  0.00    +0.000 A 
ATOM     27  C   UNL     1      -0.511  15.355  19.417  0.00  0.00    +0.000 A 
ATOM     28  C   UNL     1       0.316  14.420  18.799  0.00  0.00    +0.000 A 
ATOM     29  C   UNL     1      -0.162  13.043  18.383  0.00  0.00    +0.000 C 
ENDBRANCH  19  20
ENDBRANCH   4  19
TORSDOF 6
ENDMDL
MODEL 4
REMARK VINA RESULT:      -8.2      0.904      2.139
REMARK  Name = 
REMARK  8 active torsions:
REMARK  status: ('A' for Active; 'I' for Inactive)
REMARK    1  A    between atoms: C_1  and  O_2
REMARK    2  A    between atoms: O_2  and  C_3
REMARK    3  A    between atoms: C_6  and  C_7
REMARK    4  A    between atoms: C_7  and  C_9
REMARK    5  A    between atoms: C_12  and  C_13
REMARK    6  A    between atoms: C_13  and  N_14
REMARK    7  A    between atoms: C_27  and  O_28
REMARK    8  A    between atoms: O_28  and  C_29
REMARK                            x       y       z     vdW  Elec       q    Type
REMARK                         _______ _______ _______ _____ _____    ______ ____
ROOT
ATOM      1  C   UNL     1       1.405   9.254  19.020  0.00  0.00    +0.000 A 
ATOM      2  C   UNL     1       1.311   8.745  20.313  0.00  0.00    +0.000 A 
ATOM      3  C   UNL     1       1.727   7.442  20.590  0.00  0.00    +0.000 A 
ATOM      4  C   UNL     1       2.227   6.615  19.570  0.00  0.00    +0.000 A 
ATOM      5  C   UNL     1       2.345   7.140  18.276  0.00  0.00    +0.000 A 
ATOM      6  C   UNL     1       1.964   8.462  18.008  0.00  0.00    +0.000 A 
ENDROOT
BRANCH   1   7
ATOM      7  C   UNL     1       0.953  10.650  18.776  0.00  0.00    +0.000 C 
ATOM      8  O   UNL     1       1.798  11.527  18.601  0.00  0.00    +0.000 OA
BRANCH   7  12
ATOM      9  C   UNL     1      -3.241  11.584  18.742  0.00  0.00    +0.000 A 
ATOM     10  C   UNL     1      -2.702  10.619  17.872  0.00  0.00    +0.000 A 
ATOM     11  C   UNL     1      -1.341  10.326  17.885  0.00  0.00    +0.000 A 
ATOM     12  C   UNL     1      -0.485  11.021  18.737  0.00  0.00    +0.000 A 
ATOM     13  C   UNL     1      -0.995  12.069  19.505  0.00  0.00    +0.000 A 
ATOM     14  C   UNL     1      -2.368  12.349  19.534  0.00  0.00    +0.000 A 
BRANCH   9  16
ATOM     15  C   UNL     1      -5.412  10.932  18.045  0.00  0.00    +0.000 C 
ATOM     16  O   UNL     1      -4.586  11.819  18.801  0.00  0.00    +0.000 OA
ENDBRANCH   9  16
BRANCH  14  17
ATOM     17  O   UNL     1      -2.650  13.369  20.399  0.00  0.00    +0.000 OA
ATOM     18  C   UNL     1      -1.996  13.416  21.654  0.00  0.00    +0.000 C 
ENDBRANCH  14  17
ENDBRANCH   7  12
ENDBRANCH   1   7
BRANCH   4  19
ATOM     19  C   UNL     1       2.678   5.203  19.884  0.00  0.00    +0.000 C 
BRANCH  19  20
ATOM     20  N   UNL     1       3.949   4.768  19.319  0.00  0.00    +0.000 NA
ATOM     21  C   UNL     1       5.039   5.742  19.332  0.00  0.00    +0.000 C 
ATOM     22  C   UNL     1       6.371   5.022  18.986  0.00  0.00    +0.000 C 
ATOM     23  C   UNL     1       6.261   4.542  17.559  0.00  0.00    +0.000 A 
ATOM     24  C   UNL     1       7.349   4.567  16.686  0.00  0.00    +0.000 A 
ATOM     25  C   UNL     1       7.108   4.597  15.317  0.00  0.00    +0.000 A 
ATOM     26  C   UNL     1       5.795   4.592  14.837  0.00  0.00    +0.000 A 
ATOM     27  C   UNL     1       4.726   4.387  15.713  0.00  0.00    +0.000 A 
ATOM     28  C   UNL     1       4.965   4.288  17.082  0.00  0.00    +0.000 A 
ATOM     29  C   UNL     1       3.877   3.971  18.089  0.00  0.00    +0.000 C 
ENDBRANCH  19  20
ENDBRANCH   4  19
TORSDOF 6
ENDMDL
MODEL 5
REMARK VINA RESULT:      -8.2      3.731      9.981
REMARK  Name = 
REMARK  8 active torsions:
REMARK  status: ('A' for Active; 'I' for Inactive)
REMARK    1  A    between atoms: C_1  and  O_2
REMARK    2  A    between atoms: O_2  and  C_3
REMARK    3  A    between atoms: C_6  and  C_7
REMARK    4  A    between atoms: C_7  and  C_9
REMARK    5  A    between atoms: C_12  and  C_13
REMARK    6  A    between atoms: C_13  and  N_14
REMARK    7  A    between atoms: C_27  and  O_28
REMARK    8  A    between atoms: O_28  and  C_29
REMARK                            x       y       z     vdW  Elec       q    Type
REMARK                         _______ _______ _______ _____ _____    ______ ____
ROOT
ATOM      1  C   UNL     1       2.719   7.119  18.985  0.00  0.00    +0.000 A 
ATOM      2  C   UNL     1       2.038   7.469  20.148  0.00  0.00    +0.000 A 
ATOM      3  C   UNL     1       1.256   8.624  20.187  0.00  0.00    +0.000 A 
ATOM      4  C   UNL     1       1.158   9.463  19.064  0.00  0.00    +0.000 A 
ATOM      5  C   UNL     1       1.823   9.094  17.887  0.00  0.00    +0.000 A 
ATOM      6  C   UNL     1       2.576   7.912  17.838  0.00  0.00    +0.000 A 
ENDROOT
BRANCH   1   7
ATOM      7  C   UNL     1       3.537   5.876  18.992  0.00  0.00    +0.000 C 
ATOM      8  O   UNL     1       3.430   5.100  19.941  0.00  0.00    +0.000 OA
BRANCH   7  12
ATOM      9  C   UNL     1       6.152   4.974  15.705  0.00  0.00    +0.000 A 
ATOM     10  C   UNL     1       4.979   4.229  15.930  0.00  0.00    +0.000 A 
ATOM     11  C   UNL     1       4.140   4.524  17.000  0.00  0.00    +0.000 A 
ATOM     12  C   UNL     1       4.477   5.540  17.892  0.00  0.00    +0.000 A 
ATOM     13  C   UNL     1       5.703   6.191  17.749  0.00  0.00    +0.000 A 
ATOM     14  C   UNL     1       6.540   5.934  16.654  0.00  0.00    +0.000 A 
BRANCH   9  16
ATOM     15  C   UNL     1       6.377   3.923  13.591  0.00  0.00    +0.000 C 
ATOM     16  O   UNL     1       6.939   4.752  14.610  0.00  0.00    +0.000 OA
ENDBRANCH   9  16
BRANCH  14  17
ATOM     17  O   UNL     1       7.652   6.727  16.681  0.00  0.00    +0.000 OA
ATOM     18  C   UNL     1       7.665   7.878  17.506  0.00  0.00    +0.000 C 
ENDBRANCH  14  17
ENDBRANCH   7  12
ENDBRANCH   1   7
BRANCH   4  19
ATOM     19  C   UNL     1       0.303  10.714  19.118  0.00  0.00    +0.000 C 
BRANCH  19  20
ATOM     20  N   UNL     1       0.022  11.274  20.434  0.00  0.00    +0.000 NA
ATOM     21  C   UNL     1      -1.377  11.577  20.730  0.00  0.00    +0.000 C 
ATOM     22  C   UNL     1      -1.526  11.866  22.249  0.00  0.00    +0.000 C 
ATOM     23  C   UNL     1      -0.757  13.132  22.540  0.00  0.00    +0.000 A 
ATOM     24  C   UNL     1      -1.214  14.078  23.456  0.00  0.00    +0.000 A 
ATOM     25  C   UNL     1      -0.776  15.393  23.336  0.00  0.00    +0.000 A 
ATOM     26  C   UNL     1       0.115  15.743  22.317  0.00  0.00    +0.000 A 
ATOM     27  C   UNL     1       0.699  14.754  21.522  0.00  0.00    +0.000 A 
ATOM     28  C   UNL     1       0.315  13.424  21.681  0.00  0.00    +0.000 A 
ATOM     29  C   UNL     1       0.967  12.281  20.930  0.00  0.00    +0.000 C 
ENDBRANCH  19  20
ENDBRANCH   4  19
TORSDOF 6
ENDMDL
MODEL 6
REMARK VINA RESULT:      -8.2      3.218      9.303
REMARK  Name = 
REMARK  8 active torsions:
REMARK  status: ('A' for Active; 'I' for Inactive)
REMARK    1  A    between atoms: C_1  and  O_2
REMARK    2  A    between atoms: O_2  and  C_3
REMARK    3  A    between atoms: C_6  and  C_7
REMARK    4  A    between atoms: C_7  and  C_9
REMARK    5  A    between atoms: C_12  and  C_13
REMARK    6  A    between atoms: C_13  and  N_14
REMARK    7  A    between atoms: C_27  and  O_28
REMARK    8  A    between atoms: O_28  and  C_29
REMARK                            x       y       z     vdW  Elec       q    Type
REMARK                         _______ _______ _______ _____ _____    ______ ____
ROOT
ATOM      1  C   UNL     1       2.230   6.879  18.780  0.00  0.00    +0.000 A 
ATOM      2  C   UNL     1       2.183   7.997  17.952  0.00  0.00    +0.000 A 
ATOM      3  C   UNL     1       1.801   9.238  18.462  0.00  0.00    +0.000 A 
ATOM      4  C   UNL     1       1.439   9.379  19.812  0.00  0.00    +0.000 A 
ATOM      5  C   UNL     1       1.514   8.257  20.650  0.00  0.00    +0.000 A 
ATOM      6  C   UNL     1       1.935   7.020  20.143  0.00  0.00    +0.000 A 
ENDROOT
BRANCH   1   7
ATOM      7  C   UNL     1       2.646   5.579  18.190  0.00  0.00    +0.000 C 
ATOM      8  O   UNL     1       1.893   4.611  18.291  0.00  0.00    +0.000 OA
BRANCH   7  12
ATOM      9  C   UNL     1       6.309   5.100  15.996  0.00  0.00    +0.000 A 
ATOM     10  C   UNL     1       5.377   4.050  16.098  0.00  0.00    +0.000 A 
ATOM     11  C   UNL     1       4.196   4.211  16.816  0.00  0.00    +0.000 A 
ATOM     12  C   UNL     1       3.941   5.408  17.481  0.00  0.00    +0.000 A 
ATOM     13  C   UNL     1       4.920   6.402  17.491  0.00  0.00    +0.000 A 
ATOM     14  C   UNL     1       6.097   6.271  16.741  0.00  0.00    +0.000 A 
BRANCH   9  16
ATOM     15  C   UNL     1       7.213   4.755  13.831  0.00  0.00    +0.000 C 
ATOM     16  O   UNL     1       7.431   4.985  15.224  0.00  0.00    +0.000 OA
ENDBRANCH   9  16
BRANCH  14  17
ATOM     17  O   UNL     1       6.881   7.386  16.847  0.00  0.00    +0.000 OA
ATOM     18  C   UNL     1       7.815   7.480  17.907  0.00  0.00    +0.000 C 
ENDBRANCH  14  17
ENDBRANCH   7  12
ENDBRANCH   1   7
BRANCH   4  19
ATOM     19  C   UNL     1       1.029  10.733  20.356  0.00  0.00    +0.000 C 
BRANCH  19  20
ATOM     20  N   UNL     1      -0.158  11.352  19.780  0.00  0.00    +0.000 NA
ATOM     21  C   UNL     1      -1.405  11.194  20.525  0.00  0.00    +0.000 C 
ATOM     22  C   UNL     1      -2.474  12.156  19.940  0.00  0.00    +0.000 C 
ATOM     23  C   UNL     1      -2.771  11.695  18.534  0.00  0.00    +0.000 A 
ATOM     24  C   UNL     1      -4.057  11.740  17.998  0.00  0.00    +0.000 A 
ATOM     25  C   UNL     1      -4.375  10.887  16.947  0.00  0.00    +0.000 A 
ATOM     26  C   UNL     1      -3.411  10.011  16.441  0.00  0.00    +0.000 A 
ATOM     27  C   UNL     1      -2.084  10.102  16.867  0.00  0.00    +0.000 A 
ATOM     28  C   UNL     1      -1.742  11.003  17.873  0.00  0.00    +0.000 A 
ATOM     29  C   UNL     1      -0.314  11.234  18.326  0.00  0.00    +0.000 C 
ENDBRANCH  19  20
ENDBRANCH   4  19
TORSDOF 6
ENDMDL
MODEL 7
REMARK VINA RESULT:      -8.2      3.238      9.325
REMARK  Name = 
REMARK  8 active torsions:
REMARK  status: ('A' for Active; 'I' for Inactive)
REMARK    1  A    between atoms: C_1  and  O_2
REMARK    2  A    between atoms: O_2  and  C_3
REMARK    3  A    between atoms: C_6  and  C_7
REMARK    4  A    between atoms: C_7  and  C_9
REMARK    5  A    between atoms: C_12  and  C_13
REMARK    6  A    between atoms: C_13  and  N_14
REMARK    7  A    between atoms: C_27  and  O_28
REMARK    8  A    between atoms: O_28  and  C_29
REMARK                            x       y       z     vdW  Elec       q    Type
REMARK                         _______ _______ _______ _____ _____    ______ ____
ROOT
ATOM      1  C   UNL     1       1.953   6.986  19.911  0.00  0.00    +0.000 A 
ATOM      2  C   UNL     1       1.379   7.409  21.107  0.00  0.00    +0.000 A 
ATOM      3  C   UNL     1       1.049   8.751  21.296  0.00  0.00    +0.000 A 
ATOM      4  C   UNL     1       1.308   9.703  20.295  0.00  0.00    +0.000 A 
ATOM      5  C   UNL     1       1.861   9.269  19.082  0.00  0.00    +0.000 A 
ATOM      6  C   UNL     1       2.155   7.914  18.880  0.00  0.00    +0.000 A 
ENDROOT
BRANCH   1   7
ATOM      7  C   UNL     1       2.283   5.544  19.756  0.00  0.00    +0.000 C 
ATOM      8  O   UNL     1       1.605   4.712  20.358  0.00  0.00    +0.000 OA
BRANCH   7  12
ATOM      9  C   UNL     1       5.497   4.317  17.183  0.00  0.00    +0.000 A 
ATOM     10  C   UNL     1       4.153   4.147  16.803  0.00  0.00    +0.000 A 
ATOM     11  C   UNL     1       3.117   4.542  17.645  0.00  0.00    +0.000 A 
ATOM     12  C   UNL     1       3.402   5.075  18.900  0.00  0.00    +0.000 A 
ATOM     13  C   UNL     1       4.728   5.122  19.333  0.00  0.00    +0.000 A 
ATOM     14  C   UNL     1       5.784   4.767  18.482  0.00  0.00    +0.000 A 
BRANCH   9  16
ATOM     15  C   UNL     1       6.833   5.002  15.347  0.00  0.00    +0.000 C 
ATOM     16  O   UNL     1       6.523   4.015  16.331  0.00  0.00    +0.000 OA
ENDBRANCH   9  16
BRANCH  14  17
ATOM     17  O   UNL     1       6.995   4.951  19.089  0.00  0.00    +0.000 OA
ATOM     18  C   UNL     1       7.721   6.142  18.845  0.00  0.00    +0.000 C 
ENDBRANCH  14  17
ENDBRANCH   7  12
ENDBRANCH   1   7
BRANCH   4  19
ATOM     19  C   UNL     1       0.943  11.157  20.511  0.00  0.00    +0.000 C 
BRANCH  19  20
ATOM     20  N   UNL     1      -0.247  11.655  19.831  0.00  0.00    +0.000 NA
ATOM     21  C   UNL     1      -1.517  11.500  20.538  0.00  0.00    +0.000 C 
ATOM     22  C   UNL     1      -2.605  12.345  19.821  0.00  0.00    +0.000 C 
ATOM     23  C   UNL     1      -2.815  11.737  18.455  0.00  0.00    +0.000 A 
ATOM     24  C   UNL     1      -4.077  11.662  17.867  0.00  0.00    +0.000 A 
ATOM     25  C   UNL     1      -4.305  10.698  16.891  0.00  0.00    +0.000 A 
ATOM     26  C   UNL     1      -3.276   9.831  16.511  0.00  0.00    +0.000 A 
ATOM     27  C   UNL     1      -1.976  10.034  16.978  0.00  0.00    +0.000 A 
ATOM     28  C   UNL     1      -1.725  11.043  17.905  0.00  0.00    +0.000 A 
ATOM     29  C   UNL     1      -0.332  11.392  18.390  0.00  0.00    +0.000 C 
ENDBRANCH  19  20
ENDBRANCH   4  19
TORSDOF 6
ENDMDL
MODEL 8
REMARK VINA RESULT:      -8.2      6.269      8.956
REMARK  Name = 
REMARK  8 active torsions:
REMARK  status: ('A' for Active; 'I' for Inactive)
REMARK    1  A    between atoms: C_1  and  O_2
REMARK    2  A    between atoms: O_2  and  C_3
REMARK    3  A    between atoms: C_6  and  C_7
REMARK    4  A    between atoms: C_7  and  C_9
REMARK    5  A    between atoms: C_12  and  C_13
REMARK    6  A    between atoms: C_13  and  N_14
REMARK    7  A    between atoms: C_27  and  O_28
REMARK    8  A    between atoms: O_28  and  C_29
REMARK                            x       y       z     vdW  Elec       q    Type
REMARK                         _______ _______ _______ _____ _____    ______ ____
ROOT
ATOM      1  C   UNL     1       7.334   6.489  17.547  0.00  0.00    +0.000 A 
ATOM      2  C   UNL     1       7.258   7.722  16.906  0.00  0.00    +0.000 A 
ATOM      3  C   UNL     1       7.847   8.851  17.475  0.00  0.00    +0.000 A 
ATOM      4  C   UNL     1       8.506   8.771  18.714  0.00  0.00    +0.000 A 
ATOM      5  C   UNL     1       8.604   7.522  19.344  0.00  0.00    +0.000 A 
ATOM      6  C   UNL     1       8.046   6.382  18.750  0.00  0.00    +0.000 A 
ENDROOT
BRANCH   1   7
ATOM      7  C   UNL     1       6.694   5.314  16.898  0.00  0.00    +0.000 C 
ATOM      8  O   UNL     1       7.378   4.586  16.180  0.00  0.00    +0.000 OA
BRANCH   7  12
ATOM      9  C   UNL     1       2.579   4.272  17.564  0.00  0.00    +0.000 A 
ATOM     10  C   UNL     1       3.454   3.396  16.895  0.00  0.00    +0.000 A 
ATOM     11  C   UNL     1       4.784   3.744  16.677  0.00  0.00    +0.000 A 
ATOM     12  C   UNL     1       5.256   4.989  17.086  0.00  0.00    +0.000 A 
ATOM     13  C   UNL     1       4.360   5.910  17.631  0.00  0.00    +0.000 A 
ATOM     14  C   UNL     1       3.028   5.561  17.894  0.00  0.00    +0.000 A 
BRANCH   9  16
ATOM     15  C   UNL     1       1.135   3.016  18.965  0.00  0.00    +0.000 C 
ATOM     16  O   UNL     1       1.295   3.908  17.861  0.00  0.00    +0.000 OA
ENDBRANCH   9  16
BRANCH  14  17
ATOM     17  O   UNL     1       2.351   6.591  18.485  0.00  0.00    +0.000 OA
ATOM     18  C   UNL     1       2.228   6.622  19.895  0.00  0.00    +0.000 C 
ENDBRANCH  14  17
ENDBRANCH   7  12
ENDBRANCH   1   7
BRANCH   4  19
ATOM     19  C   UNL     1       9.144  10.003  19.322  0.00  0.00    +0.000 C 
BRANCH  19  20
ATOM     20  N   UNL     1       9.737  10.969  18.404  0.00  0.00    +0.000 NA
ATOM     21  C   UNL     1      11.080  11.445  18.733  0.00  0.00    +0.000 C 
ATOM     22  C   UNL     1      11.663  12.209  17.513  0.00  0.00    +0.000 C 
ATOM     23  C   UNL     1      10.821  13.447  17.318  0.00  0.00    +0.000 A 
ATOM     24  C   UNL     1      11.378  14.663  16.926  0.00  0.00    +0.000 A 
ATOM     25  C   UNL     1      10.701  15.839  17.230  0.00  0.00    +0.000 A 
ATOM     26  C   UNL     1       9.480  15.787  17.908  0.00  0.00    +0.000 A 
ATOM     27  C   UNL     1       8.851  14.560  18.134  0.00  0.00    +0.000 A 
ATOM     28  C   UNL     1       9.494  13.379  17.771  0.00  0.00    +0.000 A 
ATOM     29  C   UNL     1       8.844  12.015  17.892  0.00  0.00    +0.000 C 
ENDBRANCH  19  20
ENDBRANCH   4  19
TORSDOF 6
ENDMDL
MODEL 9
REMARK VINA RESULT:      -8.1      3.870      9.595
REMARK  Name = 
REMARK  8 active torsions:
REMARK  status: ('A' for Active; 'I' for Inactive)
REMARK    1  A    between atoms: C_1  and  O_2
REMARK    2  A    between atoms: O_2  and  C_3
REMARK    3  A    between atoms: C_6  and  C_7
REMARK    4  A    between atoms: C_7  and  C_9
REMARK    5  A    between atoms: C_12  and  C_13
REMARK    6  A    between atoms: C_13  and  N_14
REMARK    7  A    between atoms: C_27  and  O_28
REMARK    8  A    between atoms: O_28  and  C_29
REMARK                            x       y       z     vdW  Elec       q    Type
REMARK                         _______ _______ _______ _____ _____    ______ ____
ROOT
ATOM      1  C   UNL     1       2.415   7.148  19.223  0.00  0.00    +0.000 A 
ATOM      2  C   UNL     1       2.323   7.968  18.101  0.00  0.00    +0.000 A 
ATOM      3  C   UNL     1       1.605   9.163  18.157  0.00  0.00    +0.000 A 
ATOM      4  C   UNL     1       0.947   9.550  19.337  0.00  0.00    +0.000 A 
ATOM      5  C   UNL     1       1.064   8.736  20.472  0.00  0.00    +0.000 A 
ATOM      6  C   UNL     1       1.819   7.556  20.424  0.00  0.00    +0.000 A 
ENDROOT
BRANCH   1   7
ATOM      7  C   UNL     1       3.195   5.886  19.113  0.00  0.00    +0.000 C 
ATOM      8  O   UNL     1       2.897   4.938  19.839  0.00  0.00    +0.000 OA
BRANCH   7  12
ATOM      9  C   UNL     1       6.375   5.541  16.244  0.00  0.00    +0.000 A 
ATOM     10  C   UNL     1       5.146   4.882  16.054  0.00  0.00    +0.000 A 
ATOM     11  C   UNL     1       4.123   4.994  16.991  0.00  0.00    +0.000 A 
ATOM     12  C   UNL     1       4.322   5.731  18.157  0.00  0.00    +0.000 A 
ATOM     13  C   UNL     1       5.581   6.276  18.410  0.00  0.00    +0.000 A 
ATOM     14  C   UNL     1       6.608   6.207  17.459  0.00  0.00    +0.000 A 
BRANCH   9  16
ATOM     15  C   UNL     1       7.054   4.777  14.105  0.00  0.00    +0.000 C 
ATOM     16  O   UNL     1       7.355   5.511  15.292  0.00  0.00    +0.000 OA
ENDBRANCH   9  16
BRANCH  14  17
ATOM     17  O   UNL     1       7.730   6.859  17.889  0.00  0.00    +0.000 OA
ATOM     18  C   UNL     1       7.872   8.243  17.625  0.00  0.00    +0.000 C 
ENDBRANCH  14  17
ENDBRANCH   7  12
ENDBRANCH   1   7
BRANCH   4  19
ATOM     19  C   UNL     1       0.172  10.852  19.387  0.00  0.00    +0.000 C 
BRANCH  19  20
ATOM     20  N   UNL     1       0.828  12.040  18.854  0.00  0.00    +0.000 NA
ATOM     21  C   UNL     1       1.996  12.526  19.585  0.00  0.00    +0.000 C 
ATOM     22  C   UNL     1       2.734  13.586  18.722  0.00  0.00    +0.000 C 
ATOM     23  C   UNL     1       1.809  14.771  18.582  0.00  0.00    +0.000 A 
ATOM     24  C   UNL     1       2.284  16.082  18.589  0.00  0.00    +0.000 A 
ATOM     25  C   UNL     1       1.416  17.106  18.951  0.00  0.00    +0.000 A 
ATOM     26  C   UNL     1       0.092  16.814  19.289  0.00  0.00    +0.000 A 
ATOM     27  C   UNL     1      -0.414  15.525  19.105  0.00  0.00    +0.000 A 
ATOM     28  C   UNL     1       0.434  14.505  18.678  0.00  0.00    +0.000 A 
ATOM     29  C   UNL     1      -0.053  13.105  18.361  0.00  0.00    +0.000 C 
ENDBRANCH  19  20
ENDBRANCH   4  19
TORSDOF 6
ENDMDL
