MODEL 1
REMARK VINA RESULT:      -8.7      0.000      0.000
REMARK  Name = 
REMARK  6 active torsions:
REMARK  status: ('A' for Active; 'I' for Inactive)
REMARK    1  A    between atoms: C_1  and  C_2
REMARK    2  A    between atoms: C_4  and  C_5
REMARK    3  A    between atoms: C_5  and  N_6
REMARK    4  A    between atoms: C_11  and  C_12
REMARK    5  A    between atoms: C_15  and  O_16
REMARK    6  A    between atoms: O_16  and  C_17
REMARK                            x       y       z     vdW  Elec       q    Type
REMARK                         _______ _______ _______ _____ _____    ______ ____
ROOT
ATOM      1  N   UNL     1       6.121   5.190  17.624  0.00  0.00    +0.000 N 
ATOM      2  N   UNL     1       5.379   4.514  18.579  0.00  0.00    +0.000 NA
ATOM      3  C   UNL     1       4.417   5.340  18.853  0.00  0.00    +0.000 A 
ATOM      4  C   UNL     1       3.308   5.147  19.809  0.00  0.00    +0.000 A 
ATOM      5  C   UNL     1       2.394   6.128  19.915  0.00  0.00    +0.000 A 
ATOM      6  C   UNL     1       2.483   7.356  19.125  0.00  0.00    +0.000 A 
ATOM      7  C   UNL     1       3.517   7.505  18.272  0.00  0.00    +0.000 A 
ATOM      8  N   UNL     1       4.448   6.509  18.162  0.00  0.00    +0.000 N 
ATOM      9  C   UNL     1       5.553   6.440  17.343  0.00  0.00    +0.000 A 
ATOM     10  O   UNL     1       5.945   7.268  16.534  0.00  0.00    +0.000 OA
ENDROOT
BRANCH   6  11
ATOM     11  C   UNL     1       1.493   8.439  19.203  0.00  0.00    +0.000 A 
ATOM     12  C   UNL     1       0.890   8.755  20.422  0.00  0.00    +0.000 A 
ATOM     13  C   UNL     1      -0.084   9.756  20.483  0.00  0.00    +0.000 A 
ATOM     14  C   UNL     1      -0.456  10.466  19.336  0.00  0.00    +0.000 A 
ATOM     15  C   UNL     1       0.133  10.141  18.117  0.00  0.00    +0.000 A 
ATOM     16  C   UNL     1       1.117   9.144  18.053  0.00  0.00    +0.000 A 
BRANCH  14  17
ATOM     17  O   UNL     1      -1.433  11.388  19.546  0.00  0.00    +0.000 OA
BRANCH  17  18
ATOM     18  C   UNL     1      -2.497  11.529  18.618  0.00  0.00    +0.000 C 
ATOM     19  F   UNL     1      -2.153  12.143  17.466  0.00  0.00    +0.000 F 
ATOM     20  F   UNL     1      -3.007  10.312  18.330  0.00  0.00    +0.000 F 
ATOM     21  F   UNL     1      -3.472  12.265  19.200  0.00  0.00    +0.000 F 
ENDBRANCH  17  18
ENDBRANCH  14  17
ENDBRANCH   6  11
BRANCH   1  22
ATOM     22  C   UNL     1       7.247   4.603  16.936  0.00  0.00    +0.000 C 
BRANCH  22  26
ATOM     23  C   UNL     1       5.887   3.453  12.148  0.00  0.00    +0.000 C 
ATOM     24  C   UNL     1       6.450   4.011  13.398  0.00  0.00    +0.000 A 
ATOM     25  C   UNL     1       6.154   3.657  14.733  0.00  0.00    +0.000 A 
ATOM     26  C   UNL     1       6.969   4.468  15.490  0.00  0.00    +0.000 A 
ATOM     27  O   UNL     1       7.701   5.257  14.658  0.00  0.00    +0.000 OA
ATOM     28  N   UNL     1       7.378   4.974  13.344  0.00  0.00    +0.000 NA
ENDBRANCH  22  26
ENDBRANCH   1  22
TORSDOF 5
ENDMDL
MODEL 2
REMARK VINA RESULT:      -8.6      0.178      1.172
REMARK  Name = 
REMARK  6 active torsions:
REMARK  status: ('A' for Active; 'I' for Inactive)
REMARK    1  A    between atoms: C_1  and  C_2
REMARK    2  A    between atoms: C_4  and  C_5
REMARK    3  A    between atoms: C_5  and  N_6
REMARK    4  A    between atoms: C_11  and  C_12
REMARK    5  A    between atoms: C_15  and  O_16
REMARK    6  A    between atoms: O_16  and  C_17
REMARK                            x       y       z     vdW  Elec       q    Type
REMARK                         _______ _______ _______ _____ _____    ______ ____
ROOT
ATOM      1  N   UNL     1       6.184   5.258  17.460  0.00  0.00    +0.000 N 
ATOM      2  N   UNL     1       5.485   4.580  18.446  0.00  0.00    +0.000 NA
ATOM      3  C   UNL     1       4.513   5.389  18.736  0.00  0.00    +0.000 A 
ATOM      4  C   UNL     1       3.436   5.185  19.727  0.00  0.00    +0.000 A 
ATOM      5  C   UNL     1       2.504   6.148  19.845  0.00  0.00    +0.000 A 
ATOM      6  C   UNL     1       2.544   7.366  19.036  0.00  0.00    +0.000 A 
ATOM      7  C   UNL     1       3.549   7.525  18.151  0.00  0.00    +0.000 A 
ATOM      8  N   UNL     1       4.498   6.549  18.028  0.00  0.00    +0.000 N 
ATOM      9  C   UNL     1       5.580   6.492  17.179  0.00  0.00    +0.000 A 
ATOM     10  O   UNL     1       5.931   7.316  16.348  0.00  0.00    +0.000 OA
ENDROOT
BRANCH   6  11
ATOM     11  C   UNL     1       1.532   8.428  19.128  0.00  0.00    +0.000 A 
ATOM     12  C   UNL     1       1.168   9.154  17.992  0.00  0.00    +0.000 A 
ATOM     13  C   UNL     1       0.237  10.192  18.094  0.00  0.00    +0.000 A 
ATOM     14  C   UNL     1      -0.354  10.509  19.322  0.00  0.00    +0.000 A 
ATOM     15  C   UNL     1       0.021   9.796  20.458  0.00  0.00    +0.000 A 
ATOM     16  C   UNL     1       0.946   8.748  20.359  0.00  0.00    +0.000 A 
BRANCH  14  17
ATOM     17  O   UNL     1      -1.218  11.558  19.269  0.00  0.00    +0.000 OA
BRANCH  17  18
ATOM     18  C   UNL     1      -2.428  11.453  18.536  0.00  0.00    +0.000 C 
ATOM     19  F   UNL     1      -2.856  10.187  18.347  0.00  0.00    +0.000 F 
ATOM     20  F   UNL     1      -3.397  12.154  19.165  0.00  0.00    +0.000 F 
ATOM     21  F   UNL     1      -2.235  12.007  17.317  0.00  0.00    +0.000 F 
ENDBRANCH  17  18
ENDBRANCH  14  17
ENDBRANCH   6  11
BRANCH   1  22
ATOM     22  C   UNL     1       7.302   4.685  16.749  0.00  0.00    +0.000 C 
BRANCH  22  26
ATOM     23  C   UNL     1       5.737   3.285  12.092  0.00  0.00    +0.000 C 
ATOM     24  C   UNL     1       6.358   3.903  13.284  0.00  0.00    +0.000 A 
ATOM     25  C   UNL     1       6.107   3.635  14.648  0.00  0.00    +0.000 A 
ATOM     26  C   UNL     1       6.966   4.471  15.324  0.00  0.00    +0.000 A 
ATOM     27  O   UNL     1       7.682   5.193  14.420  0.00  0.00    +0.000 OA
ATOM     28  N   UNL     1       7.302   4.840  13.138  0.00  0.00    +0.000 NA
ENDBRANCH  22  26
ENDBRANCH   1  22
TORSDOF 5
ENDMDL
MODEL 3
REMARK VINA RESULT:      -8.6      4.914      9.166
REMARK  Name = 
REMARK  6 active torsions:
REMARK  status: ('A' for Active; 'I' for Inactive)
REMARK    1  A    between atoms: C_1  and  C_2
REMARK    2  A    between atoms: C_4  and  C_5
REMARK    3  A    between atoms: C_5  and  N_6
REMARK    4  A    between atoms: C_11  and  C_12
REMARK    5  A    between atoms: C_15  and  O_16
REMARK    6  A    between atoms: O_16  and  C_17
REMARK                            x       y       z     vdW  Elec       q    Type
REMARK                         _______ _______ _______ _____ _____    ______ ____
ROOT
ATOM      1  N   UNL     1       1.275   9.106  19.758  0.00  0.00    +0.000 N 
ATOM      2  N   UNL     1       1.436   7.947  20.500  0.00  0.00    +0.000 NA
ATOM      3  C   UNL     1       2.159   7.194  19.729  0.00  0.00    +0.000 A 
ATOM      4  C   UNL     1       2.650   5.828  20.005  0.00  0.00    +0.000 A 
ATOM      5  C   UNL     1       3.416   5.238  19.071  0.00  0.00    +0.000 A 
ATOM      6  C   UNL     1       3.755   5.905  17.814  0.00  0.00    +0.000 A 
ATOM      7  C   UNL     1       3.278   7.146  17.589  0.00  0.00    +0.000 A 
ATOM      8  N   UNL     1       2.498   7.749  18.536  0.00  0.00    +0.000 N 
ATOM      9  C   UNL     1       1.937   9.006  18.527  0.00  0.00    +0.000 A 
ATOM     10  O   UNL     1       2.012   9.859  17.655  0.00  0.00    +0.000 OA
ENDROOT
BRANCH   6  11
ATOM     11  C   UNL     1       4.605   5.296  16.781  0.00  0.00    +0.000 A 
ATOM     12  C   UNL     1       5.274   6.099  15.855  0.00  0.00    +0.000 A 
ATOM     13  C   UNL     1       6.045   5.511  14.849  0.00  0.00    +0.000 A 
ATOM     14  C   UNL     1       6.174   4.121  14.761  0.00  0.00    +0.000 A 
ATOM     15  C   UNL     1       5.494   3.319  15.674  0.00  0.00    +0.000 A 
ATOM     16  C   UNL     1       4.727   3.904  16.691  0.00  0.00    +0.000 A 
BRANCH  14  17
ATOM     17  O   UNL     1       6.933   3.698  13.715  0.00  0.00    +0.000 OA
BRANCH  17  18
ATOM     18  C   UNL     1       6.370   3.593  12.417  0.00  0.00    +0.000 C 
ATOM     19  F   UNL     1       5.023   3.687  12.385  0.00  0.00    +0.000 F 
ATOM     20  F   UNL     1       6.894   4.550  11.620  0.00  0.00    +0.000 F 
ATOM     21  F   UNL     1       6.709   2.388  11.903  0.00  0.00    +0.000 F 
ENDBRANCH  17  18
ENDBRANCH  14  17
ENDBRANCH   6  11
BRANCH   1  22
ATOM     22  C   UNL     1       0.619  10.286  20.270  0.00  0.00    +0.000 C 
BRANCH  22  26
ATOM     23  C   UNL     1      -3.025  11.187  16.804  0.00  0.00    +0.000 C 
ATOM     24  C   UNL     1      -1.939  11.238  17.807  0.00  0.00    +0.000 A 
ATOM     25  C   UNL     1      -1.385  10.178  18.562  0.00  0.00    +0.000 A 
ATOM     26  C   UNL     1      -0.402  10.776  19.317  0.00  0.00    +0.000 A 
ATOM     27  O   UNL     1      -0.374  12.106  19.033  0.00  0.00    +0.000 OA
ATOM     28  N   UNL     1      -1.337  12.400  18.086  0.00  0.00    +0.000 NA
ENDBRANCH  22  26
ENDBRANCH   1  22
TORSDOF 5
ENDMDL
MODEL 4
REMARK VINA RESULT:      -8.6      2.740      3.835
REMARK  Name = 
REMARK  6 active torsions:
REMARK  status: ('A' for Active; 'I' for Inactive)
REMARK    1  A    between atoms: C_1  and  C_2
REMARK    2  A    between atoms: C_4  and  C_5
REMARK    3  A    between atoms: C_5  and  N_6
REMARK    4  A    between atoms: C_11  and  C_12
REMARK    5  A    between atoms: C_15  and  O_16
REMARK    6  A    between atoms: O_16  and  C_17
REMARK                            x       y       z     vdW  Elec       q    Type
REMARK                         _______ _______ _______ _____ _____    ______ ____
ROOT
ATOM      1  N   UNL     1       3.344   5.311  18.902  0.00  0.00    +0.000 N 
ATOM      2  N   UNL     1       3.345   6.331  17.965  0.00  0.00    +0.000 NA
ATOM      3  C   UNL     1       2.635   7.259  18.530  0.00  0.00    +0.000 A 
ATOM      4  C   UNL     1       2.300   8.593  17.990  0.00  0.00    +0.000 A 
ATOM      5  C   UNL     1       1.571   9.416  18.764  0.00  0.00    +0.000 A 
ATOM      6  C   UNL     1       1.107   9.019  20.094  0.00  0.00    +0.000 A 
ATOM      7  C   UNL     1       1.420   7.789  20.549  0.00  0.00    +0.000 A 
ATOM      8  N   UNL     1       2.161   6.949  19.765  0.00  0.00    +0.000 N 
ATOM      9  C   UNL     1       2.613   5.678  20.040  0.00  0.00    +0.000 A 
ATOM     10  O   UNL     1       2.440   5.019  21.054  0.00  0.00    +0.000 OA
ENDROOT
BRANCH   6  11
ATOM     11  C   UNL     1       0.325   9.901  20.971  0.00  0.00    +0.000 A 
ATOM     12  C   UNL     1       0.063  11.219  20.592  0.00  0.00    +0.000 A 
ATOM     13  C   UNL     1      -0.645  12.066  21.449  0.00  0.00    +0.000 A 
ATOM     14  C   UNL     1      -1.115  11.608  22.685  0.00  0.00    +0.000 A 
ATOM     15  C   UNL     1      -0.840  10.299  23.071  0.00  0.00    +0.000 A 
ATOM     16  C   UNL     1      -0.140   9.443  22.210  0.00  0.00    +0.000 A 
BRANCH  14  17
ATOM     17  O   UNL     1      -1.761  12.553  23.419  0.00  0.00    +0.000 OA
BRANCH  17  18
ATOM     18  C   UNL     1      -3.176  12.537  23.522  0.00  0.00    +0.000 C 
ATOM     19  F   UNL     1      -3.663  11.586  24.347  0.00  0.00    +0.000 F 
ATOM     20  F   UNL     1      -3.611  13.745  23.941  0.00  0.00    +0.000 F 
ATOM     21  F   UNL     1      -3.688  12.312  22.290  0.00  0.00    +0.000 F 
ENDBRANCH  17  18
ENDBRANCH  14  17
ENDBRANCH   6  11
BRANCH   1  22
ATOM     22  C   UNL     1       4.112   4.097  18.749  0.00  0.00    +0.000 C 
BRANCH  22  26
ATOM     23  C   UNL     1       6.407   3.956  14.187  0.00  0.00    +0.000 C 
ATOM     24  C   UNL     1       6.022   4.094  15.609  0.00  0.00    +0.000 A 
ATOM     25  C   UNL     1       4.746   3.941  16.196  0.00  0.00    +0.000 A 
ATOM     26  C   UNL     1       4.960   4.159  17.538  0.00  0.00    +0.000 A 
ATOM     27  O   UNL     1       6.278   4.427  17.737  0.00  0.00    +0.000 OA
ATOM     28  N   UNL     1       6.949   4.388  16.529  0.00  0.00    +0.000 NA
ENDBRANCH  22  26
ENDBRANCH   1  22
TORSDOF 5
ENDMDL
MODEL 5
REMARK VINA RESULT:      -8.6      6.191      8.121
REMARK  Name = 
REMARK  6 active torsions:
REMARK  status: ('A' for Active; 'I' for Inactive)
REMARK    1  A    between atoms: C_1  and  C_2
REMARK    2  A    between atoms: C_4  and  C_5
REMARK    3  A    between atoms: C_5  and  N_6
REMARK    4  A    between atoms: C_11  and  C_12
REMARK    5  A    between atoms: C_15  and  O_16
REMARK    6  A    between atoms: O_16  and  C_17
REMARK                            x       y       z     vdW  Elec       q    Type
REMARK                         _______ _______ _______ _____ _____    ______ ____
ROOT
ATOM      1  N   UNL     1       5.595   4.853  16.725  0.00  0.00    +0.000 N 
ATOM      2  N   UNL     1       6.419   4.547  17.795  0.00  0.00    +0.000 NA
ATOM      3  C   UNL     1       7.026   5.668  18.039  0.00  0.00    +0.000 A 
ATOM      4  C   UNL     1       8.029   5.941  19.089  0.00  0.00    +0.000 A 
ATOM      5  C   UNL     1       8.510   7.193  19.184  0.00  0.00    +0.000 A 
ATOM      6  C   UNL     1       8.075   8.260  18.282  0.00  0.00    +0.000 A 
ATOM      7  C   UNL     1       7.169   7.971  17.326  0.00  0.00    +0.000 A 
ATOM      8  N   UNL     1       6.677   6.699  17.226  0.00  0.00    +0.000 N 
ATOM      9  C   UNL     1       5.737   6.198  16.355  0.00  0.00    +0.000 A 
ATOM     10  O   UNL     1       5.137   6.790  15.470  0.00  0.00    +0.000 OA
ENDROOT
BRANCH   6  11
ATOM     11  C   UNL     1       8.568   9.641  18.371  0.00  0.00    +0.000 A 
ATOM     12  C   UNL     1       8.076  10.622  17.506  0.00  0.00    +0.000 A 
ATOM     13  C   UNL     1       8.580  11.924  17.566  0.00  0.00    +0.000 A 
ATOM     14  C   UNL     1       9.566  12.270  18.496  0.00  0.00    +0.000 A 
ATOM     15  C   UNL     1      10.069  11.290  19.347  0.00  0.00    +0.000 A 
ATOM     16  C   UNL     1       9.559   9.985  19.298  0.00  0.00    +0.000 A 
BRANCH  14  17
ATOM     17  O   UNL     1       9.975  13.565  18.416  0.00  0.00    +0.000 OA
BRANCH  17  18
ATOM     18  C   UNL     1      10.991  13.940  17.499  0.00  0.00    +0.000 C 
ATOM     19  F   UNL     1      11.203  13.048  16.508  0.00  0.00    +0.000 F 
ATOM     20  F   UNL     1      10.686  15.137  16.953  0.00  0.00    +0.000 F 
ATOM     21  F   UNL     1      12.150  14.075  18.183  0.00  0.00    +0.000 F 
ENDBRANCH  17  18
ENDBRANCH  14  17
ENDBRANCH   6  11
BRANCH   1  22
ATOM     22  C   UNL     1       4.637   3.924  16.174  0.00  0.00    +0.000 C 
BRANCH  22  26
ATOM     23  C   UNL     1       0.916   3.623  19.661  0.00  0.00    +0.000 C 
ATOM     24  C   UNL     1       2.013   3.401  18.694  0.00  0.00    +0.000 A 
ATOM     25  C   UNL     1       2.617   4.330  17.816  0.00  0.00    +0.000 A 
ATOM     26  C   UNL     1       3.586   3.602  17.164  0.00  0.00    +0.000 A 
ATOM     27  O   UNL     1       3.559   2.321  17.621  0.00  0.00    +0.000 OA
ATOM     28  N   UNL     1       2.572   2.190  18.581  0.00  0.00    +0.000 NA
ENDBRANCH  22  26
ENDBRANCH   1  22
TORSDOF 5
ENDMDL
MODEL 6
REMARK VINA RESULT:      -8.5      0.906      1.070
REMARK  Name = 
REMARK  6 active torsions:
REMARK  status: ('A' for Active; 'I' for Inactive)
REMARK    1  A    between atoms: C_1  and  C_2
REMARK    2  A    between atoms: C_4  and  C_5
REMARK    3  A    between atoms: C_5  and  N_6
REMARK    4  A    between atoms: C_11  and  C_12
REMARK    5  A    between atoms: C_15  and  O_16
REMARK    6  A    between atoms: O_16  and  C_17
REMARK                            x       y       z     vdW  Elec       q    Type
REMARK                         _______ _______ _______ _____ _____    ______ ____
ROOT
ATOM      1  N   UNL     1       6.123   5.183  17.649  0.00  0.00    +0.000 N 
ATOM      2  N   UNL     1       5.365   4.504  18.589  0.00  0.00    +0.000 NA
ATOM      3  C   UNL     1       4.408   5.335  18.863  0.00  0.00    +0.000 A 
ATOM      4  C   UNL     1       3.288   5.142  19.807  0.00  0.00    +0.000 A 
ATOM      5  C   UNL     1       2.383   6.130  19.914  0.00  0.00    +0.000 A 
ATOM      6  C   UNL     1       2.491   7.366  19.139  0.00  0.00    +0.000 A 
ATOM      7  C   UNL     1       3.534   7.515  18.297  0.00  0.00    +0.000 A 
ATOM      8  N   UNL     1       4.456   6.512  18.185  0.00  0.00    +0.000 N 
ATOM      9  C   UNL     1       5.568   6.442  17.376  0.00  0.00    +0.000 A 
ATOM     10  O   UNL     1       5.976   7.274  16.581  0.00  0.00    +0.000 OA
ENDROOT
BRANCH   6  11
ATOM     11  C   UNL     1       1.509   8.457  19.220  0.00  0.00    +0.000 A 
ATOM     12  C   UNL     1       0.936   8.799  20.447  0.00  0.00    +0.000 A 
ATOM     13  C   UNL     1      -0.029   9.808  20.511  0.00  0.00    +0.000 A 
ATOM     14  C   UNL     1      -0.422  10.500  19.361  0.00  0.00    +0.000 A 
ATOM     15  C   UNL     1       0.137  10.149  18.134  0.00  0.00    +0.000 A 
ATOM     16  C   UNL     1       1.113   9.145  18.067  0.00  0.00    +0.000 A 
BRANCH  14  17
ATOM     17  O   UNL     1      -1.388  11.433  19.576  0.00  0.00    +0.000 OA
BRANCH  17  18
ATOM     18  C   UNL     1      -1.103  12.812  19.399  0.00  0.00    +0.000 C 
ATOM     19  F   UNL     1       0.062  13.215  19.948  0.00  0.00    +0.000 F 
ATOM     20  F   UNL     1      -1.089  13.103  18.080  0.00  0.00    +0.000 F 
ATOM     21  F   UNL     1      -2.097  13.527  19.974  0.00  0.00    +0.000 F 
ENDBRANCH  17  18
ENDBRANCH  14  17
ENDBRANCH   6  11
BRANCH   1  22
ATOM     22  C   UNL     1       7.249   4.593  16.965  0.00  0.00    +0.000 C 
BRANCH  22  26
ATOM     23  C   UNL     1       5.926   3.467  12.161  0.00  0.00    +0.000 C 
ATOM     24  C   UNL     1       6.476   4.021  13.418  0.00  0.00    +0.000 A 
ATOM     25  C   UNL     1       6.178   3.652  14.749  0.00  0.00    +0.000 A 
ATOM     26  C   UNL     1       6.980   4.467  15.516  0.00  0.00    +0.000 A 
ATOM     27  O   UNL     1       7.707   5.271  14.694  0.00  0.00    +0.000 OA
ATOM     28  N   UNL     1       7.393   4.996  13.376  0.00  0.00    +0.000 NA
ENDBRANCH  22  26
ENDBRANCH   1  22
TORSDOF 5
ENDMDL
MODEL 7
REMARK VINA RESULT:      -8.3      2.253      2.929
REMARK  Name = 
REMARK  6 active torsions:
REMARK  status: ('A' for Active; 'I' for Inactive)
REMARK    1  A    between atoms: C_1  and  C_2
REMARK    2  A    between atoms: C_4  and  C_5
REMARK    3  A    between atoms: C_5  and  N_6
REMARK    4  A    between atoms: C_11  and  C_12
REMARK    5  A    between atoms: C_15  and  O_16
REMARK    6  A    between atoms: O_16  and  C_17
REMARK                            x       y       z     vdW  Elec       q    Type
REMARK                         _______ _______ _______ _____ _____    ______ ____
ROOT
ATOM      1  N   UNL     1       4.670   5.325  17.863  0.00  0.00    +0.000 N 
ATOM      2  N   UNL     1       4.354   6.368  17.009  0.00  0.00    +0.000 NA
ATOM      3  C   UNL     1       3.528   7.088  17.705  0.00  0.00    +0.000 A 
ATOM      4  C   UNL     1       2.862   8.342  17.299  0.00  0.00    +0.000 A 
ATOM      5  C   UNL     1       2.062   8.945  18.196  0.00  0.00    +0.000 A 
ATOM      6  C   UNL     1       1.839   8.388  19.531  0.00  0.00    +0.000 A 
ATOM      7  C   UNL     1       2.452   7.233  19.862  0.00  0.00    +0.000 A 
ATOM      8  N   UNL     1       3.266   6.618  18.953  0.00  0.00    +0.000 N 
ATOM      9  C   UNL     1       4.004   5.464  19.089  0.00  0.00    +0.000 A 
ATOM     10  O   UNL     1       4.084   4.731  20.063  0.00  0.00    +0.000 OA
ENDROOT
BRANCH   6  11
ATOM     11  C   UNL     1       0.986   9.030  20.540  0.00  0.00    +0.000 A 
ATOM     12  C   UNL     1       0.252   8.254  21.440  0.00  0.00    +0.000 A 
ATOM     13  C   UNL     1      -0.592   8.869  22.369  0.00  0.00    +0.000 A 
ATOM     14  C   UNL     1      -0.702  10.262  22.426  0.00  0.00    +0.000 A 
ATOM     15  C   UNL     1       0.016  11.037  21.519  0.00  0.00    +0.000 A 
ATOM     16  C   UNL     1       0.871  10.425  20.592  0.00  0.00    +0.000 A 
BRANCH  14  17
ATOM     17  O   UNL     1      -1.581  10.712  23.362  0.00  0.00    +0.000 OA
BRANCH  17  18
ATOM     18  C   UNL     1      -2.248  11.951  23.181  0.00  0.00    +0.000 C 
ATOM     19  F   UNL     1      -1.514  13.033  23.518  0.00  0.00    +0.000 F 
ATOM     20  F   UNL     1      -2.636  12.070  21.892  0.00  0.00    +0.000 F 
ATOM     21  F   UNL     1      -3.358  11.952  23.953  0.00  0.00    +0.000 F 
ENDBRANCH  17  18
ENDBRANCH  14  17
ENDBRANCH   6  11
BRANCH   1  22
ATOM     22  C   UNL     1       5.657   4.318  17.550  0.00  0.00    +0.000 C 
BRANCH  22  26
ATOM     23  C   UNL     1       6.839   4.216  12.581  0.00  0.00    +0.000 C 
ATOM     24  C   UNL     1       6.727   4.458  14.037  0.00  0.00    +0.000 A 
ATOM     25  C   UNL     1       5.771   3.947  14.944  0.00  0.00    +0.000 A 
ATOM     26  C   UNL     1       6.143   4.471  16.161  0.00  0.00    +0.000 A 
ATOM     27  O   UNL     1       7.248   5.246  15.990  0.00  0.00    +0.000 OA
ATOM     28  N   UNL     1       7.617   5.241  14.657  0.00  0.00    +0.000 NA
ENDBRANCH  22  26
ENDBRANCH   1  22
TORSDOF 5
ENDMDL
MODEL 8
REMARK VINA RESULT:      -8.3      5.574     10.356
REMARK  Name = 
REMARK  6 active torsions:
REMARK  status: ('A' for Active; 'I' for Inactive)
REMARK    1  A    between atoms: C_1  and  C_2
REMARK    2  A    between atoms: C_4  and  C_5
REMARK    3  A    between atoms: C_5  and  N_6
REMARK    4  A    between atoms: C_11  and  C_12
REMARK    5  A    between atoms: C_15  and  O_16
REMARK    6  A    between atoms: O_16  and  C_17
REMARK                            x       y       z     vdW  Elec       q    Type
REMARK                         _______ _______ _______ _____ _____    ______ ____
ROOT
ATOM      1  N   UNL     1      -0.551  11.972  21.897  0.00  0.00    +0.000 N 
ATOM      2  N   UNL     1      -0.258  12.184  20.560  0.00  0.00    +0.000 NA
ATOM      3  C   UNL     1       0.320  11.080  20.199  0.00  0.00    +0.000 A 
ATOM      4  C   UNL     1       0.847  10.733  18.864  0.00  0.00    +0.000 A 
ATOM      5  C   UNL     1       1.384   9.510  18.702  0.00  0.00    +0.000 A 
ATOM      6  C   UNL     1       1.461   8.547  19.801  0.00  0.00    +0.000 A 
ATOM      7  C   UNL     1       0.983   8.904  21.010  0.00  0.00    +0.000 A 
ATOM      8  N   UNL     1       0.437  10.145  21.179  0.00  0.00    +0.000 N 
ATOM      9  C   UNL     1      -0.130  10.699  22.305  0.00  0.00    +0.000 A 
ATOM     10  O   UNL     1      -0.261  10.193  23.409  0.00  0.00    +0.000 OA
ENDROOT
BRANCH   6  11
ATOM     11  C   UNL     1       2.026   7.198  19.652  0.00  0.00    +0.000 A 
ATOM     12  C   UNL     1       2.827   6.888  18.552  0.00  0.00    +0.000 A 
ATOM     13  C   UNL     1       3.325   5.591  18.393  0.00  0.00    +0.000 A 
ATOM     14  C   UNL     1       3.046   4.595  19.334  0.00  0.00    +0.000 A 
ATOM     15  C   UNL     1       2.233   4.899  20.423  0.00  0.00    +0.000 A 
ATOM     16  C   UNL     1       1.740   6.200  20.592  0.00  0.00    +0.000 A 
BRANCH  14  17
ATOM     17  O   UNL     1       3.576   3.379  19.030  0.00  0.00    +0.000 OA
BRANCH  17  18
ATOM     18  C   UNL     1       2.762   2.364  18.465  0.00  0.00    +0.000 C 
ATOM     19  F   UNL     1       3.436   1.456  17.728  0.00  0.00    +0.000 F 
ATOM     20  F   UNL     1       2.096   1.721  19.449  0.00  0.00    +0.000 F 
ATOM     21  F   UNL     1       1.850   2.952  17.658  0.00  0.00    +0.000 F 
ENDBRANCH  17  18
ENDBRANCH  14  17
ENDBRANCH   6  11
BRANCH   1  22
ATOM     22  C   UNL     1      -1.307  12.906  22.698  0.00  0.00    +0.000 C 
BRANCH  22  26
ATOM     23  C   UNL     1      -6.196  12.779  21.222  0.00  0.00    +0.000 C 
ATOM     24  C   UNL     1      -4.890  12.683  21.911  0.00  0.00    +0.000 A 
ATOM     25  C   UNL     1      -3.605  12.996  21.412  0.00  0.00    +0.000 A 
ATOM     26  C   UNL     1      -2.759  12.743  22.468  0.00  0.00    +0.000 A 
ATOM     27  O   UNL     1      -3.493  12.304  23.526  0.00  0.00    +0.000 OA
ATOM     28  N   UNL     1      -4.831  12.264  23.180  0.00  0.00    +0.000 NA
ENDBRANCH  22  26
ENDBRANCH   1  22
TORSDOF 5
ENDMDL
MODEL 9
REMARK VINA RESULT:      -8.3      5.036      9.622
REMARK  Name = 
REMARK  6 active torsions:
REMARK  status: ('A' for Active; 'I' for Inactive)
REMARK    1  A    between atoms: C_1  and  C_2
REMARK    2  A    between atoms: C_4  and  C_5
REMARK    3  A    between atoms: C_5  and  N_6
REMARK    4  A    between atoms: C_11  and  C_12
REMARK    5  A    between atoms: C_15  and  O_16
REMARK    6  A    between atoms: O_16  and  C_17
REMARK                            x       y       z     vdW  Elec       q    Type
REMARK                         _______ _______ _______ _____ _____    ______ ____
ROOT
ATOM      1  N   UNL     1       1.043  10.485  19.510  0.00  0.00    +0.000 N 
ATOM      2  N   UNL     1       0.941   9.417  20.386  0.00  0.00    +0.000 NA
ATOM      3  C   UNL     1       1.606   8.475  19.792  0.00  0.00    +0.000 A 
ATOM      4  C   UNL     1       1.841   7.097  20.270  0.00  0.00    +0.000 A 
ATOM      5  C   UNL     1       2.591   6.288  19.501  0.00  0.00    +0.000 A 
ATOM      6  C   UNL     1       3.156   6.735  18.228  0.00  0.00    +0.000 A 
ATOM      7  C   UNL     1       2.909   7.994  17.815  0.00  0.00    +0.000 A 
ATOM      8  N   UNL     1       2.147   8.820  18.594  0.00  0.00    +0.000 N 
ATOM      9  C   UNL     1       1.799  10.135  18.382  0.00  0.00    +0.000 A 
ATOM     10  O   UNL     1       2.096  10.852  17.438  0.00  0.00    +0.000 OA
ENDROOT
BRANCH   6  11
ATOM     11  C   UNL     1       3.994   5.881  17.374  0.00  0.00    +0.000 A 
ATOM     12  C   UNL     1       4.922   6.453  16.501  0.00  0.00    +0.000 A 
ATOM     13  C   UNL     1       5.685   5.638  15.660  0.00  0.00    +0.000 A 
ATOM     14  C   UNL     1       5.547   4.247  15.688  0.00  0.00    +0.000 A 
ATOM     15  C   UNL     1       4.609   3.676  16.546  0.00  0.00    +0.000 A 
ATOM     16  C   UNL     1       3.849   4.489  17.399  0.00  0.00    +0.000 A 
BRANCH  14  17
ATOM     17  O   UNL     1       6.335   3.591  14.795  0.00  0.00    +0.000 OA
BRANCH  17  18
ATOM     18  C   UNL     1       6.150   3.780  13.401  0.00  0.00    +0.000 C 
ATOM     19  F   UNL     1       6.947   4.724  12.858  0.00  0.00    +0.000 F 
ATOM     20  F   UNL     1       6.355   2.611  12.757  0.00  0.00    +0.000 F 
ATOM     21  F   UNL     1       4.868   4.155  13.191  0.00  0.00    +0.000 F 
ENDBRANCH  17  18
ENDBRANCH  14  17
ENDBRANCH   6  11
BRANCH   1  22
ATOM     22  C   UNL     1       0.538  11.805  19.810  0.00  0.00    +0.000 C 
BRANCH  22  26
ATOM     23  C   UNL     1      -3.016  12.122  23.465  0.00  0.00    +0.000 C 
ATOM     24  C   UNL     1      -1.810  11.909  22.635  0.00  0.00    +0.000 A 
ATOM     25  C   UNL     1      -1.653  12.099  21.243  0.00  0.00    +0.000 A 
ATOM     26  C   UNL     1      -0.337  11.775  21.002  0.00  0.00    +0.000 A 
ATOM     27  O   UNL     1       0.251  11.414  22.174  0.00  0.00    +0.000 OA
ATOM     28  N   UNL     1      -0.671  11.496  23.201  0.00  0.00    +0.000 NA
ENDBRANCH  22  26
ENDBRANCH   1  22
TORSDOF 5
ENDMDL
