MODEL 1
REMARK VINA RESULT:      -7.2      0.000      0.000
REMARK  Name = 
REMARK  12 active torsions:
REMARK  status: ('A' for Active; 'I' for Inactive)
REMARK    1  A    between atoms: C_1  and  C_2
REMARK    2  A    between atoms: C_2  and  C_3
REMARK    3  A    between atoms: C_2  and  C_4
REMARK    4  A    between atoms: C_4  and  N_5
REMARK    5  A    between atoms: C_16  and  C_17
REMARK    6  A    between atoms: C_17  and  N_18
REMARK    7  A    between atoms: N_18  and  C_19
REMARK    8  A    between atoms: C_19  and  C_20
REMARK    9  A    between atoms: C_20  and  C_21
REMARK   10  A    between atoms: C_21  and  N_22
REMARK   11  A    between atoms: N_22  and  C_23
REMARK   12  A    between atoms: N_22  and  C_24
REMARK                            x       y       z     vdW  Elec       q    Type
REMARK                         _______ _______ _______ _____ _____    ______ ____
ROOT
ATOM      1  N   UNL     1       3.442   5.613  18.608  0.00  0.00    +0.000 N 
ATOM      2  C   UNL     1       2.624   4.513  18.835  0.00  0.00    +0.000 A 
ATOM      3  C   UNL     1       1.587   4.302  19.762  0.00  0.00    +0.000 A 
ATOM      4  C   UNL     1       0.876   3.101  19.707  0.00  0.00    +0.000 A 
ATOM      5  C   UNL     1       1.197   2.125  18.772  0.00  0.00    +0.000 A 
ATOM      6  C   UNL     1       2.241   2.334  17.866  0.00  0.00    +0.000 A 
ATOM      7  C   UNL     1       2.960   3.550  17.892  0.00  0.00    +0.000 A 
ATOM      8  C   UNL     1       4.035   4.070  17.110  0.00  0.00    +0.000 A 
ATOM      9  C   UNL     1       4.758   3.529  16.037  0.00  0.00    +0.000 A 
ATOM     10  C   UNL     1       5.758   4.306  15.500  0.00  0.00    +0.000 A 
ATOM     11  N   UNL     1       6.078   5.528  15.950  0.00  0.00    +0.000 NA
ATOM     12  C   UNL     1       5.403   6.097  17.001  0.00  0.00    +0.000 A 
ATOM     13  C   UNL     1       4.348   5.355  17.582  0.00  0.00    +0.000 A 
ENDROOT
BRANCH   1  14
ATOM     14  C   UNL     1       3.267   6.873  19.325  0.00  0.00    +0.000 C 
BRANCH  14  16
ATOM     15  C   UNL     1       1.444   8.541  19.981  0.00  0.00    +0.000 C 
ATOM     16  C   UNL     1       2.038   7.681  18.862  0.00  0.00    +0.000 C 
ATOM     17  C   UNL     1       2.406   8.583  17.682  0.00  0.00    +0.000 C 
ENDBRANCH  14  16
ENDBRANCH   1  14
BRANCH  12  18
ATOM     18  C   UNL     1       5.967   7.423  17.466  0.00  0.00    +0.000 C 
BRANCH  18  19
ATOM     19  N   UNL     1       7.351   7.672  17.026  0.00  0.00    +0.000 NA
ATOM     20  H   UNL     1       7.349   8.424  16.338  0.00  0.00    +0.000 HD
BRANCH  19  21
ATOM     21  C   UNL     1       8.201   8.081  18.154  0.00  0.00    +0.000 C 
BRANCH  21  22
ATOM     22  C   UNL     1       8.475   9.585  18.077  0.00  0.00    +0.000 C 
BRANCH  22  23
ATOM     23  C   UNL     1       9.195  10.066  19.345  0.00  0.00    +0.000 C 
BRANCH  23  24
ATOM     24  N   UNL     1      10.268  11.042  19.079  0.00  0.00    +0.000 NA
ATOM     25  C   UNL     1       9.940  11.936  17.966  0.00  0.00    +0.000 C 
ATOM     26  C   UNL     1      10.531  11.833  20.284  0.00  0.00    +0.000 C 
ENDBRANCH  23  24
ENDBRANCH  22  23
ENDBRANCH  21  22
ENDBRANCH  19  21
ENDBRANCH  18  19
ENDBRANCH  12  18
TORSDOF 8
ENDMDL
MODEL 2
REMARK VINA RESULT:      -7.0      4.049      6.713
REMARK  Name = 
REMARK  12 active torsions:
REMARK  status: ('A' for Active; 'I' for Inactive)
REMARK    1  A    between atoms: C_1  and  C_2
REMARK    2  A    between atoms: C_2  and  C_3
REMARK    3  A    between atoms: C_2  and  C_4
REMARK    4  A    between atoms: C_4  and  N_5
REMARK    5  A    between atoms: C_16  and  C_17
REMARK    6  A    between atoms: C_17  and  N_18
REMARK    7  A    between atoms: N_18  and  C_19
REMARK    8  A    between atoms: C_19  and  C_20
REMARK    9  A    between atoms: C_20  and  C_21
REMARK   10  A    between atoms: C_21  and  N_22
REMARK   11  A    between atoms: N_22  and  C_23
REMARK   12  A    between atoms: N_22  and  C_24
REMARK                            x       y       z     vdW  Elec       q    Type
REMARK                         _______ _______ _______ _____ _____    ______ ____
ROOT
ATOM      1  N   UNL     1       2.842   5.951  19.850  0.00  0.00    +0.000 N 
ATOM      2  C   UNL     1       3.718   5.459  18.890  0.00  0.00    +0.000 A 
ATOM      3  C   UNL     1       4.450   4.259  18.827  0.00  0.00    +0.000 A 
ATOM      4  C   UNL     1       5.205   3.995  17.683  0.00  0.00    +0.000 A 
ATOM      5  C   UNL     1       5.252   4.906  16.635  0.00  0.00    +0.000 A 
ATOM      6  C   UNL     1       4.537   6.105  16.711  0.00  0.00    +0.000 A 
ATOM      7  C   UNL     1       3.752   6.383  17.852  0.00  0.00    +0.000 A 
ATOM      8  C   UNL     1       2.909   7.474  18.221  0.00  0.00    +0.000 A 
ATOM      9  C   UNL     1       2.581   8.667  17.559  0.00  0.00    +0.000 A 
ATOM     10  C   UNL     1       1.725   9.527  18.207  0.00  0.00    +0.000 A 
ATOM     11  N   UNL     1       1.207   9.292  19.422  0.00  0.00    +0.000 NA
ATOM     12  C   UNL     1       1.504   8.143  20.110  0.00  0.00    +0.000 A 
ATOM     13  C   UNL     1       2.362   7.207  19.486  0.00  0.00    +0.000 A 
ENDROOT
BRANCH   1  14
ATOM     14  C   UNL     1       2.452   5.170  21.019  0.00  0.00    +0.000 C 
BRANCH  14  16
ATOM     15  C   UNL     1       1.143   3.849  19.264  0.00  0.00    +0.000 C 
ATOM     16  C   UNL     1       1.288   4.194  20.749  0.00  0.00    +0.000 C 
ATOM     17  C   UNL     1       1.481   2.902  21.544  0.00  0.00    +0.000 C 
ENDBRANCH  14  16
ENDBRANCH   1  14
BRANCH  12  18
ATOM     18  C   UNL     1       0.941   8.088  21.515  0.00  0.00    +0.000 C 
BRANCH  18  19
ATOM     19  N   UNL     1       1.037   9.363  22.248  0.00  0.00    +0.000 NA
ATOM     20  H   UNL     1       0.862  10.131  21.602  0.00  0.00    +0.000 HD
BRANCH  19  21
ATOM     21  C   UNL     1       0.040   9.431  23.326  0.00  0.00    +0.000 C 
BRANCH  21  22
ATOM     22  C   UNL     1      -0.949  10.564  23.045  0.00  0.00    +0.000 C 
BRANCH  22  23
ATOM     23  C   UNL     1      -0.616  11.253  21.714  0.00  0.00    +0.000 C 
BRANCH  23  24
ATOM     24  N   UNL     1       0.291  12.407  21.859  0.00  0.00    +0.000 NA
ATOM     25  C   UNL     1       1.002  12.712  20.616  0.00  0.00    +0.000 C 
ATOM     26  C   UNL     1      -0.468  13.583  22.294  0.00  0.00    +0.000 C 
ENDBRANCH  23  24
ENDBRANCH  22  23
ENDBRANCH  21  22
ENDBRANCH  19  21
ENDBRANCH  18  19
ENDBRANCH  12  18
TORSDOF 8
ENDMDL
MODEL 3
REMARK VINA RESULT:      -7.0      3.862      7.280
REMARK  Name = 
REMARK  12 active torsions:
REMARK  status: ('A' for Active; 'I' for Inactive)
REMARK    1  A    between atoms: C_1  and  C_2
REMARK    2  A    between atoms: C_2  and  C_3
REMARK    3  A    between atoms: C_2  and  C_4
REMARK    4  A    between atoms: C_4  and  N_5
REMARK    5  A    between atoms: C_16  and  C_17
REMARK    6  A    between atoms: C_17  and  N_18
REMARK    7  A    between atoms: N_18  and  C_19
REMARK    8  A    between atoms: C_19  and  C_20
REMARK    9  A    between atoms: C_20  and  C_21
REMARK   10  A    between atoms: C_21  and  N_22
REMARK   11  A    between atoms: N_22  and  C_23
REMARK   12  A    between atoms: N_22  and  C_24
REMARK                            x       y       z     vdW  Elec       q    Type
REMARK                         _______ _______ _______ _____ _____    ______ ____
ROOT
ATOM      1  N   UNL     1       3.077   5.930  19.339  0.00  0.00    +0.000 N 
ATOM      2  C   UNL     1       3.976   5.632  18.323  0.00  0.00    +0.000 A 
ATOM      3  C   UNL     1       4.778   4.498  18.094  0.00  0.00    +0.000 A 
ATOM      4  C   UNL     1       5.542   4.444  16.927  0.00  0.00    +0.000 A 
ATOM      5  C   UNL     1       5.529   5.494  16.018  0.00  0.00    +0.000 A 
ATOM      6  C   UNL     1       4.744   6.625  16.259  0.00  0.00    +0.000 A 
ATOM      7  C   UNL     1       3.950   6.692  17.425  0.00  0.00    +0.000 A 
ATOM      8  C   UNL     1       3.044   7.668  17.940  0.00  0.00    +0.000 A 
ATOM      9  C   UNL     1       2.642   8.920  17.452  0.00  0.00    +0.000 A 
ATOM     10  C   UNL     1       1.739   9.627  18.211  0.00  0.00    +0.000 A 
ATOM     11  N   UNL     1       1.242   9.194  19.379  0.00  0.00    +0.000 NA
ATOM     12  C   UNL     1       1.611   7.979  19.899  0.00  0.00    +0.000 A 
ATOM     13  C   UNL     1       2.521   7.193  19.153  0.00  0.00    +0.000 A 
ENDROOT
BRANCH   1  14
ATOM     14  C   UNL     1       2.740   4.970  20.385  0.00  0.00    +0.000 C 
BRANCH  14  16
ATOM     15  C   UNL     1       1.250   3.719  18.726  0.00  0.00    +0.000 C 
ATOM     16  C   UNL     1       1.394   4.252  20.154  0.00  0.00    +0.000 C 
ATOM     17  C   UNL     1       1.234   3.092  21.138  0.00  0.00    +0.000 C 
ENDBRANCH  14  16
ENDBRANCH   1  14
BRANCH  12  18
ATOM     18  C   UNL     1       1.059   7.694  21.281  0.00  0.00    +0.000 C 
BRANCH  18  19
ATOM     19  N   UNL     1      -0.071   8.559  21.665  0.00  0.00    +0.000 NA
ATOM     20  H   UNL     1      -0.875   7.974  21.886  0.00  0.00    +0.000 HD
BRANCH  19  21
ATOM     21  C   UNL     1       0.256   9.361  22.852  0.00  0.00    +0.000 C 
BRANCH  21  22
ATOM     22  C   UNL     1      -0.877  10.349  23.138  0.00  0.00    +0.000 C 
BRANCH  22  23
ATOM     23  C   UNL     1      -0.667  11.652  22.354  0.00  0.00    +0.000 C 
BRANCH  23  24
ATOM     24  N   UNL     1      -1.722  12.655  22.585  0.00  0.00    +0.000 NA
ATOM     25  C   UNL     1      -2.883  12.089  23.275  0.00  0.00    +0.000 C 
ATOM     26  C   UNL     1      -1.183  13.773  23.364  0.00  0.00    +0.000 C 
ENDBRANCH  23  24
ENDBRANCH  22  23
ENDBRANCH  21  22
ENDBRANCH  19  21
ENDBRANCH  18  19
ENDBRANCH  12  18
TORSDOF 8
ENDMDL
MODEL 4
REMARK VINA RESULT:      -6.9      0.777      1.002
REMARK  Name = 
REMARK  12 active torsions:
REMARK  status: ('A' for Active; 'I' for Inactive)
REMARK    1  A    between atoms: C_1  and  C_2
REMARK    2  A    between atoms: C_2  and  C_3
REMARK    3  A    between atoms: C_2  and  C_4
REMARK    4  A    between atoms: C_4  and  N_5
REMARK    5  A    between atoms: C_16  and  C_17
REMARK    6  A    between atoms: C_17  and  N_18
REMARK    7  A    between atoms: N_18  and  C_19
REMARK    8  A    between atoms: C_19  and  C_20
REMARK    9  A    between atoms: C_20  and  C_21
REMARK   10  A    between atoms: C_21  and  N_22
REMARK   11  A    between atoms: N_22  and  C_23
REMARK   12  A    between atoms: N_22  and  C_24
REMARK                            x       y       z     vdW  Elec       q    Type
REMARK                         _______ _______ _______ _____ _____    ______ ____
ROOT
ATOM      1  N   UNL     1       3.960   5.481  18.523  0.00  0.00    +0.000 N 
ATOM      2  C   UNL     1       3.223   4.307  18.615  0.00  0.00    +0.000 A 
ATOM      3  C   UNL     1       2.158   3.942  19.459  0.00  0.00    +0.000 A 
ATOM      4  C   UNL     1       1.551   2.699  19.270  0.00  0.00    +0.000 A 
ATOM      5  C   UNL     1       2.001   1.829  18.285  0.00  0.00    +0.000 A 
ATOM      6  C   UNL     1       3.071   2.190  17.462  0.00  0.00    +0.000 A 
ATOM      7  C   UNL     1       3.687   3.450  17.624  0.00  0.00    +0.000 A 
ATOM      8  C   UNL     1       4.756   4.113  16.950  0.00  0.00    +0.000 A 
ATOM      9  C   UNL     1       5.578   3.717  15.884  0.00  0.00    +0.000 A 
ATOM     10  C   UNL     1       6.539   4.610  15.469  0.00  0.00    +0.000 A 
ATOM     11  N   UNL     1       6.734   5.813  16.030  0.00  0.00    +0.000 NA
ATOM     12  C   UNL     1       5.960   6.241  17.078  0.00  0.00    +0.000 A 
ATOM     13  C   UNL     1       4.938   5.376  17.537  0.00  0.00    +0.000 A 
ENDROOT
BRANCH   1  14
ATOM     14  C   UNL     1       3.645   6.661  19.321  0.00  0.00    +0.000 C 
BRANCH  14  16
ATOM     15  C   UNL     1       1.673   8.122  20.039  0.00  0.00    +0.000 C 
ATOM     16  C   UNL     1       2.346   7.371  18.887  0.00  0.00    +0.000 C 
ATOM     17  C   UNL     1       2.631   8.355  17.751  0.00  0.00    +0.000 C 
ENDBRANCH  14  16
ENDBRANCH   1  14
BRANCH  12  18
ATOM     18  C   UNL     1       6.388   7.565  17.676  0.00  0.00    +0.000 C 
BRANCH  18  19
ATOM     19  N   UNL     1       7.786   7.930  17.384  0.00  0.00    +0.000 NA
ATOM     20  H   UNL     1       8.003   7.663  16.425  0.00  0.00    +0.000 HD
BRANCH  19  21
ATOM     21  C   UNL     1       7.994   9.378  17.519  0.00  0.00    +0.000 C 
BRANCH  21  22
ATOM     22  C   UNL     1       8.906   9.661  18.715  0.00  0.00    +0.000 C 
BRANCH  22  23
ATOM     23  C   UNL     1       9.688  10.965  18.500  0.00  0.00    +0.000 C 
BRANCH  23  24
ATOM     24  N   UNL     1       9.917  11.726  19.743  0.00  0.00    +0.000 NA
ATOM     25  C   UNL     1       9.249  11.119  20.896  0.00  0.00    +0.000 C 
ATOM     26  C   UNL     1      11.356  11.827  20.005  0.00  0.00    +0.000 C 
ENDBRANCH  23  24
ENDBRANCH  22  23
ENDBRANCH  21  22
ENDBRANCH  19  21
ENDBRANCH  18  19
ENDBRANCH  12  18
TORSDOF 8
ENDMDL
MODEL 5
REMARK VINA RESULT:      -6.8      4.023      7.022
REMARK  Name = 
REMARK  12 active torsions:
REMARK  status: ('A' for Active; 'I' for Inactive)
REMARK    1  A    between atoms: C_1  and  C_2
REMARK    2  A    between atoms: C_2  and  C_3
REMARK    3  A    between atoms: C_2  and  C_4
REMARK    4  A    between atoms: C_4  and  N_5
REMARK    5  A    between atoms: C_16  and  C_17
REMARK    6  A    between atoms: C_17  and  N_18
REMARK    7  A    between atoms: N_18  and  C_19
REMARK    8  A    between atoms: C_19  and  C_20
REMARK    9  A    between atoms: C_20  and  C_21
REMARK   10  A    between atoms: C_21  and  N_22
REMARK   11  A    between atoms: N_22  and  C_23
REMARK   12  A    between atoms: N_22  and  C_24
REMARK                            x       y       z     vdW  Elec       q    Type
REMARK                         _______ _______ _______ _____ _____    ______ ____
ROOT
ATOM      1  N   UNL     1       2.893   5.946  19.742  0.00  0.00    +0.000 N 
ATOM      2  C   UNL     1       3.783   5.522  18.763  0.00  0.00    +0.000 A 
ATOM      3  C   UNL     1       4.557   4.352  18.654  0.00  0.00    +0.000 A 
ATOM      4  C   UNL     1       5.317   4.158  17.499  0.00  0.00    +0.000 A 
ATOM      5  C   UNL     1       5.328   5.109  16.486  0.00  0.00    +0.000 A 
ATOM      6  C   UNL     1       4.571   6.278  16.608  0.00  0.00    +0.000 A 
ATOM      7  C   UNL     1       3.781   6.484  17.760  0.00  0.00    +0.000 A 
ATOM      8  C   UNL     1       2.900   7.530  18.171  0.00  0.00    +0.000 A 
ATOM      9  C   UNL     1       2.527   8.734  17.555  0.00  0.00    +0.000 A 
ATOM     10  C   UNL     1       1.643   9.538  18.236  0.00  0.00    +0.000 A 
ATOM     11  N   UNL     1       1.139   9.240  19.442  0.00  0.00    +0.000 NA
ATOM     12  C   UNL     1       1.478   8.078  20.086  0.00  0.00    +0.000 A 
ATOM     13  C   UNL     1       2.367   7.197  19.426  0.00  0.00    +0.000 A 
ENDROOT
BRANCH   1  14
ATOM     14  C   UNL     1       2.535   5.108  20.882  0.00  0.00    +0.000 C 
BRANCH  14  16
ATOM     15  C   UNL     1       2.176   2.706  21.680  0.00  0.00    +0.000 C 
ATOM     16  C   UNL     1       2.141   3.670  20.491  0.00  0.00    +0.000 C 
ATOM     17  C   UNL     1       0.740   3.650  19.876  0.00  0.00    +0.000 C 
ENDBRANCH  14  16
ENDBRANCH   1  14
BRANCH  12  18
ATOM     18  C   UNL     1       0.922   7.951  21.489  0.00  0.00    +0.000 C 
BRANCH  18  19
ATOM     19  N   UNL     1       1.148   9.138  22.333  0.00  0.00    +0.000 NA
ATOM     20  H   UNL     1       1.524   9.888  21.754  0.00  0.00    +0.000 HD
BRANCH  19  21
ATOM     21  C   UNL     1      -0.108   9.606  22.936  0.00  0.00    +0.000 C 
BRANCH  21  22
ATOM     22  C   UNL     1      -0.667  10.777  22.125  0.00  0.00    +0.000 C 
BRANCH  22  23
ATOM     23  C   UNL     1      -1.302  11.821  23.055  0.00  0.00    +0.000 C 
BRANCH  23  24
ATOM     24  N   UNL     1      -0.528  13.073  23.150  0.00  0.00    +0.000 NA
ATOM     25  C   UNL     1       0.019  13.486  21.856  0.00  0.00    +0.000 C 
ATOM     26  C   UNL     1      -1.374  14.140  23.690  0.00  0.00    +0.000 C 
ENDBRANCH  23  24
ENDBRANCH  22  23
ENDBRANCH  21  22
ENDBRANCH  19  21
ENDBRANCH  18  19
ENDBRANCH  12  18
TORSDOF 8
ENDMDL
MODEL 6
REMARK VINA RESULT:      -6.8      4.018      6.914
REMARK  Name = 
REMARK  12 active torsions:
REMARK  status: ('A' for Active; 'I' for Inactive)
REMARK    1  A    between atoms: C_1  and  C_2
REMARK    2  A    between atoms: C_2  and  C_3
REMARK    3  A    between atoms: C_2  and  C_4
REMARK    4  A    between atoms: C_4  and  N_5
REMARK    5  A    between atoms: C_16  and  C_17
REMARK    6  A    between atoms: C_17  and  N_18
REMARK    7  A    between atoms: N_18  and  C_19
REMARK    8  A    between atoms: C_19  and  C_20
REMARK    9  A    between atoms: C_20  and  C_21
REMARK   10  A    between atoms: C_21  and  N_22
REMARK   11  A    between atoms: N_22  and  C_23
REMARK   12  A    between atoms: N_22  and  C_24
REMARK                            x       y       z     vdW  Elec       q    Type
REMARK                         _______ _______ _______ _____ _____    ______ ____
ROOT
ATOM      1  N   UNL     1       2.948   5.908  19.714  0.00  0.00    +0.000 N 
ATOM      2  C   UNL     1       3.830   5.477  18.732  0.00  0.00    +0.000 A 
ATOM      3  C   UNL     1       4.596   4.301  18.621  0.00  0.00    +0.000 A 
ATOM      4  C   UNL     1       5.349   4.101  17.463  0.00  0.00    +0.000 A 
ATOM      5  C   UNL     1       5.362   5.050  16.448  0.00  0.00    +0.000 A 
ATOM      6  C   UNL     1       4.613   6.224  16.572  0.00  0.00    +0.000 A 
ATOM      7  C   UNL     1       3.829   6.437  17.728  0.00  0.00    +0.000 A 
ATOM      8  C   UNL     1       2.958   7.489  18.141  0.00  0.00    +0.000 A 
ATOM      9  C   UNL     1       2.590   8.695  17.525  0.00  0.00    +0.000 A 
ATOM     10  C   UNL     1       1.714   9.506  18.209  0.00  0.00    +0.000 A 
ATOM     11  N   UNL     1       1.213   9.212  19.418  0.00  0.00    +0.000 NA
ATOM     12  C   UNL     1       1.548   8.049  20.062  0.00  0.00    +0.000 A 
ATOM     13  C   UNL     1       2.429   7.161  19.399  0.00  0.00    +0.000 A 
ENDROOT
BRANCH   1  14
ATOM     14  C   UNL     1       2.589   5.074  20.857  0.00  0.00    +0.000 C 
BRANCH  14  16
ATOM     15  C   UNL     1       2.149   2.684  21.653  0.00  0.00    +0.000 C 
ATOM     16  C   UNL     1       2.137   3.652  20.466  0.00  0.00    +0.000 C 
ATOM     17  C   UNL     1       0.730   3.687  19.866  0.00  0.00    +0.000 C 
ENDBRANCH  14  16
ENDBRANCH   1  14
BRANCH  12  18
ATOM     18  C   UNL     1       0.998   7.927  21.468  0.00  0.00    +0.000 C 
BRANCH  18  19
ATOM     19  N   UNL     1       0.759   9.221  22.131  0.00  0.00    +0.000 NA
ATOM     20  H   UNL     1       0.951   9.972  21.470  0.00  0.00    +0.000 HD
BRANCH  19  21
ATOM     21  C   UNL     1      -0.638   9.341  22.572  0.00  0.00    +0.000 C 
BRANCH  21  22
ATOM     22  C   UNL     1      -0.868  10.720  23.195  0.00  0.00    +0.000 C 
BRANCH  22  23
ATOM     23  C   UNL     1      -1.389  11.707  22.140  0.00  0.00    +0.000 C 
BRANCH  23  24
ATOM     24  N   UNL     1      -0.684  11.615  20.848  0.00  0.00    +0.000 NA
ATOM     25  C   UNL     1      -1.584  11.820  19.711  0.00  0.00    +0.000 C 
ATOM     26  C   UNL     1       0.400  12.600  20.802  0.00  0.00    +0.000 C 
ENDBRANCH  23  24
ENDBRANCH  22  23
ENDBRANCH  21  22
ENDBRANCH  19  21
ENDBRANCH  18  19
ENDBRANCH  12  18
TORSDOF 8
ENDMDL
MODEL 7
REMARK VINA RESULT:      -6.6      4.026      7.443
REMARK  Name = 
REMARK  12 active torsions:
REMARK  status: ('A' for Active; 'I' for Inactive)
REMARK    1  A    between atoms: C_1  and  C_2
REMARK    2  A    between atoms: C_2  and  C_3
REMARK    3  A    between atoms: C_2  and  C_4
REMARK    4  A    between atoms: C_4  and  N_5
REMARK    5  A    between atoms: C_16  and  C_17
REMARK    6  A    between atoms: C_17  and  N_18
REMARK    7  A    between atoms: N_18  and  C_19
REMARK    8  A    between atoms: C_19  and  C_20
REMARK    9  A    between atoms: C_20  and  C_21
REMARK   10  A    between atoms: C_21  and  N_22
REMARK   11  A    between atoms: N_22  and  C_23
REMARK   12  A    between atoms: N_22  and  C_24
REMARK                            x       y       z     vdW  Elec       q    Type
REMARK                         _______ _______ _______ _____ _____    ______ ____
ROOT
ATOM      1  N   UNL     1       2.869   5.999  19.777  0.00  0.00    +0.000 N 
ATOM      2  C   UNL     1       3.754   5.589  18.788  0.00  0.00    +0.000 A 
ATOM      3  C   UNL     1       4.536   4.425  18.665  0.00  0.00    +0.000 A 
ATOM      4  C   UNL     1       5.288   4.244  17.502  0.00  0.00    +0.000 A 
ATOM      5  C   UNL     1       5.284   5.202  16.496  0.00  0.00    +0.000 A 
ATOM      6  C   UNL     1       4.520   6.364  16.632  0.00  0.00    +0.000 A 
ATOM      7  C   UNL     1       3.737   6.557  17.792  0.00  0.00    +0.000 A 
ATOM      8  C   UNL     1       2.852   7.594  18.217  0.00  0.00    +0.000 A 
ATOM      9  C   UNL     1       2.466   8.799  17.612  0.00  0.00    +0.000 A 
ATOM     10  C   UNL     1       1.582   9.592  18.306  0.00  0.00    +0.000 A 
ATOM     11  N   UNL     1       1.089   9.282  19.514  0.00  0.00    +0.000 NA
ATOM     12  C   UNL     1       1.442   8.118  20.147  0.00  0.00    +0.000 A 
ATOM     13  C   UNL     1       2.332   7.248  19.474  0.00  0.00    +0.000 A 
ENDROOT
BRANCH   1  14
ATOM     14  C   UNL     1       2.526   5.151  20.914  0.00  0.00    +0.000 C 
BRANCH  14  16
ATOM     15  C   UNL     1       1.984   2.782  21.708  0.00  0.00    +0.000 C 
ATOM     16  C   UNL     1       2.071   3.734  20.512  0.00  0.00    +0.000 C 
ATOM     17  C   UNL     1       0.708   3.788  19.819  0.00  0.00    +0.000 C 
ENDBRANCH  14  16
ENDBRANCH   1  14
BRANCH  12  18
ATOM     18  C   UNL     1       0.898   7.977  21.554  0.00  0.00    +0.000 C 
BRANCH  18  19
ATOM     19  N   UNL     1      -0.388   8.665  21.770  0.00  0.00    +0.000 NA
ATOM     20  H   UNL     1      -1.110   7.968  21.947  0.00  0.00    +0.000 HD
BRANCH  19  21
ATOM     21  C   UNL     1      -0.319   9.563  22.932  0.00  0.00    +0.000 C 
BRANCH  21  22
ATOM     22  C   UNL     1      -0.572  11.005  22.487  0.00  0.00    +0.000 C 
BRANCH  22  23
ATOM     23  C   UNL     1      -1.851  11.553  23.136  0.00  0.00    +0.000 C 
BRANCH  23  24
ATOM     24  N   UNL     1      -2.675  12.364  22.220  0.00  0.00    +0.000 NA
ATOM     25  C   UNL     1      -2.867  13.730  22.711  0.00  0.00    +0.000 C 
ATOM     26  C   UNL     1      -2.055  12.400  20.893  0.00  0.00    +0.000 C 
ENDBRANCH  23  24
ENDBRANCH  22  23
ENDBRANCH  21  22
ENDBRANCH  19  21
ENDBRANCH  18  19
ENDBRANCH  12  18
TORSDOF 8
ENDMDL
MODEL 8
REMARK VINA RESULT:      -6.4      3.798      7.093
REMARK  Name = 
REMARK  12 active torsions:
REMARK  status: ('A' for Active; 'I' for Inactive)
REMARK    1  A    between atoms: C_1  and  C_2
REMARK    2  A    between atoms: C_2  and  C_3
REMARK    3  A    between atoms: C_2  and  C_4
REMARK    4  A    between atoms: C_4  and  N_5
REMARK    5  A    between atoms: C_16  and  C_17
REMARK    6  A    between atoms: C_17  and  N_18
REMARK    7  A    between atoms: N_18  and  C_19
REMARK    8  A    between atoms: C_19  and  C_20
REMARK    9  A    between atoms: C_20  and  C_21
REMARK   10  A    between atoms: C_21  and  N_22
REMARK   11  A    between atoms: N_22  and  C_23
REMARK   12  A    between atoms: N_22  and  C_24
REMARK                            x       y       z     vdW  Elec       q    Type
REMARK                         _______ _______ _______ _____ _____    ______ ____
ROOT
ATOM      1  N   UNL     1       3.486   5.562  18.939  0.00  0.00    +0.000 N 
ATOM      2  C   UNL     1       4.370   5.333  17.892  0.00  0.00    +0.000 A 
ATOM      3  C   UNL     1       5.184   4.226  17.589  0.00  0.00    +0.000 A 
ATOM      4  C   UNL     1       5.926   4.245  16.406  0.00  0.00    +0.000 A 
ATOM      5  C   UNL     1       5.880   5.342  15.555  0.00  0.00    +0.000 A 
ATOM      6  C   UNL     1       5.083   6.446  15.871  0.00  0.00    +0.000 A 
ATOM      7  C   UNL     1       4.310   6.438  17.053  0.00  0.00    +0.000 A 
ATOM      8  C   UNL     1       3.400   7.371  17.635  0.00  0.00    +0.000 A 
ATOM      9  C   UNL     1       2.969   8.640  17.222  0.00  0.00    +0.000 A 
ATOM     10  C   UNL     1       2.071   9.292  18.034  0.00  0.00    +0.000 A 
ATOM     11  N   UNL     1       1.603   8.789  19.186  0.00  0.00    +0.000 NA
ATOM     12  C   UNL     1       2.000   7.555  19.635  0.00  0.00    +0.000 A 
ATOM     13  C   UNL     1       2.907   6.824  18.831  0.00  0.00    +0.000 A 
ENDROOT
BRANCH   1  14
ATOM     14  C   UNL     1       3.184   4.543  19.939  0.00  0.00    +0.000 C 
BRANCH  14  16
ATOM     15  C   UNL     1       0.957   3.431  20.527  0.00  0.00    +0.000 C 
ATOM     16  C   UNL     1       2.086   3.553  19.499  0.00  0.00    +0.000 C 
ATOM     17  C   UNL     1       1.492   3.979  18.155  0.00  0.00    +0.000 C 
ENDBRANCH  14  16
ENDBRANCH   1  14
BRANCH  12  18
ATOM     18  C   UNL     1       1.479   7.189  21.009  0.00  0.00    +0.000 C 
BRANCH  18  19
ATOM     19  N   UNL     1       1.346   8.336  21.924  0.00  0.00    +0.000 NA
ATOM     20  H   UNL     1       1.824   9.139  21.519  0.00  0.00    +0.000 HD
BRANCH  19  21
ATOM     21  C   UNL     1      -0.066   8.692  22.126  0.00  0.00    +0.000 C 
BRANCH  21  22
ATOM     22  C   UNL     1      -0.235  10.210  22.037  0.00  0.00    +0.000 C 
BRANCH  22  23
ATOM     23  C   UNL     1      -1.137  10.719  23.170  0.00  0.00    +0.000 C 
BRANCH  23  24
ATOM     24  N   UNL     1      -1.629  12.093  22.960  0.00  0.00    +0.000 NA
ATOM     25  C   UNL     1      -1.571  12.492  21.552  0.00  0.00    +0.000 C 
ATOM     26  C   UNL     1      -3.006  12.207  23.448  0.00  0.00    +0.000 C 
ENDBRANCH  23  24
ENDBRANCH  22  23
ENDBRANCH  21  22
ENDBRANCH  19  21
ENDBRANCH  18  19
ENDBRANCH  12  18
TORSDOF 8
ENDMDL
MODEL 9
REMARK VINA RESULT:      -6.3      3.308      6.167
REMARK  Name = 
REMARK  12 active torsions:
REMARK  status: ('A' for Active; 'I' for Inactive)
REMARK    1  A    between atoms: C_1  and  C_2
REMARK    2  A    between atoms: C_2  and  C_3
REMARK    3  A    between atoms: C_2  and  C_4
REMARK    4  A    between atoms: C_4  and  N_5
REMARK    5  A    between atoms: C_16  and  C_17
REMARK    6  A    between atoms: C_17  and  N_18
REMARK    7  A    between atoms: N_18  and  C_19
REMARK    8  A    between atoms: C_19  and  C_20
REMARK    9  A    between atoms: C_20  and  C_21
REMARK   10  A    between atoms: C_21  and  N_22
REMARK   11  A    between atoms: N_22  and  C_23
REMARK   12  A    between atoms: N_22  and  C_24
REMARK                            x       y       z     vdW  Elec       q    Type
REMARK                         _______ _______ _______ _____ _____    ______ ____
ROOT
ATOM      1  N   UNL     1       4.361   4.752  18.552  0.00  0.00    +0.000 N 
ATOM      2  C   UNL     1       3.498   4.176  19.476  0.00  0.00    +0.000 A 
ATOM      3  C   UNL     1       3.558   2.950  20.165  0.00  0.00    +0.000 A 
ATOM      4  C   UNL     1       2.568   2.665  21.108  0.00  0.00    +0.000 A 
ATOM      5  C   UNL     1       1.534   3.560  21.348  0.00  0.00    +0.000 A 
ATOM      6  C   UNL     1       1.470   4.767  20.647  0.00  0.00    +0.000 A 
ATOM      7  C   UNL     1       2.472   5.084  19.703  0.00  0.00    +0.000 A 
ATOM      8  C   UNL     1       2.704   6.213  18.861  0.00  0.00    +0.000 A 
ATOM      9  C   UNL     1       1.990   7.407  18.680  0.00  0.00    +0.000 A 
ATOM     10  C   UNL     1       2.492   8.305  17.767  0.00  0.00    +0.000 A 
ATOM     11  N   UNL     1       3.603   8.094  17.045  0.00  0.00    +0.000 NA
ATOM     12  C   UNL     1       4.331   6.940  17.183  0.00  0.00    +0.000 A 
ATOM     13  C   UNL     1       3.877   5.986  18.124  0.00  0.00    +0.000 A 
ENDROOT
BRANCH   1  14
ATOM     14  C   UNL     1       5.633   4.135  18.186  0.00  0.00    +0.000 C 
BRANCH  14  16
ATOM     15  C   UNL     1       7.134   5.464  19.774  0.00  0.00    +0.000 C 
ATOM     16  C   UNL     1       6.840   5.085  18.319  0.00  0.00    +0.000 C 
ATOM     17  C   UNL     1       8.090   4.448  17.709  0.00  0.00    +0.000 C 
ENDBRANCH  14  16
ENDBRANCH   1  14
BRANCH  12  18
ATOM     18  C   UNL     1       5.483   6.803  16.209  0.00  0.00    +0.000 C 
BRANCH  18  19
ATOM     19  N   UNL     1       5.230   5.851  15.113  0.00  0.00    +0.000 NA
ATOM     20  H   UNL     1       4.824   6.354  14.325  0.00  0.00    +0.000 HD
BRANCH  19  21
ATOM     21  C   UNL     1       6.478   5.218  14.662  0.00  0.00    +0.000 C 
BRANCH  21  22
ATOM     22  C   UNL     1       6.191   3.797  14.174  0.00  0.00    +0.000 C 
BRANCH  22  23
ATOM     23  C   UNL     1       6.116   3.759  12.641  0.00  0.00    +0.000 C 
BRANCH  23  24
ATOM     24  N   UNL     1       5.231   2.701  12.120  0.00  0.00    +0.000 NA
ATOM     25  C   UNL     1       4.182   3.235  11.249  0.00  0.00    +0.000 C 
ATOM     26  C   UNL     1       6.021   1.708  11.387  0.00  0.00    +0.000 C 
ENDBRANCH  23  24
ENDBRANCH  22  23
ENDBRANCH  21  22
ENDBRANCH  19  21
ENDBRANCH  18  19
ENDBRANCH  12  18
TORSDOF 8
ENDMDL
