MODEL 1
REMARK VINA RESULT:     -10.0      0.000      0.000
REMARK  Name = 
REMARK  6 active torsions:
REMARK  status: ('A' for Active; 'I' for Inactive)
REMARK    1  A    between atoms: C_2  and  C_3
REMARK    2  A    between atoms: C_3  and  C_4
REMARK    3  A    between atoms: C_11  and  C_12
REMARK    4  A    between atoms: C_16  and  C_17
REMARK    5  A    between atoms: N_24  and  C_25
REMARK    6  A    between atoms: C_25  and  C_26
REMARK                            x       y       z     vdW  Elec       q    Type
REMARK                         _______ _______ _______ _____ _____    ______ ____
ROOT
ATOM      1  C   UNL     1       4.303   3.230  19.422  0.00  0.00    +0.000 C 
ATOM      2  C   UNL     1       4.495   2.348  20.669  0.00  0.00    +0.000 C 
ATOM      3  N   UNL     1       3.228   2.024  21.305  0.00  0.00    +0.000 N 
ATOM      4  C   UNL     1       2.254   2.981  21.506  0.00  0.00    +0.000 C 
ATOM      5  O   UNL     1       1.312   2.764  22.259  0.00  0.00    +0.000 OA
ATOM      6  C   UNL     1       2.442   4.195  20.746  0.00  0.00    +0.000 A 
ATOM      7  C   UNL     1       1.701   5.360  20.723  0.00  0.00    +0.000 A 
ATOM      8  C   UNL     1       2.296   6.245  19.777  0.00  0.00    +0.000 A 
ATOM      9  C   UNL     1       3.404   5.599  19.261  0.00  0.00    +0.000 A 
ATOM     10  N   UNL     1       3.450   4.357  19.822  0.00  0.00    +0.000 N 
ATOM     11  H   UNL     1       3.149   1.215  21.908  0.00  0.00    +0.000 HD
ENDROOT
BRANCH   8  12
ATOM     12  C   UNL     1       1.922   7.603  19.425  0.00  0.00    +0.000 A 
ATOM     13  C   UNL     1       2.237   8.156  18.179  0.00  0.00    +0.000 A 
ATOM     14  C   UNL     1       1.934   9.490  17.899  0.00  0.00    +0.000 A 
ATOM     15  C   UNL     1       1.315  10.284  18.867  0.00  0.00    +0.000 A 
ATOM     16  C   UNL     1       0.973   9.743  20.114  0.00  0.00    +0.000 A 
ATOM     17  C   UNL     1       1.266   8.396  20.374  0.00  0.00    +0.000 A 
BRANCH  16  18
ATOM     18  C   UNL     1       0.334  10.573  21.195  0.00  0.00    +0.000 C 
ATOM     19  F   UNL     1       0.418  10.016  22.435  0.00  0.00    +0.000 F 
ATOM     20  F   UNL     1       0.892  11.811  21.303  0.00  0.00    +0.000 F 
ATOM     21  F   UNL     1      -0.993  10.782  20.971  0.00  0.00    +0.000 F 
ENDBRANCH  16  18
ENDBRANCH   8  12
BRANCH   1  22
ATOM     22  C   UNL     1       3.588   2.522  18.261  0.00  0.00    +0.000 C 
BRANCH  22  24
ATOM     23  O   UNL     1       1.883   3.609  16.967  0.00  0.00    +0.000 OA
ATOM     24  C   UNL     1       3.079   3.464  17.211  0.00  0.00    +0.000 C 
ATOM     25  N   UNL     1       4.004   4.190  16.520  0.00  0.00    +0.000 N 
ATOM     26  H   UNL     1       3.589   4.789  15.817  0.00  0.00    +0.000 HD
BRANCH  25  27
ATOM     27  C   UNL     1       5.428   3.934  16.402  0.00  0.00    +0.000 C 
BRANCH  27  28
ATOM     28  C   UNL     1       6.177   5.029  17.114  0.00  0.00    +0.000 A 
ATOM     29  C   UNL     1       6.080   6.358  16.670  0.00  0.00    +0.000 A 
ATOM     30  C   UNL     1       6.885   7.353  17.227  0.00  0.00    +0.000 A 
ATOM     31  C   UNL     1       7.794   7.031  18.232  0.00  0.00    +0.000 A 
ATOM     32  C   UNL     1       7.876   5.720  18.687  0.00  0.00    +0.000 A 
ATOM     33  F   UNL     1       8.758   5.407  19.646  0.00  0.00    +0.000 F 
ATOM     34  C   UNL     1       7.078   4.720  18.142  0.00  0.00    +0.000 A 
ENDBRANCH  27  28
ENDBRANCH  25  27
ENDBRANCH  22  24
ENDBRANCH   1  22
TORSDOF 6
ENDMDL
MODEL 2
REMARK VINA RESULT:      -9.8      0.818      1.309
REMARK  Name = 
REMARK  6 active torsions:
REMARK  status: ('A' for Active; 'I' for Inactive)
REMARK    1  A    between atoms: C_2  and  C_3
REMARK    2  A    between atoms: C_3  and  C_4
REMARK    3  A    between atoms: C_11  and  C_12
REMARK    4  A    between atoms: C_16  and  C_17
REMARK    5  A    between atoms: N_24  and  C_25
REMARK    6  A    between atoms: C_25  and  C_26
REMARK                            x       y       z     vdW  Elec       q    Type
REMARK                         _______ _______ _______ _____ _____    ______ ____
ROOT
ATOM      1  C   UNL     1       4.458   3.284  19.404  0.00  0.00    +0.000 C 
ATOM      2  C   UNL     1       4.619   2.379  20.639  0.00  0.00    +0.000 C 
ATOM      3  N   UNL     1       3.334   2.010  21.213  0.00  0.00    +0.000 N 
ATOM      4  C   UNL     1       2.329   2.937  21.392  0.00  0.00    +0.000 C 
ATOM      5  O   UNL     1       1.361   2.679  22.099  0.00  0.00    +0.000 OA
ATOM      6  C   UNL     1       2.517   4.172  20.667  0.00  0.00    +0.000 A 
ATOM      7  C   UNL     1       1.749   5.319  20.637  0.00  0.00    +0.000 A 
ATOM      8  C   UNL     1       2.360   6.240  19.737  0.00  0.00    +0.000 A 
ATOM      9  C   UNL     1       3.505   5.633  19.256  0.00  0.00    +0.000 A 
ATOM     10  N   UNL     1       3.560   4.380  19.791  0.00  0.00    +0.000 N 
ATOM     11  H   UNL     1       3.251   1.185  21.794  0.00  0.00    +0.000 HD
ENDROOT
BRANCH   8  12
ATOM     12  C   UNL     1       1.967   7.595  19.399  0.00  0.00    +0.000 A 
ATOM     13  C   UNL     1       2.243   8.153  18.145  0.00  0.00    +0.000 A 
ATOM     14  C   UNL     1       1.921   9.485  17.877  0.00  0.00    +0.000 A 
ATOM     15  C   UNL     1       1.324  10.272  18.864  0.00  0.00    +0.000 A 
ATOM     16  C   UNL     1       1.022   9.727  20.118  0.00  0.00    +0.000 A 
ATOM     17  C   UNL     1       1.331   8.381  20.367  0.00  0.00    +0.000 A 
BRANCH  16  18
ATOM     18  C   UNL     1       0.407  10.551  21.219  0.00  0.00    +0.000 C 
ATOM     19  F   UNL     1      -0.943  10.403  21.323  0.00  0.00    +0.000 F 
ATOM     20  F   UNL     1       0.912  10.244  22.446  0.00  0.00    +0.000 F 
ATOM     21  F   UNL     1       0.624  11.885  21.050  0.00  0.00    +0.000 F 
ENDBRANCH  16  18
ENDBRANCH   8  12
BRANCH   1  22
ATOM     22  C   UNL     1       3.812   2.585  18.199  0.00  0.00    +0.000 C 
BRANCH  22  24
ATOM     23  O   UNL     1       2.187   3.756  16.875  0.00  0.00    +0.000 OA
ATOM     24  C   UNL     1       3.370   3.535  17.126  0.00  0.00    +0.000 C 
ATOM     25  N   UNL     1       4.344   4.178  16.420  0.00  0.00    +0.000 N 
ATOM     26  H   UNL     1       3.972   4.787  15.701  0.00  0.00    +0.000 HD
BRANCH  25  27
ATOM     27  C   UNL     1       5.746   3.822  16.311  0.00  0.00    +0.000 C 
BRANCH  27  28
ATOM     28  C   UNL     1       6.567   4.869  17.016  0.00  0.00    +0.000 A 
ATOM     29  C   UNL     1       7.381   4.515  18.105  0.00  0.00    +0.000 A 
ATOM     30  C   UNL     1       8.026   5.498  18.858  0.00  0.00    +0.000 A 
ATOM     31  C   UNL     1       7.864   6.842  18.531  0.00  0.00    +0.000 A 
ATOM     32  C   UNL     1       7.077   7.192  17.441  0.00  0.00    +0.000 A 
ATOM     33  F   UNL     1       6.912   8.486  17.132  0.00  0.00    +0.000 F 
ATOM     34  C   UNL     1       6.431   6.223  16.682  0.00  0.00    +0.000 A 
ENDBRANCH  27  28
ENDBRANCH  25  27
ENDBRANCH  22  24
ENDBRANCH   1  22
TORSDOF 6
ENDMDL
MODEL 3
REMARK VINA RESULT:      -9.6      1.925      2.547
REMARK  Name = 
REMARK  6 active torsions:
REMARK  status: ('A' for Active; 'I' for Inactive)
REMARK    1  A    between atoms: C_2  and  C_3
REMARK    2  A    between atoms: C_3  and  C_4
REMARK    3  A    between atoms: C_11  and  C_12
REMARK    4  A    between atoms: C_16  and  C_17
REMARK    5  A    between atoms: N_24  and  C_25
REMARK    6  A    between atoms: C_25  and  C_26
REMARK                            x       y       z     vdW  Elec       q    Type
REMARK                         _______ _______ _______ _____ _____    ______ ____
ROOT
ATOM      1  C   UNL     1       4.544   3.369  19.320  0.00  0.00    +0.000 C 
ATOM      2  C   UNL     1       4.713   2.453  20.546  0.00  0.00    +0.000 C 
ATOM      3  N   UNL     1       3.431   2.052  21.104  0.00  0.00    +0.000 N 
ATOM      4  C   UNL     1       2.406   2.957  21.284  0.00  0.00    +0.000 C 
ATOM      5  O   UNL     1       1.437   2.673  21.979  0.00  0.00    +0.000 OA
ATOM      6  C   UNL     1       2.576   4.203  20.575  0.00  0.00    +0.000 A 
ATOM      7  C   UNL     1       1.785   5.335  20.551  0.00  0.00    +0.000 A 
ATOM      8  C   UNL     1       2.387   6.278  19.667  0.00  0.00    +0.000 A 
ATOM      9  C   UNL     1       3.547   5.700  19.189  0.00  0.00    +0.000 A 
ATOM     10  N   UNL     1       3.622   4.442  19.711  0.00  0.00    +0.000 N 
ATOM     11  H   UNL     1       3.359   1.219  21.675  0.00  0.00    +0.000 HD
ENDROOT
BRANCH   8  12
ATOM     12  C   UNL     1       1.969   7.629  19.340  0.00  0.00    +0.000 A 
ATOM     13  C   UNL     1       2.216   8.195  18.083  0.00  0.00    +0.000 A 
ATOM     14  C   UNL     1       1.872   9.524  17.825  0.00  0.00    +0.000 A 
ATOM     15  C   UNL     1       1.282  10.299  18.825  0.00  0.00    +0.000 A 
ATOM     16  C   UNL     1       1.009   9.746  20.083  0.00  0.00    +0.000 A 
ATOM     17  C   UNL     1       1.340   8.404  20.322  0.00  0.00    +0.000 A 
BRANCH  16  18
ATOM     18  C   UNL     1       0.403  10.558  21.197  0.00  0.00    +0.000 C 
ATOM     19  F   UNL     1      -0.950  10.692  21.102  0.00  0.00    +0.000 F 
ATOM     20  F   UNL     1       0.639  10.019  22.426  0.00  0.00    +0.000 F 
ATOM     21  F   UNL     1       0.899  11.825  21.244  0.00  0.00    +0.000 F 
ENDBRANCH  16  18
ENDBRANCH   8  12
BRANCH   1  22
ATOM     22  C   UNL     1       3.923   2.671  18.101  0.00  0.00    +0.000 C 
BRANCH  22  24
ATOM     23  O   UNL     1       2.238   3.793  16.810  0.00  0.00    +0.000 OA
ATOM     24  C   UNL     1       3.431   3.625  17.054  0.00  0.00    +0.000 C 
ATOM     25  N   UNL     1       4.370   4.336  16.365  0.00  0.00    +0.000 N 
ATOM     26  H   UNL     1       3.966   4.944  15.663  0.00  0.00    +0.000 HD
BRANCH  25  27
ATOM     27  C   UNL     1       5.788   4.054  16.245  0.00  0.00    +0.000 C 
BRANCH  27  28
ATOM     28  C   UNL     1       6.204   4.265  14.814  0.00  0.00    +0.000 A 
ATOM     29  C   UNL     1       5.571   3.554  13.781  0.00  0.00    +0.000 A 
ATOM     30  C   UNL     1       6.050   3.628  12.471  0.00  0.00    +0.000 A 
ATOM     31  C   UNL     1       7.164   4.413  12.181  0.00  0.00    +0.000 A 
ATOM     32  C   UNL     1       7.777   5.134  13.199  0.00  0.00    +0.000 A 
ATOM     33  F   UNL     1       8.855   5.880  12.923  0.00  0.00    +0.000 F 
ATOM     34  C   UNL     1       7.310   5.070  14.507  0.00  0.00    +0.000 A 
ENDBRANCH  27  28
ENDBRANCH  25  27
ENDBRANCH  22  24
ENDBRANCH   1  22
TORSDOF 6
ENDMDL
MODEL 4
REMARK VINA RESULT:      -9.6      2.954      3.754
REMARK  Name = 
REMARK  6 active torsions:
REMARK  status: ('A' for Active; 'I' for Inactive)
REMARK    1  A    between atoms: C_2  and  C_3
REMARK    2  A    between atoms: C_3  and  C_4
REMARK    3  A    between atoms: C_11  and  C_12
REMARK    4  A    between atoms: C_16  and  C_17
REMARK    5  A    between atoms: N_24  and  C_25
REMARK    6  A    between atoms: C_25  and  C_26
REMARK                            x       y       z     vdW  Elec       q    Type
REMARK                         _______ _______ _______ _____ _____    ______ ____
ROOT
ATOM      1  C   UNL     1       4.498   3.408  19.317  0.00  0.00    +0.000 C 
ATOM      2  C   UNL     1       4.070   1.942  19.516  0.00  0.00    +0.000 C 
ATOM      3  N   UNL     1       2.849   1.631  18.789  0.00  0.00    +0.000 N 
ATOM      4  C   UNL     1       1.764   2.482  18.799  0.00  0.00    +0.000 C 
ATOM      5  O   UNL     1       0.668   2.102  18.404  0.00  0.00    +0.000 OA
ATOM      6  C   UNL     1       2.053   3.815  19.274  0.00  0.00    +0.000 A 
ATOM      7  C   UNL     1       1.221   4.902  19.455  0.00  0.00    +0.000 A 
ATOM      8  C   UNL     1       2.010   5.994  19.920  0.00  0.00    +0.000 A 
ATOM      9  C   UNL     1       3.309   5.534  20.031  0.00  0.00    +0.000 A 
ATOM     10  N   UNL     1       3.322   4.240  19.600  0.00  0.00    +0.000 N 
ATOM     11  H   UNL     1       2.626   0.673  18.548  0.00  0.00    +0.000 HD
ENDROOT
BRANCH   8  12
ATOM     12  C   UNL     1       1.597   7.332  20.301  0.00  0.00    +0.000 A 
ATOM     13  C   UNL     1       1.025   7.601  21.550  0.00  0.00    +0.000 A 
ATOM     14  C   UNL     1       0.565   8.883  21.857  0.00  0.00    +0.000 A 
ATOM     15  C   UNL     1       0.671   9.907  20.914  0.00  0.00    +0.000 A 
ATOM     16  C   UNL     1       1.258   9.663  19.665  0.00  0.00    +0.000 A 
ATOM     17  C   UNL     1       1.734   8.375  19.378  0.00  0.00    +0.000 A 
BRANCH  16  18
ATOM     18  C   UNL     1       1.362  10.733  18.610  0.00  0.00    +0.000 C 
ATOM     19  F   UNL     1       2.108  10.366  17.531  0.00  0.00    +0.000 F 
ATOM     20  F   UNL     1       0.146  11.100  18.116  0.00  0.00    +0.000 F 
ATOM     21  F   UNL     1       1.931  11.875  19.085  0.00  0.00    +0.000 F 
ENDBRANCH  16  18
ENDBRANCH   8  12
BRANCH   1  22
ATOM     22  C   UNL     1       4.942   3.739  17.884  0.00  0.00    +0.000 C 
BRANCH  22  24
ATOM     23  O   UNL     1       6.974   4.654  18.776  0.00  0.00    +0.000 OA
ATOM     24  C   UNL     1       6.206   4.543  17.823  0.00  0.00    +0.000 C 
ATOM     25  N   UNL     1       6.498   5.160  16.641  0.00  0.00    +0.000 N 
ATOM     26  H   UNL     1       7.355   5.699  16.680  0.00  0.00    +0.000 HD
BRANCH  25  27
ATOM     27  C   UNL     1       5.598   5.444  15.540  0.00  0.00    +0.000 C 
BRANCH  27  28
ATOM     28  C   UNL     1       6.137   4.794  14.294  0.00  0.00    +0.000 A 
ATOM     29  C   UNL     1       7.350   5.232  13.736  0.00  0.00    +0.000 A 
ATOM     30  C   UNL     1       7.782   4.742  12.502  0.00  0.00    +0.000 A 
ATOM     31  C   UNL     1       7.007   3.810  11.814  0.00  0.00    +0.000 A 
ATOM     32  C   UNL     1       5.818   3.360  12.376  0.00  0.00    +0.000 A 
ATOM     33  F   UNL     1       5.067   2.472  11.710  0.00  0.00    +0.000 F 
ATOM     34  C   UNL     1       5.378   3.839  13.605  0.00  0.00    +0.000 A 
ENDBRANCH  27  28
ENDBRANCH  25  27
ENDBRANCH  22  24
ENDBRANCH   1  22
TORSDOF 6
ENDMDL
MODEL 5
REMARK VINA RESULT:      -9.5      2.875      3.593
REMARK  Name = 
REMARK  6 active torsions:
REMARK  status: ('A' for Active; 'I' for Inactive)
REMARK    1  A    between atoms: C_2  and  C_3
REMARK    2  A    between atoms: C_3  and  C_4
REMARK    3  A    between atoms: C_11  and  C_12
REMARK    4  A    between atoms: C_16  and  C_17
REMARK    5  A    between atoms: N_24  and  C_25
REMARK    6  A    between atoms: C_25  and  C_26
REMARK                            x       y       z     vdW  Elec       q    Type
REMARK                         _______ _______ _______ _____ _____    ______ ____
ROOT
ATOM      1  C   UNL     1       5.064   3.885  19.207  0.00  0.00    +0.000 C 
ATOM      2  C   UNL     1       4.794   2.440  19.666  0.00  0.00    +0.000 C 
ATOM      3  N   UNL     1       3.595   1.891  19.053  0.00  0.00    +0.000 N 
ATOM      4  C   UNL     1       2.429   2.621  18.964  0.00  0.00    +0.000 C 
ATOM      5  O   UNL     1       1.369   2.072  18.684  0.00  0.00    +0.000 OA
ATOM      6  C   UNL     1       2.590   4.037  19.196  0.00  0.00    +0.000 A 
ATOM      7  C   UNL     1       1.653   5.052  19.225  0.00  0.00    +0.000 A 
ATOM      8  C   UNL     1       2.337   6.280  19.467  0.00  0.00    +0.000 A 
ATOM      9  C   UNL     1       3.678   5.975  19.601  0.00  0.00    +0.000 A 
ATOM     10  N   UNL     1       3.815   4.634  19.393  0.00  0.00    +0.000 N 
ATOM     11  H   UNL     1       3.468   0.889  18.985  0.00  0.00    +0.000 HD
ENDROOT
BRANCH   8  12
ATOM     12  C   UNL     1       1.796   7.616  19.633  0.00  0.00    +0.000 A 
ATOM     13  C   UNL     1       1.934   8.597  18.644  0.00  0.00    +0.000 A 
ATOM     14  C   UNL     1       1.472   9.896  18.865  0.00  0.00    +0.000 A 
ATOM     15  C   UNL     1       0.871  10.226  20.082  0.00  0.00    +0.000 A 
ATOM     16  C   UNL     1       0.706   9.254  21.077  0.00  0.00    +0.000 A 
ATOM     17  C   UNL     1       1.156   7.948  20.833  0.00  0.00    +0.000 A 
BRANCH  16  18
ATOM     18  C   UNL     1       0.091   9.577  22.413  0.00  0.00    +0.000 C 
ATOM     19  F   UNL     1       0.915   9.325  23.469  0.00  0.00    +0.000 F 
ATOM     20  F   UNL     1      -0.265  10.888  22.522  0.00  0.00    +0.000 F 
ATOM     21  F   UNL     1      -1.044   8.862  22.648  0.00  0.00    +0.000 F 
ENDBRANCH  16  18
ENDBRANCH   8  12
BRANCH   1  22
ATOM     22  C   UNL     1       5.438   4.007  17.722  0.00  0.00    +0.000 C 
BRANCH  22  24
ATOM     23  O   UNL     1       7.713   4.454  18.342  0.00  0.00    +0.000 OA
ATOM     24  C   UNL     1       6.823   4.534  17.497  0.00  0.00    +0.000 C 
ATOM     25  N   UNL     1       7.085   5.112  16.290  0.00  0.00    +0.000 N 
ATOM     26  H   UNL     1       8.033   5.461  16.217  0.00  0.00    +0.000 HD
BRANCH  25  27
ATOM     27  C   UNL     1       6.131   5.610  15.317  0.00  0.00    +0.000 C 
BRANCH  27  28
ATOM     28  C   UNL     1       6.221   4.765  14.074  0.00  0.00    +0.000 A 
ATOM     29  C   UNL     1       7.400   4.753  13.310  0.00  0.00    +0.000 A 
ATOM     30  C   UNL     1       7.442   4.095  12.080  0.00  0.00    +0.000 A 
ATOM     31  C   UNL     1       6.308   3.442  11.601  0.00  0.00    +0.000 A 
ATOM     32  C   UNL     1       5.148   3.435  12.366  0.00  0.00    +0.000 A 
ATOM     33  F   UNL     1       4.054   2.817  11.901  0.00  0.00    +0.000 F 
ATOM     34  C   UNL     1       5.094   4.085  13.593  0.00  0.00    +0.000 A 
ENDBRANCH  27  28
ENDBRANCH  25  27
ENDBRANCH  22  24
ENDBRANCH   1  22
TORSDOF 6
ENDMDL
MODEL 6
REMARK VINA RESULT:      -9.5      4.397      7.388
REMARK  Name = 
REMARK  6 active torsions:
REMARK  status: ('A' for Active; 'I' for Inactive)
REMARK    1  A    between atoms: C_2  and  C_3
REMARK    2  A    between atoms: C_3  and  C_4
REMARK    3  A    between atoms: C_11  and  C_12
REMARK    4  A    between atoms: C_16  and  C_17
REMARK    5  A    between atoms: N_24  and  C_25
REMARK    6  A    between atoms: C_25  and  C_26
REMARK                            x       y       z     vdW  Elec       q    Type
REMARK                         _______ _______ _______ _____ _____    ______ ____
ROOT
ATOM      1  C   UNL     1       7.086   6.053  16.472  0.00  0.00    +0.000 C 
ATOM      2  C   UNL     1       7.605   4.669  16.904  0.00  0.00    +0.000 C 
ATOM      3  N   UNL     1       7.489   4.469  18.340  0.00  0.00    +0.000 N 
ATOM      4  C   UNL     1       7.854   5.450  19.238  0.00  0.00    +0.000 C 
ATOM      5  O   UNL     1       7.994   5.187  20.427  0.00  0.00    +0.000 OA
ATOM      6  C   UNL     1       8.016   6.763  18.658  0.00  0.00    +0.000 A 
ATOM      7  C   UNL     1       8.404   7.956  19.236  0.00  0.00    +0.000 A 
ATOM      8  C   UNL     1       8.376   8.966  18.231  0.00  0.00    +0.000 A 
ATOM      9  C   UNL     1       7.989   8.353  17.054  0.00  0.00    +0.000 A 
ATOM     10  N   UNL     1       7.737   7.043  17.339  0.00  0.00    +0.000 N 
ATOM     11  H   UNL     1       7.469   3.534  18.727  0.00  0.00    +0.000 HD
ENDROOT
BRANCH   8  12
ATOM     12  C   UNL     1       8.743  10.367  18.324  0.00  0.00    +0.000 A 
ATOM     13  C   UNL     1       8.190  11.334  17.475  0.00  0.00    +0.000 A 
ATOM     14  C   UNL     1       8.621  12.660  17.536  0.00  0.00    +0.000 A 
ATOM     15  C   UNL     1       9.614  13.031  18.446  0.00  0.00    +0.000 A 
ATOM     16  C   UNL     1      10.165  12.083  19.317  0.00  0.00    +0.000 A 
ATOM     17  C   UNL     1       9.708  10.758  19.259  0.00  0.00    +0.000 A 
BRANCH  16  18
ATOM     18  C   UNL     1      11.259  12.436  20.291  0.00  0.00    +0.000 C 
ATOM     19  F   UNL     1      11.748  13.698  20.130  0.00  0.00    +0.000 F 
ATOM     20  F   UNL     1      10.851  12.356  21.588  0.00  0.00    +0.000 F 
ATOM     21  F   UNL     1      12.333  11.605  20.187  0.00  0.00    +0.000 F 
ENDBRANCH  16  18
ENDBRANCH   8  12
BRANCH   1  22
ATOM     22  C   UNL     1       5.571   6.234  16.652  0.00  0.00    +0.000 C 
BRANCH  22  24
ATOM     23  O   UNL     1       4.671   4.421  15.360  0.00  0.00    +0.000 OA
ATOM     24  C   UNL     1       4.792   4.968  16.455  0.00  0.00    +0.000 C 
ATOM     25  N   UNL     1       4.212   4.413  17.558  0.00  0.00    +0.000 N 
ATOM     26  H   UNL     1       3.688   3.572  17.346  0.00  0.00    +0.000 HD
BRANCH  25  27
ATOM     27  C   UNL     1       3.940   5.046  18.834  0.00  0.00    +0.000 C 
BRANCH  27  28
ATOM     28  C   UNL     1       2.789   4.333  19.493  0.00  0.00    +0.000 A 
ATOM     29  C   UNL     1       2.675   4.316  20.893  0.00  0.00    +0.000 A 
ATOM     30  C   UNL     1       1.702   3.533  21.517  0.00  0.00    +0.000 A 
ATOM     31  C   UNL     1       0.833   2.761  20.749  0.00  0.00    +0.000 A 
ATOM     32  C   UNL     1       0.931   2.794  19.362  0.00  0.00    +0.000 A 
ATOM     33  F   UNL     1       0.104   2.043  18.624  0.00  0.00    +0.000 F 
ATOM     34  C   UNL     1       1.895   3.570  18.730  0.00  0.00    +0.000 A 
ENDBRANCH  27  28
ENDBRANCH  25  27
ENDBRANCH  22  24
ENDBRANCH   1  22
TORSDOF 6
ENDMDL
MODEL 7
REMARK VINA RESULT:      -9.5      3.218      4.243
REMARK  Name = 
REMARK  6 active torsions:
REMARK  status: ('A' for Active; 'I' for Inactive)
REMARK    1  A    between atoms: C_2  and  C_3
REMARK    2  A    between atoms: C_3  and  C_4
REMARK    3  A    between atoms: C_11  and  C_12
REMARK    4  A    between atoms: C_16  and  C_17
REMARK    5  A    between atoms: N_24  and  C_25
REMARK    6  A    between atoms: C_25  and  C_26
REMARK                            x       y       z     vdW  Elec       q    Type
REMARK                         _______ _______ _______ _____ _____    ______ ____
ROOT
ATOM      1  C   UNL     1       5.585   5.438  17.816  0.00  0.00    +0.000 C 
ATOM      2  C   UNL     1       6.272   4.306  18.602  0.00  0.00    +0.000 C 
ATOM      3  N   UNL     1       5.326   3.281  19.015  0.00  0.00    +0.000 N 
ATOM      4  C   UNL     1       4.101   3.604  19.558  0.00  0.00    +0.000 C 
ATOM      5  O   UNL     1       3.428   2.754  20.130  0.00  0.00    +0.000 OA
ATOM      6  C   UNL     1       3.703   4.979  19.362  0.00  0.00    +0.000 A 
ATOM      7  C   UNL     1       2.579   5.655  19.793  0.00  0.00    +0.000 A 
ATOM      8  C   UNL     1       2.652   6.993  19.306  0.00  0.00    +0.000 A 
ATOM      9  C   UNL     1       3.838   7.102  18.604  0.00  0.00    +0.000 A 
ATOM     10  N   UNL     1       4.432   5.875  18.613  0.00  0.00    +0.000 N 
ATOM     11  H   UNL     1       5.648   2.346  19.234  0.00  0.00    +0.000 HD
ENDROOT
BRANCH   8  12
ATOM     12  C   UNL     1       1.743   8.103  19.525  0.00  0.00    +0.000 A 
ATOM     13  C   UNL     1       1.464   9.039  18.521  0.00  0.00    +0.000 A 
ATOM     14  C   UNL     1       0.647  10.140  18.786  0.00  0.00    +0.000 A 
ATOM     15  C   UNL     1       0.106  10.316  20.061  0.00  0.00    +0.000 A 
ATOM     16  C   UNL     1       0.356   9.381  21.073  0.00  0.00    +0.000 A 
ATOM     17  C   UNL     1       1.162   8.269  20.787  0.00  0.00    +0.000 A 
BRANCH  16  18
ATOM     18  C   UNL     1      -0.184   9.552  22.468  0.00  0.00    +0.000 C 
ATOM     19  F   UNL     1      -0.836  10.733  22.662  0.00  0.00    +0.000 F 
ATOM     20  F   UNL     1      -1.071   8.576  22.809  0.00  0.00    +0.000 F 
ATOM     21  F   UNL     1       0.796   9.510  23.413  0.00  0.00    +0.000 F 
ENDBRANCH  16  18
ENDBRANCH   8  12
BRANCH   1  22
ATOM     22  C   UNL     1       5.039   5.004  16.447  0.00  0.00    +0.000 C 
BRANCH  22  24
ATOM     23  O   UNL     1       4.967   7.044  15.183  0.00  0.00    +0.000 OA
ATOM     24  C   UNL     1       5.440   5.918  15.328  0.00  0.00    +0.000 C 
ATOM     25  N   UNL     1       6.383   5.461  14.454  0.00  0.00    +0.000 N 
ATOM     26  H   UNL     1       6.589   6.123  13.716  0.00  0.00    +0.000 HD
BRANCH  25  27
ATOM     27  C   UNL     1       6.803   4.090  14.236  0.00  0.00    +0.000 C 
BRANCH  27  28
ATOM     28  C   UNL     1       6.106   3.559  13.012  0.00  0.00    +0.000 A 
ATOM     29  C   UNL     1       4.820   4.014  12.677  0.00  0.00    +0.000 A 
ATOM     30  C   UNL     1       4.105   3.420  11.635  0.00  0.00    +0.000 A 
ATOM     31  C   UNL     1       4.668   2.366  10.918  0.00  0.00    +0.000 A 
ATOM     32  C   UNL     1       5.949   1.929  11.236  0.00  0.00    +0.000 A 
ATOM     33  F   UNL     1       6.486   0.908  10.554  0.00  0.00    +0.000 F 
ATOM     34  C   UNL     1       6.671   2.514  12.270  0.00  0.00    +0.000 A 
ENDBRANCH  27  28
ENDBRANCH  25  27
ENDBRANCH  22  24
ENDBRANCH   1  22
TORSDOF 6
ENDMDL
MODEL 8
REMARK VINA RESULT:      -9.4      3.386      8.154
REMARK  Name = 
REMARK  6 active torsions:
REMARK  status: ('A' for Active; 'I' for Inactive)
REMARK    1  A    between atoms: C_2  and  C_3
REMARK    2  A    between atoms: C_3  and  C_4
REMARK    3  A    between atoms: C_11  and  C_12
REMARK    4  A    between atoms: C_16  and  C_17
REMARK    5  A    between atoms: N_24  and  C_25
REMARK    6  A    between atoms: C_25  and  C_26
REMARK                            x       y       z     vdW  Elec       q    Type
REMARK                         _______ _______ _______ _____ _____    ______ ____
ROOT
ATOM      1  C   UNL     1       1.830   5.091  19.225  0.00  0.00    +0.000 C 
ATOM      2  C   UNL     1       1.163   3.981  20.059  0.00  0.00    +0.000 C 
ATOM      3  N   UNL     1       2.123   3.282  20.899  0.00  0.00    +0.000 N 
ATOM      4  C   UNL     1       3.352   2.884  20.417  0.00  0.00    +0.000 C 
ATOM      5  O   UNL     1       4.039   2.085  21.042  0.00  0.00    +0.000 OA
ATOM      6  C   UNL     1       3.735   3.505  19.170  0.00  0.00    +0.000 A 
ATOM      7  C   UNL     1       4.858   3.322  18.387  0.00  0.00    +0.000 A 
ATOM      8  C   UNL     1       4.767   4.202  17.269  0.00  0.00    +0.000 A 
ATOM      9  C   UNL     1       3.572   4.885  17.390  0.00  0.00    +0.000 A 
ATOM     10  N   UNL     1       2.988   4.485  18.556  0.00  0.00    +0.000 N 
ATOM     11  H   UNL     1       1.812   2.778  21.721  0.00  0.00    +0.000 HD
ENDROOT
BRANCH   8  12
ATOM     12  C   UNL     1       5.668   4.352  16.141  0.00  0.00    +0.000 A 
ATOM     13  C   UNL     1       6.866   5.071  16.244  0.00  0.00    +0.000 A 
ATOM     14  C   UNL     1       7.674   5.265  15.122  0.00  0.00    +0.000 A 
ATOM     15  C   UNL     1       7.287   4.745  13.885  0.00  0.00    +0.000 A 
ATOM     16  C   UNL     1       6.103   4.006  13.765  0.00  0.00    +0.000 A 
ATOM     17  C   UNL     1       5.311   3.801  14.905  0.00  0.00    +0.000 A 
BRANCH  16  18
ATOM     18  C   UNL     1       5.636   3.456  12.444  0.00  0.00    +0.000 C 
ATOM     19  F   UNL     1       6.241   4.032  11.367  0.00  0.00    +0.000 F 
ATOM     20  F   UNL     1       5.860   2.117  12.326  0.00  0.00    +0.000 F 
ATOM     21  F   UNL     1       4.298   3.627  12.254  0.00  0.00    +0.000 F 
ENDBRANCH  16  18
ENDBRANCH   8  12
BRANCH   1  22
ATOM     22  C   UNL     1       2.364   6.263  20.062  0.00  0.00    +0.000 C 
BRANCH  22  24
ATOM     23  O   UNL     1       2.721   7.907  18.349  0.00  0.00    +0.000 OA
ATOM     24  C   UNL     1       2.175   7.598  19.407  0.00  0.00    +0.000 C 
ATOM     25  N   UNL     1       1.344   8.487  20.024  0.00  0.00    +0.000 N 
ATOM     26  H   UNL     1       1.280   9.371  19.535  0.00  0.00    +0.000 HD
BRANCH  25  27
ATOM     27  C   UNL     1       0.889   8.469  21.402  0.00  0.00    +0.000 C 
BRANCH  27  28
ATOM     28  C   UNL     1       0.086   9.715  21.662  0.00  0.00    +0.000 A 
ATOM     29  C   UNL     1      -0.422   9.974  22.946  0.00  0.00    +0.000 A 
ATOM     30  C   UNL     1      -1.292  11.044  23.163  0.00  0.00    +0.000 A 
ATOM     31  C   UNL     1      -1.664  11.865  22.100  0.00  0.00    +0.000 A 
ATOM     32  C   UNL     1      -1.145  11.622  20.834  0.00  0.00    +0.000 A 
ATOM     33  F   UNL     1      -1.511  12.404  19.809  0.00  0.00    +0.000 F 
ATOM     34  C   UNL     1      -0.277  10.561  20.605  0.00  0.00    +0.000 A 
ENDBRANCH  27  28
ENDBRANCH  25  27
ENDBRANCH  22  24
ENDBRANCH   1  22
TORSDOF 6
ENDMDL
MODEL 9
REMARK VINA RESULT:      -9.4      2.688      3.659
REMARK  Name = 
REMARK  6 active torsions:
REMARK  status: ('A' for Active; 'I' for Inactive)
REMARK    1  A    between atoms: C_2  and  C_3
REMARK    2  A    between atoms: C_3  and  C_4
REMARK    3  A    between atoms: C_11  and  C_12
REMARK    4  A    between atoms: C_16  and  C_17
REMARK    5  A    between atoms: N_24  and  C_25
REMARK    6  A    between atoms: C_25  and  C_26
REMARK                            x       y       z     vdW  Elec       q    Type
REMARK                         _______ _______ _______ _____ _____    ______ ____
ROOT
ATOM      1  C   UNL     1       5.227   4.908  19.200  0.00  0.00    +0.000 C 
ATOM      2  C   UNL     1       5.011   3.383  19.195  0.00  0.00    +0.000 C 
ATOM      3  N   UNL     1       4.093   2.968  18.146  0.00  0.00    +0.000 N 
ATOM      4  C   UNL     1       2.918   3.648  17.903  0.00  0.00    +0.000 C 
ATOM      5  O   UNL     1       2.043   3.150  17.203  0.00  0.00    +0.000 OA
ATOM      6  C   UNL     1       2.846   4.956  18.509  0.00  0.00    +0.000 A 
ATOM      7  C   UNL     1       1.826   5.888  18.512  0.00  0.00    +0.000 A 
ATOM      8  C   UNL     1       2.273   7.033  19.233  0.00  0.00    +0.000 A 
ATOM      9  C   UNL     1       3.555   6.759  19.671  0.00  0.00    +0.000 A 
ATOM     10  N   UNL     1       3.896   5.528  19.193  0.00  0.00    +0.000 N 
ATOM     11  H   UNL     1       4.105   2.016  17.803  0.00  0.00    +0.000 HD
ENDROOT
BRANCH   8  12
ATOM     12  C   UNL     1       1.557   8.254  19.555  0.00  0.00    +0.000 A 
ATOM     13  C   UNL     1       1.404   9.288  18.623  0.00  0.00    +0.000 A 
ATOM     14  C   UNL     1       0.779  10.483  18.987  0.00  0.00    +0.000 A 
ATOM     15  C   UNL     1       0.306  10.654  20.290  0.00  0.00    +0.000 A 
ATOM     16  C   UNL     1       0.432   9.624  21.231  0.00  0.00    +0.000 A 
ATOM     17  C   UNL     1       1.043   8.422  20.846  0.00  0.00    +0.000 A 
BRANCH  16  18
ATOM     18  C   UNL     1      -0.037   9.782  22.653  0.00  0.00    +0.000 C 
ATOM     19  F   UNL     1      -0.465  11.041  22.952  0.00  0.00    +0.000 F 
ATOM     20  F   UNL     1      -1.075   8.953  22.957  0.00  0.00    +0.000 F 
ATOM     21  F   UNL     1       0.942   9.498  23.556  0.00  0.00    +0.000 F 
ENDBRANCH  16  18
ENDBRANCH   8  12
BRANCH   1  22
ATOM     22  C   UNL     1       5.970   5.436  17.964  0.00  0.00    +0.000 C 
BRANCH  22  24
ATOM     23  O   UNL     1       8.141   4.412  17.985  0.00  0.00    +0.000 OA
ATOM     24  C   UNL     1       7.031   4.503  17.463  0.00  0.00    +0.000 C 
ATOM     25  N   UNL     1       6.723   3.723  16.387  0.00  0.00    +0.000 N 
ATOM     26  H   UNL     1       7.493   3.134  16.095  0.00  0.00    +0.000 HD
BRANCH  25  27
ATOM     27  C   UNL     1       5.645   3.909  15.435  0.00  0.00    +0.000 C 
BRANCH  27  28
ATOM     28  C   UNL     1       6.239   4.197  14.082  0.00  0.00    +0.000 A 
ATOM     29  C   UNL     1       5.867   3.427  12.967  0.00  0.00    +0.000 A 
ATOM     30  C   UNL     1       6.521   3.585  11.744  0.00  0.00    +0.000 A 
ATOM     31  C   UNL     1       7.553   4.514  11.623  0.00  0.00    +0.000 A 
ATOM     32  C   UNL     1       7.908   5.291  12.719  0.00  0.00    +0.000 A 
ATOM     33  F   UNL     1       8.907   6.176  12.606  0.00  0.00    +0.000 F 
ATOM     34  C   UNL     1       7.262   5.144  13.942  0.00  0.00    +0.000 A 
ENDBRANCH  27  28
ENDBRANCH  25  27
ENDBRANCH  22  24
ENDBRANCH   1  22
TORSDOF 6
ENDMDL
