MODEL 1
REMARK VINA RESULT:      -8.9      0.000      0.000
REMARK  Name = 
REMARK  9 active torsions:
REMARK  status: ('A' for Active; 'I' for Inactive)
REMARK    1  A    between atoms: C_1  and  C_2
REMARK    2  A    between atoms: C_2  and  C_3
REMARK    3  A    between atoms: C_2  and  C_4
REMARK    4  A    between atoms: C_2  and  C_21
REMARK    5  A    between atoms: C_4  and  C_5
REMARK    6  A    between atoms: C_5  and  O_6
REMARK    7  A    between atoms: C_5  and  C_7
REMARK    8  A    between atoms: C_5  and  C_17
REMARK    9  A    between atoms: C_7  and  C_8
REMARK                            x       y       z     vdW  Elec       q    Type
REMARK                         _______ _______ _______ _____ _____    ______ ____
ROOT
ATOM      1  C   UNL     1       2.392   4.095  20.226  0.00  0.00    +0.000 C 
ENDROOT
BRANCH   1   2
ATOM      2  C   UNL     1       1.318   3.006  20.577  0.00  0.00    +0.000 C 
ATOM      3  F   UNL     1       0.122   3.237  19.982  0.00  0.00    +0.000 F 
ATOM      4  F   UNL     1       1.703   1.770  20.197  0.00  0.00    +0.000 F 
ATOM      5  F   UNL     1       1.066   2.948  21.914  0.00  0.00    +0.000 F 
ENDBRANCH   1   2
BRANCH   1   6
ATOM      6  O   UNL     1       2.768   4.833  21.405  0.00  0.00    +0.000 OA
ATOM      7  H   UNL     1       2.249   5.654  21.441  0.00  0.00    +0.000 HD
ENDBRANCH   1   6
BRANCH   1   8
ATOM      8  C   UNL     1       3.671   3.359  19.673  0.00  0.00    +0.000 C 
BRANCH   8  10
ATOM      9  C   UNL     1       4.225   1.528  17.988  0.00  0.00    +0.000 C 
ATOM     10  C   UNL     1       3.920   3.041  18.140  0.00  0.00    +0.000 C 
ATOM     11  C   UNL     1       2.551   3.302  17.441  0.00  0.00    +0.000 C 
BRANCH  10  12
ATOM     12  C   UNL     1       4.904   3.937  17.368  0.00  0.00    +0.000 A 
ATOM     13  C   UNL     1       5.049   3.862  15.967  0.00  0.00    +0.000 A 
ATOM     14  C   UNL     1       5.999   4.638  15.264  0.00  0.00    +0.000 A 
ATOM     15  C   UNL     1       6.870   5.486  15.940  0.00  0.00    +0.000 A 
ATOM     16  C   UNL     1       6.797   5.504  17.315  0.00  0.00    +0.000 A 
ATOM     17  C   UNL     1       5.834   4.764  18.004  0.00  0.00    +0.000 A 
ATOM     18  O   UNL     1       5.968   4.908  19.365  0.00  0.00    +0.000 OA
ATOM     19  C   UNL     1       7.286   5.471  19.537  0.00  0.00    +0.000 C 
ATOM     20  C   UNL     1       7.633   6.257  18.276  0.00  0.00    +0.000 C 
ENDBRANCH  10  12
ENDBRANCH   8  10
ENDBRANCH   1   8
BRANCH   1  21
ATOM     21  C   UNL     1       1.822   5.049  19.161  0.00  0.00    +0.000 C 
BRANCH  21  22
ATOM     22  C   UNL     1       2.076   6.527  19.261  0.00  0.00    +0.000 A 
ATOM     23  C   UNL     1       2.405   7.442  18.277  0.00  0.00    +0.000 A 
ATOM     24  C   UNL     1       1.965   8.722  18.722  0.00  0.00    +0.000 A 
ATOM     25  C   UNL     1       1.821   9.971  18.107  0.00  0.00    +0.000 A 
ATOM     26  C   UNL     1       1.208  10.964  18.860  0.00  0.00    +0.000 A 
ATOM     27  N   UNL     1       0.799  10.819  20.141  0.00  0.00    +0.000 NA
ATOM     28  C   UNL     1       0.976   9.627  20.757  0.00  0.00    +0.000 A 
ATOM     29  C   UNL     1       1.533   8.576  20.038  0.00  0.00    +0.000 A 
ATOM     30  N   UNL     1       1.736   7.258  20.384  0.00  0.00    +0.000 N 
ATOM     31  H   UNL     1       1.497   6.860  21.280  0.00  0.00    +0.000 HD
ENDBRANCH  21  22
ENDBRANCH   1  21
TORSDOF 7
ENDMDL
MODEL 2
REMARK VINA RESULT:      -8.8      0.787      1.140
REMARK  Name = 
REMARK  9 active torsions:
REMARK  status: ('A' for Active; 'I' for Inactive)
REMARK    1  A    between atoms: C_1  and  C_2
REMARK    2  A    between atoms: C_2  and  C_3
REMARK    3  A    between atoms: C_2  and  C_4
REMARK    4  A    between atoms: C_2  and  C_21
REMARK    5  A    between atoms: C_4  and  C_5
REMARK    6  A    between atoms: C_5  and  O_6
REMARK    7  A    between atoms: C_5  and  C_7
REMARK    8  A    between atoms: C_5  and  C_17
REMARK    9  A    between atoms: C_7  and  C_8
REMARK                            x       y       z     vdW  Elec       q    Type
REMARK                         _______ _______ _______ _____ _____    ______ ____
ROOT
ATOM      1  C   UNL     1       2.448   4.174  20.422  0.00  0.00    +0.000 C 
ENDROOT
BRANCH   1   2
ATOM      2  C   UNL     1       1.969   2.882  21.172  0.00  0.00    +0.000 C 
ATOM      3  F   UNL     1       2.934   2.342  21.956  0.00  0.00    +0.000 F 
ATOM      4  F   UNL     1       0.912   3.121  21.975  0.00  0.00    +0.000 F 
ATOM      5  F   UNL     1       1.595   1.898  20.307  0.00  0.00    +0.000 F 
ENDBRANCH   1   2
BRANCH   1   6
ATOM      6  O   UNL     1       3.722   4.611  20.931  0.00  0.00    +0.000 OA
ATOM      7  H   UNL     1       4.413   4.390  20.283  0.00  0.00    +0.000 HD
ENDBRANCH   1   6
BRANCH   1   8
ATOM      8  C   UNL     1       2.620   3.817  18.897  0.00  0.00    +0.000 C 
BRANCH   8  10
ATOM      9  C   UNL     1       4.645   2.349  19.388  0.00  0.00    +0.000 C 
ATOM     10  C   UNL     1       3.924   3.159  18.280  0.00  0.00    +0.000 C 
ATOM     11  C   UNL     1       3.403   2.131  17.230  0.00  0.00    +0.000 C 
BRANCH  10  12
ATOM     12  C   UNL     1       4.874   4.060  17.473  0.00  0.00    +0.000 A 
ATOM     13  C   UNL     1       4.953   4.001  16.065  0.00  0.00    +0.000 A 
ATOM     14  C   UNL     1       5.872   4.781  15.328  0.00  0.00    +0.000 A 
ATOM     15  C   UNL     1       6.778   5.617  15.971  0.00  0.00    +0.000 A 
ATOM     16  C   UNL     1       6.771   5.619  17.349  0.00  0.00    +0.000 A 
ATOM     17  C   UNL     1       5.838   4.875  18.073  0.00  0.00    +0.000 A 
ATOM     18  O   UNL     1       6.037   5.002  19.429  0.00  0.00    +0.000 OA
ATOM     19  C   UNL     1       7.364   5.557  19.544  0.00  0.00    +0.000 C 
ATOM     20  C   UNL     1       7.655   6.357  18.278  0.00  0.00    +0.000 C 
ENDBRANCH  10  12
ENDBRANCH   8  10
ENDBRANCH   1   8
BRANCH   1  21
ATOM     21  C   UNL     1       1.396   5.284  20.596  0.00  0.00    +0.000 C 
BRANCH  21  22
ATOM     22  C   UNL     1       1.748   6.711  20.281  0.00  0.00    +0.000 A 
ATOM     23  C   UNL     1       2.181   7.279  19.097  0.00  0.00    +0.000 A 
ATOM     24  C   UNL     1       1.813   8.656  19.126  0.00  0.00    +0.000 A 
ATOM     25  C   UNL     1       1.783   9.676  18.169  0.00  0.00    +0.000 A 
ATOM     26  C   UNL     1       1.210  10.878  18.565  0.00  0.00    +0.000 A 
ATOM     27  N   UNL     1       0.738  11.135  19.805  0.00  0.00    +0.000 NA
ATOM     28  C   UNL     1       0.805  10.168  20.749  0.00  0.00    +0.000 A 
ATOM     29  C   UNL     1       1.317   8.924  20.399  0.00  0.00    +0.000 A 
ATOM     30  N   UNL     1       1.413   7.756  21.122  0.00  0.00    +0.000 N 
ATOM     31  H   UNL     1       1.109   7.649  22.078  0.00  0.00    +0.000 HD
ENDBRANCH  21  22
ENDBRANCH   1  21
TORSDOF 7
ENDMDL
MODEL 3
REMARK VINA RESULT:      -8.6      0.676      1.054
REMARK  Name = 
REMARK  9 active torsions:
REMARK  status: ('A' for Active; 'I' for Inactive)
REMARK    1  A    between atoms: C_1  and  C_2
REMARK    2  A    between atoms: C_2  and  C_3
REMARK    3  A    between atoms: C_2  and  C_4
REMARK    4  A    between atoms: C_2  and  C_21
REMARK    5  A    between atoms: C_4  and  C_5
REMARK    6  A    between atoms: C_5  and  O_6
REMARK    7  A    between atoms: C_5  and  C_7
REMARK    8  A    between atoms: C_5  and  C_17
REMARK    9  A    between atoms: C_7  and  C_8
REMARK                            x       y       z     vdW  Elec       q    Type
REMARK                         _______ _______ _______ _____ _____    ______ ____
ROOT
ATOM      1  C   UNL     1       2.350   4.155  20.393  0.00  0.00    +0.000 C 
ENDROOT
BRANCH   1   2
ATOM      2  C   UNL     1       1.338   2.970  20.571  0.00  0.00    +0.000 C 
ATOM      3  F   UNL     1       1.865   1.772  20.219  0.00  0.00    +0.000 F 
ATOM      4  F   UNL     1       0.920   2.844  21.847  0.00  0.00    +0.000 F 
ATOM      5  F   UNL     1       0.224   3.129  19.804  0.00  0.00    +0.000 F 
ENDBRANCH   1   2
BRANCH   1   6
ATOM      6  O   UNL     1       2.739   4.684  21.675  0.00  0.00    +0.000 OA
ATOM      7  H   UNL     1       2.150   4.320  22.358  0.00  0.00    +0.000 HD
ENDBRANCH   1   6
BRANCH   1   8
ATOM      8  C   UNL     1       3.637   3.595  19.678  0.00  0.00    +0.000 C 
BRANCH   8  10
ATOM      9  C   UNL     1       3.821   1.821  17.856  0.00  0.00    +0.000 C 
ATOM     10  C   UNL     1       3.749   3.348  18.115  0.00  0.00    +0.000 C 
ATOM     11  C   UNL     1       2.394   3.846  17.525  0.00  0.00    +0.000 C 
BRANCH  10  12
ATOM     12  C   UNL     1       4.806   4.145  17.332  0.00  0.00    +0.000 A 
ATOM     13  C   UNL     1       4.976   4.005  15.939  0.00  0.00    +0.000 A 
ATOM     14  C   UNL     1       5.990   4.687  15.229  0.00  0.00    +0.000 A 
ATOM     15  C   UNL     1       6.901   5.502  15.892  0.00  0.00    +0.000 A 
ATOM     16  C   UNL     1       6.801   5.580  17.264  0.00  0.00    +0.000 A 
ATOM     17  C   UNL     1       5.777   4.933  17.958  0.00  0.00    +0.000 A 
ATOM     18  O   UNL     1       5.891   5.123  19.315  0.00  0.00    +0.000 OA
ATOM     19  C   UNL     1       7.240   5.605  19.496  0.00  0.00    +0.000 C 
ATOM     20  C   UNL     1       7.666   6.315  18.215  0.00  0.00    +0.000 C 
ENDBRANCH  10  12
ENDBRANCH   8  10
ENDBRANCH   1   8
BRANCH   1  21
ATOM     21  C   UNL     1       1.700   5.258  19.537  0.00  0.00    +0.000 C 
BRANCH  21  22
ATOM     22  C   UNL     1       1.874   6.702  19.913  0.00  0.00    +0.000 A 
ATOM     23  C   UNL     1       1.995   7.822  19.110  0.00  0.00    +0.000 A 
ATOM     24  C   UNL     1       1.547   8.941  19.870  0.00  0.00    +0.000 A 
ATOM     25  C   UNL     1       1.236  10.269  19.558  0.00  0.00    +0.000 A 
ATOM     26  C   UNL     1       0.681  11.031  20.578  0.00  0.00    +0.000 A 
ATOM     27  N   UNL     1       0.478  10.595  21.842  0.00  0.00    +0.000 NA
ATOM     28  C   UNL     1       0.818   9.326  22.163  0.00  0.00    +0.000 A 
ATOM     29  C   UNL     1       1.326   8.496  21.170  0.00  0.00    +0.000 A 
ATOM     30  N   UNL     1       1.660   7.160  21.200  0.00  0.00    +0.000 N 
ATOM     31  H   UNL     1       1.582   6.570  22.015  0.00  0.00    +0.000 HD
ENDBRANCH  21  22
ENDBRANCH   1  21
TORSDOF 7
ENDMDL
MODEL 4
REMARK VINA RESULT:      -8.6      1.183      1.758
REMARK  Name = 
REMARK  9 active torsions:
REMARK  status: ('A' for Active; 'I' for Inactive)
REMARK    1  A    between atoms: C_1  and  C_2
REMARK    2  A    between atoms: C_2  and  C_3
REMARK    3  A    between atoms: C_2  and  C_4
REMARK    4  A    between atoms: C_2  and  C_21
REMARK    5  A    between atoms: C_4  and  C_5
REMARK    6  A    between atoms: C_5  and  O_6
REMARK    7  A    between atoms: C_5  and  C_7
REMARK    8  A    between atoms: C_5  and  C_17
REMARK    9  A    between atoms: C_7  and  C_8
REMARK                            x       y       z     vdW  Elec       q    Type
REMARK                         _______ _______ _______ _____ _____    ______ ____
ROOT
ATOM      1  C   UNL     1       2.334   5.105  19.528  0.00  0.00    +0.000 C 
ENDROOT
BRANCH   1   2
ATOM      2  C   UNL     1       1.421   4.346  20.554  0.00  0.00    +0.000 C 
ATOM      3  F   UNL     1       1.948   4.315  21.803  0.00  0.00    +0.000 F 
ATOM      4  F   UNL     1       0.202   4.911  20.667  0.00  0.00    +0.000 F 
ATOM      5  F   UNL     1       1.223   3.046  20.199  0.00  0.00    +0.000 F 
ENDBRANCH   1   2
BRANCH   1   6
ATOM      6  O   UNL     1       3.570   5.505  20.149  0.00  0.00    +0.000 OA
ATOM      7  H   UNL     1       4.287   4.940  19.815  0.00  0.00    +0.000 HD
ENDBRANCH   1   6
BRANCH   1   8
ATOM      8  C   UNL     1       2.670   4.114  18.349  0.00  0.00    +0.000 C 
BRANCH   8  10
ATOM      9  C   UNL     1       4.541   2.885  19.569  0.00  0.00    +0.000 C 
ATOM     10  C   UNL     1       4.063   3.377  18.178  0.00  0.00    +0.000 C 
ATOM     11  C   UNL     1       3.751   2.108  17.328  0.00  0.00    +0.000 C 
BRANCH  10  12
ATOM     12  C   UNL     1       5.165   4.094  17.378  0.00  0.00    +0.000 A 
ATOM     13  C   UNL     1       5.420   3.803  16.021  0.00  0.00    +0.000 A 
ATOM     14  C   UNL     1       6.474   4.413  15.304  0.00  0.00    +0.000 A 
ATOM     15  C   UNL     1       7.341   5.304  15.928  0.00  0.00    +0.000 A 
ATOM     16  C   UNL     1       7.157   5.530  17.274  0.00  0.00    +0.000 A 
ATOM     17  C   UNL     1       6.093   4.954  17.971  0.00  0.00    +0.000 A 
ATOM     18  O   UNL     1       6.124   5.292  19.304  0.00  0.00    +0.000 OA
ATOM     19  C   UNL     1       7.458   5.803  19.513  0.00  0.00    +0.000 C 
ATOM     20  C   UNL     1       7.960   6.372  18.189  0.00  0.00    +0.000 C 
ENDBRANCH  10  12
ENDBRANCH   8  10
ENDBRANCH   1   8
BRANCH   1  21
ATOM     21  C   UNL     1       1.584   6.338  18.992  0.00  0.00    +0.000 C 
BRANCH  21  22
ATOM     22  C   UNL     1       1.615   7.629  19.760  0.00  0.00    +0.000 A 
ATOM     23  C   UNL     1       1.438   8.929  19.321  0.00  0.00    +0.000 A 
ATOM     24  C   UNL     1       0.975   9.693  20.432  0.00  0.00    +0.000 A 
ATOM     25  C   UNL     1       0.431  10.975  20.573  0.00  0.00    +0.000 A 
ATOM     26  C   UNL     1      -0.040  11.310  21.836  0.00  0.00    +0.000 A 
ATOM     27  N   UNL     1       0.040  10.514  22.925  0.00  0.00    +0.000 NA
ATOM     28  C   UNL     1       0.605   9.291  22.806  0.00  0.00    +0.000 A 
ATOM     29  C   UNL     1       1.046   8.874  21.555  0.00  0.00    +0.000 A 
ATOM     30  N   UNL     1       1.564   7.667  21.141  0.00  0.00    +0.000 N 
ATOM     31  H   UNL     1       1.712   6.872  21.744  0.00  0.00    +0.000 HD
ENDBRANCH  21  22
ENDBRANCH   1  21
TORSDOF 7
ENDMDL
MODEL 5
REMARK VINA RESULT:      -8.5      2.507      5.981
REMARK  Name = 
REMARK  9 active torsions:
REMARK  status: ('A' for Active; 'I' for Inactive)
REMARK    1  A    between atoms: C_1  and  C_2
REMARK    2  A    between atoms: C_2  and  C_3
REMARK    3  A    between atoms: C_2  and  C_4
REMARK    4  A    between atoms: C_2  and  C_21
REMARK    5  A    between atoms: C_4  and  C_5
REMARK    6  A    between atoms: C_5  and  O_6
REMARK    7  A    between atoms: C_5  and  C_7
REMARK    8  A    between atoms: C_5  and  C_17
REMARK    9  A    between atoms: C_7  and  C_8
REMARK                            x       y       z     vdW  Elec       q    Type
REMARK                         _______ _______ _______ _____ _____    ______ ____
ROOT
ATOM      1  C   UNL     1       2.054   3.915  19.093  0.00  0.00    +0.000 C 
ENDROOT
BRANCH   1   2
ATOM      2  C   UNL     1       1.330   4.104  20.472  0.00  0.00    +0.000 C 
ATOM      3  F   UNL     1       0.438   5.124  20.462  0.00  0.00    +0.000 F 
ATOM      4  F   UNL     1       0.647   3.001  20.843  0.00  0.00    +0.000 F 
ATOM      5  F   UNL     1       2.207   4.382  21.476  0.00  0.00    +0.000 F 
ENDBRANCH   1   2
BRANCH   1   6
ATOM      6  O   UNL     1       1.401   2.895  18.314  0.00  0.00    +0.000 OA
ATOM      7  H   UNL     1       1.871   2.053  18.441  0.00  0.00    +0.000 HD
ENDBRANCH   1   6
BRANCH   1   8
ATOM      8  C   UNL     1       1.962   5.276  18.304  0.00  0.00    +0.000 C 
BRANCH   8  10
ATOM      9  C   UNL     1       3.628   6.286  19.947  0.00  0.00    +0.000 C 
ATOM     10  C   UNL     1       2.768   6.585  18.692  0.00  0.00    +0.000 C 
ATOM     11  C   UNL     1       3.756   6.821  17.509  0.00  0.00    +0.000 C 
BRANCH  10  12
ATOM     12  C   UNL     1       1.990   7.909  18.792  0.00  0.00    +0.000 A 
ATOM     13  C   UNL     1       1.922   8.825  17.721  0.00  0.00    +0.000 A 
ATOM     14  C   UNL     1       1.264  10.070  17.833  0.00  0.00    +0.000 A 
ATOM     15  C   UNL     1       0.685  10.466  19.034  0.00  0.00    +0.000 A 
ATOM     16  C   UNL     1       0.820   9.620  20.112  0.00  0.00    +0.000 A 
ATOM     17  C   UNL     1       1.440   8.375  19.989  0.00  0.00    +0.000 A 
ATOM     18  O   UNL     1       1.489   7.716  21.195  0.00  0.00    +0.000 OA
ATOM     19  C   UNL     1       1.213   8.740  22.174  0.00  0.00    +0.000 C 
ATOM     20  C   UNL     1       0.362   9.816  21.506  0.00  0.00    +0.000 C 
ENDBRANCH  10  12
ENDBRANCH   8  10
ENDBRANCH   1   8
BRANCH   1  21
ATOM     21  C   UNL     1       3.527   3.538  19.336  0.00  0.00    +0.000 C 
BRANCH  21  22
ATOM     22  C   UNL     1       4.488   3.474  18.183  0.00  0.00    +0.000 A 
ATOM     23  C   UNL     1       4.250   3.258  16.838  0.00  0.00    +0.000 A 
ATOM     24  C   UNL     1       5.321   3.860  16.114  0.00  0.00    +0.000 A 
ATOM     25  C   UNL     1       5.538   4.158  14.765  0.00  0.00    +0.000 A 
ATOM     26  C   UNL     1       6.678   4.895  14.470  0.00  0.00    +0.000 A 
ATOM     27  N   UNL     1       7.597   5.289  15.379  0.00  0.00    +0.000 NA
ATOM     28  C   UNL     1       7.417   4.966  16.680  0.00  0.00    +0.000 A 
ATOM     29  C   UNL     1       6.267   4.276  17.047  0.00  0.00    +0.000 A 
ATOM     30  N   UNL     1       5.796   3.910  18.289  0.00  0.00    +0.000 N 
ATOM     31  H   UNL     1       6.270   4.101  19.159  0.00  0.00    +0.000 HD
ENDBRANCH  21  22
ENDBRANCH   1  21
TORSDOF 7
ENDMDL
MODEL 6
REMARK VINA RESULT:      -8.5      0.939      1.246
REMARK  Name = 
REMARK  9 active torsions:
REMARK  status: ('A' for Active; 'I' for Inactive)
REMARK    1  A    between atoms: C_1  and  C_2
REMARK    2  A    between atoms: C_2  and  C_3
REMARK    3  A    between atoms: C_2  and  C_4
REMARK    4  A    between atoms: C_2  and  C_21
REMARK    5  A    between atoms: C_4  and  C_5
REMARK    6  A    between atoms: C_5  and  O_6
REMARK    7  A    between atoms: C_5  and  C_7
REMARK    8  A    between atoms: C_5  and  C_17
REMARK    9  A    between atoms: C_7  and  C_8
REMARK                            x       y       z     vdW  Elec       q    Type
REMARK                         _______ _______ _______ _____ _____    ______ ____
ROOT
ATOM      1  C   UNL     1       2.434   4.624  20.267  0.00  0.00    +0.000 C 
ENDROOT
BRANCH   1   2
ATOM      2  C   UNL     1       0.978   4.106  19.995  0.00  0.00    +0.000 C 
ATOM      3  F   UNL     1       0.753   2.875  20.516  0.00  0.00    +0.000 F 
ATOM      4  F   UNL     1       0.041   4.922  20.522  0.00  0.00    +0.000 F 
ATOM      5  F   UNL     1       0.711   4.005  18.664  0.00  0.00    +0.000 F 
ENDBRANCH   1   2
BRANCH   1   6
ATOM      6  O   UNL     1       2.503   5.295  21.539  0.00  0.00    +0.000 OA
ATOM      7  H   UNL     1       2.770   6.219  21.393  0.00  0.00    +0.000 HD
ENDBRANCH   1   6
BRANCH   1   8
ATOM      8  C   UNL     1       3.395   3.376  20.312  0.00  0.00    +0.000 C 
BRANCH   8  10
ATOM      9  C   UNL     1       5.029   1.597  19.499  0.00  0.00    +0.000 C 
ATOM     10  C   UNL     1       4.112   2.759  19.039  0.00  0.00    +0.000 C 
ATOM     11  C   UNL     1       2.966   2.128  18.192  0.00  0.00    +0.000 C 
BRANCH  10  12
ATOM     12  C   UNL     1       4.803   3.726  18.062  0.00  0.00    +0.000 A 
ATOM     13  C   UNL     1       4.606   3.653  16.666  0.00  0.00    +0.000 A 
ATOM     14  C   UNL     1       5.291   4.497  15.763  0.00  0.00    +0.000 A 
ATOM     15  C   UNL     1       6.231   5.416  16.216  0.00  0.00    +0.000 A 
ATOM     16  C   UNL     1       6.496   5.438  17.567  0.00  0.00    +0.000 A 
ATOM     17  C   UNL     1       5.793   4.628  18.461  0.00  0.00    +0.000 A 
ATOM     18  O   UNL     1       6.244   4.791  19.750  0.00  0.00    +0.000 OA
ATOM     19  C   UNL     1       7.515   5.459  19.602  0.00  0.00    +0.000 C 
ATOM     20  C   UNL     1       7.481   6.261  18.305  0.00  0.00    +0.000 C 
ENDBRANCH  10  12
ENDBRANCH   8  10
ENDBRANCH   1   8
BRANCH   1  21
ATOM     21  C   UNL     1       2.855   5.581  19.136  0.00  0.00    +0.000 C 
BRANCH  21  22
ATOM     22  C   UNL     1       2.490   7.037  19.208  0.00  0.00    +0.000 A 
ATOM     23  C   UNL     1       2.286   7.954  18.194  0.00  0.00    +0.000 A 
ATOM     24  C   UNL     1       1.419   8.965  18.701  0.00  0.00    +0.000 A 
ATOM     25  C   UNL     1       0.698  10.013  18.119  0.00  0.00    +0.000 A 
ATOM     26  C   UNL     1      -0.167  10.708  18.954  0.00  0.00    +0.000 A 
ATOM     27  N   UNL     1      -0.313  10.475  20.278  0.00  0.00    +0.000 NA
ATOM     28  C   UNL     1       0.415   9.493  20.858  0.00  0.00    +0.000 A 
ATOM     29  C   UNL     1       1.258   8.724  20.063  0.00  0.00    +0.000 A 
ATOM     30  N   UNL     1       2.026   7.623  20.371  0.00  0.00    +0.000 N 
ATOM     31  H   UNL     1       2.088   7.209  21.289  0.00  0.00    +0.000 HD
ENDBRANCH  21  22
ENDBRANCH   1  21
TORSDOF 7
ENDMDL
MODEL 7
REMARK VINA RESULT:      -8.4      3.726      7.068
REMARK  Name = 
REMARK  9 active torsions:
REMARK  status: ('A' for Active; 'I' for Inactive)
REMARK    1  A    between atoms: C_1  and  C_2
REMARK    2  A    between atoms: C_2  and  C_3
REMARK    3  A    between atoms: C_2  and  C_4
REMARK    4  A    between atoms: C_2  and  C_21
REMARK    5  A    between atoms: C_4  and  C_5
REMARK    6  A    between atoms: C_5  and  O_6
REMARK    7  A    between atoms: C_5  and  C_7
REMARK    8  A    between atoms: C_5  and  C_17
REMARK    9  A    between atoms: C_7  and  C_8
REMARK                            x       y       z     vdW  Elec       q    Type
REMARK                         _______ _______ _______ _____ _____    ______ ____
ROOT
ATOM      1  C   UNL     1       5.655   5.043  18.543  0.00  0.00    +0.000 C 
ENDROOT
BRANCH   1   2
ATOM      2  C   UNL     1       7.059   5.603  18.961  0.00  0.00    +0.000 C 
ATOM      3  F   UNL     1       7.219   5.669  20.306  0.00  0.00    +0.000 F 
ATOM      4  F   UNL     1       8.071   4.842  18.493  0.00  0.00    +0.000 F 
ATOM      5  F   UNL     1       7.267   6.866  18.496  0.00  0.00    +0.000 F 
ENDBRANCH   1   2
BRANCH   1   6
ATOM      6  O   UNL     1       5.636   3.606  18.629  0.00  0.00    +0.000 OA
ATOM      7  H   UNL     1       6.549   3.275  18.568  0.00  0.00    +0.000 HD
ENDBRANCH   1   6
BRANCH   1   8
ATOM      8  C   UNL     1       4.584   5.614  19.548  0.00  0.00    +0.000 C 
BRANCH   8  10
ATOM      9  C   UNL     1       2.680   4.664  18.144  0.00  0.00    +0.000 C 
ATOM     10  C   UNL     1       3.032   5.709  19.234  0.00  0.00    +0.000 C 
ATOM     11  C   UNL     1       2.322   5.255  20.546  0.00  0.00    +0.000 C 
BRANCH  10  12
ATOM     12  C   UNL     1       2.436   7.100  18.955  0.00  0.00    +0.000 A 
ATOM     13  C   UNL     1       2.670   7.790  17.747  0.00  0.00    +0.000 A 
ATOM     14  C   UNL     1       2.178   9.094  17.516  0.00  0.00    +0.000 A 
ATOM     15  C   UNL     1       1.470   9.776  18.500  0.00  0.00    +0.000 A 
ATOM     16  C   UNL     1       1.310   9.148  19.715  0.00  0.00    +0.000 A 
ATOM     17  C   UNL     1       1.766   7.846  19.928  0.00  0.00    +0.000 A 
ATOM     18  O   UNL     1       1.527   7.434  21.219  0.00  0.00    +0.000 OA
ATOM     19  C   UNL     1       1.237   8.654  21.935  0.00  0.00    +0.000 C 
ATOM     20  C   UNL     1       0.661   9.660  20.943  0.00  0.00    +0.000 C 
ENDBRANCH  10  12
ENDBRANCH   8  10
ENDBRANCH   1   8
BRANCH   1  21
ATOM     21  C   UNL     1       5.333   5.495  17.107  0.00  0.00    +0.000 C 
BRANCH  21  22
ATOM     22  C   UNL     1       6.002   4.825  15.940  0.00  0.00    +0.000 A 
ATOM     23  C   UNL     1       5.574   3.770  15.154  0.00  0.00    +0.000 A 
ATOM     24  C   UNL     1       6.217   3.894  13.888  0.00  0.00    +0.000 A 
ATOM     25  C   UNL     1       6.042   3.281  12.642  0.00  0.00    +0.000 A 
ATOM     26  C   UNL     1       6.793   3.791  11.592  0.00  0.00    +0.000 A 
ATOM     27  N   UNL     1       7.703   4.784  11.706  0.00  0.00    +0.000 NA
ATOM     28  C   UNL     1       7.910   5.351  12.916  0.00  0.00    +0.000 A 
ATOM     29  C   UNL     1       7.148   4.922  13.997  0.00  0.00    +0.000 A 
ATOM     30  N   UNL     1       7.090   5.383  15.294  0.00  0.00    +0.000 N 
ATOM     31  H   UNL     1       7.646   6.143  15.656  0.00  0.00    +0.000 HD
ENDBRANCH  21  22
ENDBRANCH   1  21
TORSDOF 7
ENDMDL
MODEL 8
REMARK VINA RESULT:      -8.3      1.049      1.901
REMARK  Name = 
REMARK  9 active torsions:
REMARK  status: ('A' for Active; 'I' for Inactive)
REMARK    1  A    between atoms: C_1  and  C_2
REMARK    2  A    between atoms: C_2  and  C_3
REMARK    3  A    between atoms: C_2  and  C_4
REMARK    4  A    between atoms: C_2  and  C_21
REMARK    5  A    between atoms: C_4  and  C_5
REMARK    6  A    between atoms: C_5  and  O_6
REMARK    7  A    between atoms: C_5  and  C_7
REMARK    8  A    between atoms: C_5  and  C_17
REMARK    9  A    between atoms: C_7  and  C_8
REMARK                            x       y       z     vdW  Elec       q    Type
REMARK                         _______ _______ _______ _____ _____    ______ ____
ROOT
ATOM      1  C   UNL     1       2.359   4.409  20.072  0.00  0.00    +0.000 C 
ENDROOT
BRANCH   1   2
ATOM      2  C   UNL     1       0.941   3.813  20.383  0.00  0.00    +0.000 C 
ATOM      3  F   UNL     1       0.467   3.035  19.379  0.00  0.00    +0.000 F 
ATOM      4  F   UNL     1       0.943   3.046  21.493  0.00  0.00    +0.000 F 
ATOM      5  F   UNL     1       0.008   4.786  20.576  0.00  0.00    +0.000 F 
ENDBRANCH   1   2
BRANCH   1   6
ATOM      6  O   UNL     1       2.906   5.048  21.241  0.00  0.00    +0.000 OA
ATOM      7  H   UNL     1       2.174   5.359  21.801  0.00  0.00    +0.000 HD
ENDBRANCH   1   6
BRANCH   1   8
ATOM      8  C   UNL     1       3.310   3.220  19.667  0.00  0.00    +0.000 C 
BRANCH   8  10
ATOM      9  C   UNL     1       4.285   1.584  17.972  0.00  0.00    +0.000 C 
ATOM     10  C   UNL     1       4.011   3.085  18.251  0.00  0.00    +0.000 C 
ATOM     11  C   UNL     1       2.939   3.551  17.219  0.00  0.00    +0.000 C 
BRANCH  10  12
ATOM     12  C   UNL     1       5.222   3.986  17.957  0.00  0.00    +0.000 A 
ATOM     13  C   UNL     1       5.763   4.860  18.924  0.00  0.00    +0.000 A 
ATOM     14  C   UNL     1       6.834   5.736  18.635  0.00  0.00    +0.000 A 
ATOM     15  C   UNL     1       7.376   5.804  17.356  0.00  0.00    +0.000 A 
ATOM     16  C   UNL     1       6.800   5.020  16.381  0.00  0.00    +0.000 A 
ATOM     17  C   UNL     1       5.766   4.130  16.677  0.00  0.00    +0.000 A 
ATOM     18  O   UNL     1       5.326   3.477  15.549  0.00  0.00    +0.000 OA
ATOM     19  C   UNL     1       5.860   4.253  14.456  0.00  0.00    +0.000 C 
ATOM     20  C   UNL     1       7.132   4.942  14.940  0.00  0.00    +0.000 C 
ENDBRANCH  10  12
ENDBRANCH   8  10
ENDBRANCH   1   8
BRANCH   1  21
ATOM     21  C   UNL     1       2.246   5.420  18.917  0.00  0.00    +0.000 C 
BRANCH  21  22
ATOM     22  C   UNL     1       2.238   6.894  19.205  0.00  0.00    +0.000 A 
ATOM     23  C   UNL     1       2.311   7.970  18.340  0.00  0.00    +0.000 A 
ATOM     24  C   UNL     1       1.687   9.078  18.984  0.00  0.00    +0.000 A 
ATOM     25  C   UNL     1       1.268  10.344  18.558  0.00  0.00    +0.000 A 
ATOM     26  C   UNL     1       0.555  11.100  19.478  0.00  0.00    +0.000 A 
ATOM     27  N   UNL     1       0.291  10.722  20.749  0.00  0.00    +0.000 NA
ATOM     28  C   UNL     1       0.731   9.518  21.182  0.00  0.00    +0.000 A 
ATOM     29  C   UNL     1       1.404   8.690  20.291  0.00  0.00    +0.000 A 
ATOM     30  N   UNL     1       1.869   7.402  20.438  0.00  0.00    +0.000 N 
ATOM     31  H   UNL     1       1.784   6.856  21.282  0.00  0.00    +0.000 HD
ENDBRANCH  21  22
ENDBRANCH   1  21
TORSDOF 7
ENDMDL
MODEL 9
REMARK VINA RESULT:      -8.3      0.935      1.906
REMARK  Name = 
REMARK  9 active torsions:
REMARK  status: ('A' for Active; 'I' for Inactive)
REMARK    1  A    between atoms: C_1  and  C_2
REMARK    2  A    between atoms: C_2  and  C_3
REMARK    3  A    between atoms: C_2  and  C_4
REMARK    4  A    between atoms: C_2  and  C_21
REMARK    5  A    between atoms: C_4  and  C_5
REMARK    6  A    between atoms: C_5  and  O_6
REMARK    7  A    between atoms: C_5  and  C_7
REMARK    8  A    between atoms: C_5  and  C_17
REMARK    9  A    between atoms: C_7  and  C_8
REMARK                            x       y       z     vdW  Elec       q    Type
REMARK                         _______ _______ _______ _____ _____    ______ ____
ROOT
ATOM      1  C   UNL     1       2.326   4.078  20.244  0.00  0.00    +0.000 C 
ENDROOT
BRANCH   1   2
ATOM      2  C   UNL     1       1.282   2.932  20.480  0.00  0.00    +0.000 C 
ATOM      3  F   UNL     1       0.925   2.807  21.782  0.00  0.00    +0.000 F 
ATOM      4  F   UNL     1       0.141   3.131  19.788  0.00  0.00    +0.000 F 
ATOM      5  F   UNL     1       1.764   1.715  20.105  0.00  0.00    +0.000 F 
ENDBRANCH   1   2
BRANCH   1   6
ATOM      6  O   UNL     1       2.568   4.802  21.465  0.00  0.00    +0.000 OA
ATOM      7  H   UNL     1       3.456   4.578  21.793  0.00  0.00    +0.000 HD
ENDBRANCH   1   6
BRANCH   1   8
ATOM      8  C   UNL     1       3.680   3.417  19.783  0.00  0.00    +0.000 C 
BRANCH   8  10
ATOM      9  C   UNL     1       4.464   1.854  17.928  0.00  0.00    +0.000 C 
ATOM     10  C   UNL     1       4.162   3.335  18.274  0.00  0.00    +0.000 C 
ATOM     11  C   UNL     1       2.923   3.757  17.427  0.00  0.00    +0.000 C 
BRANCH  10  12
ATOM     12  C   UNL     1       5.268   4.301  17.817  0.00  0.00    +0.000 A 
ATOM     13  C   UNL     1       5.681   5.398  18.601  0.00  0.00    +0.000 A 
ATOM     14  C   UNL     1       6.650   6.324  18.153  0.00  0.00    +0.000 A 
ATOM     15  C   UNL     1       7.211   6.214  16.886  0.00  0.00    +0.000 A 
ATOM     16  C   UNL     1       6.754   5.199  16.076  0.00  0.00    +0.000 A 
ATOM     17  C   UNL     1       5.823   4.264  16.534  0.00  0.00    +0.000 A 
ATOM     18  O   UNL     1       5.488   3.364  15.550  0.00  0.00    +0.000 OA
ATOM     19  C   UNL     1       5.955   3.977  14.330  0.00  0.00    +0.000 C 
ATOM     20  C   UNL     1       7.128   4.890  14.678  0.00  0.00    +0.000 C 
ENDBRANCH  10  12
ENDBRANCH   8  10
ENDBRANCH   1   8
BRANCH   1  21
ATOM     21  C   UNL     1       1.800   5.032  19.155  0.00  0.00    +0.000 C 
BRANCH  21  22
ATOM     22  C   UNL     1       2.072   6.506  19.251  0.00  0.00    +0.000 A 
ATOM     23  C   UNL     1       2.412   7.414  18.265  0.00  0.00    +0.000 A 
ATOM     24  C   UNL     1       1.987   8.701  18.707  0.00  0.00    +0.000 A 
ATOM     25  C   UNL     1       1.857   9.950  18.089  0.00  0.00    +0.000 A 
ATOM     26  C   UNL     1       1.257  10.952  18.839  0.00  0.00    +0.000 A 
ATOM     27  N   UNL     1       0.847  10.815  20.120  0.00  0.00    +0.000 NA
ATOM     28  C   UNL     1       1.009   9.624  20.739  0.00  0.00    +0.000 A 
ATOM     29  C   UNL     1       1.554   8.564  20.023  0.00  0.00    +0.000 A 
ATOM     30  N   UNL     1       1.741   7.245  20.373  0.00  0.00    +0.000 N 
ATOM     31  H   UNL     1       1.497   6.851  21.269  0.00  0.00    +0.000 HD
ENDBRANCH  21  22
ENDBRANCH   1  21
TORSDOF 7
ENDMDL
