MODEL 1
REMARK VINA RESULT:      -9.0      0.000      0.000
REMARK  Name = 
REMARK  4 active torsions:
REMARK  status: ('A' for Active; 'I' for Inactive)
REMARK    1  A    between atoms: C_9  and  C_10
REMARK    2  A    between atoms: N_18  and  C_19
REMARK    3  A    between atoms: C_19  and  C_20
REMARK    4  A    between atoms: C_20  and  C_21
REMARK                            x       y       z     vdW  Elec       q    Type
REMARK                         _______ _______ _______ _____ _____    ______ ____
ROOT
ATOM      1  O   UNL     1       4.375   6.902  16.017  0.00  0.00    +0.000 OA
ATOM      2  C   UNL     1       4.332   6.612  17.200  0.00  0.00    +0.000 C 
ATOM      3  C   UNL     1       3.128   7.137  17.979  0.00  0.00    +0.000 C 
ATOM      4  C   UNL     1       2.848   8.631  17.749  0.00  0.00    +0.000 C 
ATOM      5  C   UNL     1       1.469   8.926  18.354  0.00  0.00    +0.000 C 
ATOM      6  C   UNL     1       1.519   8.651  19.859  0.00  0.00    +0.000 C 
ATOM      7  C   UNL     1       2.007   7.215  20.167  0.00  0.00    +0.000 C 
ATOM      8  N   UNL     1       3.246   6.869  19.432  0.00  0.00    +0.000 NA
ATOM      9  C   UNL     1       3.710   5.488  19.704  0.00  0.00    +0.000 C 
ATOM     10  C   UNL     1       5.030   5.260  19.028  0.00  0.00    +0.000 C 
ATOM     11  O   UNL     1       5.790   4.443  19.537  0.00  0.00    +0.000 OA
ATOM     12  N   UNL     1       5.244   5.731  17.755  0.00  0.00    +0.000 N 
ENDROOT
BRANCH   9  13
ATOM     13  C   UNL     1       2.775   4.346  19.249  0.00  0.00    +0.000 A 
ATOM     14  C   UNL     1       3.061   3.508  18.140  0.00  0.00    +0.000 A 
ATOM     15  C   UNL     1       2.228   2.452  17.793  0.00  0.00    +0.000 A 
ATOM     16  C   UNL     1       1.098   2.180  18.551  0.00  0.00    +0.000 A 
ATOM     17  C   UNL     1       0.800   2.973  19.661  0.00  0.00    +0.000 A 
ATOM     18  C   UNL     1       1.627   4.049  20.009  0.00  0.00    +0.000 A 
ENDBRANCH   9  13
BRANCH  12  19
ATOM     19  C   UNL     1       6.286   5.047  16.950  0.00  0.00    +0.000 C 
BRANCH  19  20
ATOM     20  C   UNL     1       5.839   3.926  15.993  0.00  0.00    +0.000 C 
BRANCH  20  21
ATOM     21  C   UNL     1       6.337   4.169  14.587  0.00  0.00    +0.000 A 
ATOM     22  C   UNL     1       7.366   5.105  14.346  0.00  0.00    +0.000 A 
ATOM     23  C   UNL     1       7.864   5.292  13.055  0.00  0.00    +0.000 A 
ATOM     24  C   UNL     1       7.344   4.548  11.994  0.00  0.00    +0.000 A 
ATOM     25  C   UNL     1       6.320   3.624  12.221  0.00  0.00    +0.000 A 
ATOM     26  C   UNL     1       5.816   3.435  13.512  0.00  0.00    +0.000 A 
ENDBRANCH  20  21
ENDBRANCH  19  20
ENDBRANCH  12  19
TORSDOF 4
ENDMDL
MODEL 2
REMARK VINA RESULT:      -8.6      0.133      1.347
REMARK  Name = 
REMARK  4 active torsions:
REMARK  status: ('A' for Active; 'I' for Inactive)
REMARK    1  A    between atoms: C_9  and  C_10
REMARK    2  A    between atoms: N_18  and  C_19
REMARK    3  A    between atoms: C_19  and  C_20
REMARK    4  A    between atoms: C_20  and  C_21
REMARK                            x       y       z     vdW  Elec       q    Type
REMARK                         _______ _______ _______ _____ _____    ______ ____
ROOT
ATOM      1  O   UNL     1       4.403   6.678  15.982  0.00  0.00    +0.000 OA
ATOM      2  C   UNL     1       4.380   6.434  17.175  0.00  0.00    +0.000 C 
ATOM      3  C   UNL     1       3.190   6.991  17.953  0.00  0.00    +0.000 C 
ATOM      4  C   UNL     1       2.909   8.476  17.671  0.00  0.00    +0.000 C 
ATOM      5  C   UNL     1       1.541   8.797  18.286  0.00  0.00    +0.000 C 
ATOM      6  C   UNL     1       1.616   8.581  19.800  0.00  0.00    +0.000 C 
ATOM      7  C   UNL     1       2.106   7.157  20.155  0.00  0.00    +0.000 C 
ATOM      8  N   UNL     1       3.331   6.780  19.413  0.00  0.00    +0.000 NA
ATOM      9  C   UNL     1       3.799   5.410  19.731  0.00  0.00    +0.000 C 
ATOM     10  C   UNL     1       5.106   5.153  19.043  0.00  0.00    +0.000 C 
ATOM     11  O   UNL     1       5.874   4.354  19.570  0.00  0.00    +0.000 OA
ATOM     12  N   UNL     1       5.300   5.573  17.749  0.00  0.00    +0.000 N 
ENDROOT
BRANCH   9  13
ATOM     13  C   UNL     1       2.854   4.253  19.337  0.00  0.00    +0.000 A 
ATOM     14  C   UNL     1       1.668   3.945  20.054  0.00  0.00    +0.000 A 
ATOM     15  C   UNL     1       0.809   2.936  19.638  0.00  0.00    +0.000 A 
ATOM     16  C   UNL     1       1.089   2.216  18.486  0.00  0.00    +0.000 A 
ATOM     17  C   UNL     1       2.237   2.507  17.747  0.00  0.00    +0.000 A 
ATOM     18  C   UNL     1       3.116   3.515  18.167  0.00  0.00    +0.000 A 
ENDBRANCH   9  13
BRANCH  12  19
ATOM     19  C   UNL     1       6.326   4.856  16.954  0.00  0.00    +0.000 C 
BRANCH  19  20
ATOM     20  C   UNL     1       5.849   3.792  15.947  0.00  0.00    +0.000 C 
BRANCH  20  21
ATOM     21  C   UNL     1       6.397   4.056  14.564  0.00  0.00    +0.000 A 
ATOM     22  C   UNL     1       5.891   3.352  13.450  0.00  0.00    +0.000 A 
ATOM     23  C   UNL     1       6.358   3.633  12.164  0.00  0.00    +0.000 A 
ATOM     24  C   UNL     1       7.331   4.617  11.976  0.00  0.00    +0.000 A 
ATOM     25  C   UNL     1       7.842   5.315  13.074  0.00  0.00    +0.000 A 
ATOM     26  C   UNL     1       7.380   5.035  14.364  0.00  0.00    +0.000 A 
ENDBRANCH  20  21
ENDBRANCH  19  20
ENDBRANCH  12  19
TORSDOF 4
ENDMDL
MODEL 3
REMARK VINA RESULT:      -8.2      0.732      1.200
REMARK  Name = 
REMARK  4 active torsions:
REMARK  status: ('A' for Active; 'I' for Inactive)
REMARK    1  A    between atoms: C_9  and  C_10
REMARK    2  A    between atoms: N_18  and  C_19
REMARK    3  A    between atoms: C_19  and  C_20
REMARK    4  A    between atoms: C_20  and  C_21
REMARK                            x       y       z     vdW  Elec       q    Type
REMARK                         _______ _______ _______ _____ _____    ______ ____
ROOT
ATOM      1  O   UNL     1       3.624   7.578  16.135  0.00  0.00    +0.000 OA
ATOM      2  C   UNL     1       3.691   7.240  17.304  0.00  0.00    +0.000 C 
ATOM      3  C   UNL     1       2.547   7.702  18.204  0.00  0.00    +0.000 C 
ATOM      4  C   UNL     1       2.216   9.196  18.064  0.00  0.00    +0.000 C 
ATOM      5  C   UNL     1       0.888   9.431  18.796  0.00  0.00    +0.000 C 
ATOM      6  C   UNL     1       1.074   9.097  20.278  0.00  0.00    +0.000 C 
ATOM      7  C   UNL     1       1.618   7.662  20.482  0.00  0.00    +0.000 C 
ATOM      8  N   UNL     1       2.796   7.378  19.629  0.00  0.00    +0.000 NA
ATOM      9  C   UNL     1       3.313   6.000  19.802  0.00  0.00    +0.000 C 
ATOM     10  C   UNL     1       4.574   5.833  19.007  0.00  0.00    +0.000 C 
ATOM     11  O   UNL     1       5.393   5.016  19.413  0.00  0.00    +0.000 OA
ATOM     12  N   UNL     1       4.666   6.360  17.741  0.00  0.00    +0.000 N 
ENDROOT
BRANCH   9  13
ATOM     13  C   UNL     1       2.367   4.853  19.381  0.00  0.00    +0.000 A 
ATOM     14  C   UNL     1       2.320   4.336  18.060  0.00  0.00    +0.000 A 
ATOM     15  C   UNL     1       1.500   3.264  17.728  0.00  0.00    +0.000 A 
ATOM     16  C   UNL     1       0.720   2.659  18.701  0.00  0.00    +0.000 A 
ATOM     17  C   UNL     1       0.759   3.131  20.015  0.00  0.00    +0.000 A 
ATOM     18  C   UNL     1       1.572   4.220  20.355  0.00  0.00    +0.000 A 
ENDBRANCH   9  13
BRANCH  12  19
ATOM     19  C   UNL     1       5.649   5.737  16.822  0.00  0.00    +0.000 C 
BRANCH  19  20
ATOM     20  C   UNL     1       5.214   4.481  16.042  0.00  0.00    +0.000 C 
BRANCH  20  21
ATOM     21  C   UNL     1       5.919   4.386  14.709  0.00  0.00    +0.000 A 
ATOM     22  C   UNL     1       5.392   3.579  13.678  0.00  0.00    +0.000 A 
ATOM     23  C   UNL     1       6.012   3.533  12.428  0.00  0.00    +0.000 A 
ATOM     24  C   UNL     1       7.161   4.292  12.193  0.00  0.00    +0.000 A 
ATOM     25  C   UNL     1       7.694   5.090  13.209  0.00  0.00    +0.000 A 
ATOM     26  C   UNL     1       7.078   5.137  14.463  0.00  0.00    +0.000 A 
ENDBRANCH  20  21
ENDBRANCH  19  20
ENDBRANCH  12  19
TORSDOF 4
ENDMDL
MODEL 4
REMARK VINA RESULT:      -8.0      0.996      1.388
REMARK  Name = 
REMARK  4 active torsions:
REMARK  status: ('A' for Active; 'I' for Inactive)
REMARK    1  A    between atoms: C_9  and  C_10
REMARK    2  A    between atoms: N_18  and  C_19
REMARK    3  A    between atoms: C_19  and  C_20
REMARK    4  A    between atoms: C_20  and  C_21
REMARK                            x       y       z     vdW  Elec       q    Type
REMARK                         _______ _______ _______ _____ _____    ______ ____
ROOT
ATOM      1  O   UNL     1       4.869   7.201  15.835  0.00  0.00    +0.000 OA
ATOM      2  C   UNL     1       4.826   6.864  17.005  0.00  0.00    +0.000 C 
ATOM      3  C   UNL     1       3.511   7.128  17.734  0.00  0.00    +0.000 C 
ATOM      4  C   UNL     1       2.969   8.552  17.533  0.00  0.00    +0.000 C 
ATOM      5  C   UNL     1       1.533   8.565  18.073  0.00  0.00    +0.000 C 
ATOM      6  C   UNL     1       1.563   8.247  19.570  0.00  0.00    +0.000 C 
ATOM      7  C   UNL     1       2.294   6.915  19.861  0.00  0.00    +0.000 C 
ATOM      8  N   UNL     1       3.608   6.831  19.183  0.00  0.00    +0.000 NA
ATOM      9  C   UNL     1       4.309   5.550  19.439  0.00  0.00    +0.000 C 
ATOM     10  C   UNL     1       5.678   5.595  18.828  0.00  0.00    +0.000 C 
ATOM     11  O   UNL     1       6.552   4.913  19.352  0.00  0.00    +0.000 OA
ATOM     12  N   UNL     1       5.859   6.145  17.581  0.00  0.00    +0.000 N 
ENDROOT
BRANCH   9  13
ATOM     13  C   UNL     1       3.624   4.274  18.904  0.00  0.00    +0.000 A 
ATOM     14  C   UNL     1       2.810   4.263  17.741  0.00  0.00    +0.000 A 
ATOM     15  C   UNL     1       2.258   3.086  17.252  0.00  0.00    +0.000 A 
ATOM     16  C   UNL     1       2.514   1.880  17.888  0.00  0.00    +0.000 A 
ATOM     17  C   UNL     1       3.328   1.854  19.023  0.00  0.00    +0.000 A 
ATOM     18  C   UNL     1       3.878   3.038  19.530  0.00  0.00    +0.000 A 
ENDBRANCH   9  13
BRANCH  12  19
ATOM     19  C   UNL     1       7.046   5.696  16.813  0.00  0.00    +0.000 C 
BRANCH  19  20
ATOM     20  C   UNL     1       7.023   4.279  16.210  0.00  0.00    +0.000 C 
BRANCH  20  21
ATOM     21  C   UNL     1       7.008   4.321  14.700  0.00  0.00    +0.000 A 
ATOM     22  C   UNL     1       6.108   3.513  13.972  0.00  0.00    +0.000 A 
ATOM     23  C   UNL     1       6.056   3.591  12.579  0.00  0.00    +0.000 A 
ATOM     24  C   UNL     1       6.897   4.475  11.899  0.00  0.00    +0.000 A 
ATOM     25  C   UNL     1       7.795   5.275  12.611  0.00  0.00    +0.000 A 
ATOM     26  C   UNL     1       7.853   5.199  14.005  0.00  0.00    +0.000 A 
ENDBRANCH  20  21
ENDBRANCH  19  20
ENDBRANCH  12  19
TORSDOF 4
ENDMDL
MODEL 5
REMARK VINA RESULT:      -7.9      1.093      1.202
REMARK  Name = 
REMARK  4 active torsions:
REMARK  status: ('A' for Active; 'I' for Inactive)
REMARK    1  A    between atoms: C_9  and  C_10
REMARK    2  A    between atoms: N_18  and  C_19
REMARK    3  A    between atoms: C_19  and  C_20
REMARK    4  A    between atoms: C_20  and  C_21
REMARK                            x       y       z     vdW  Elec       q    Type
REMARK                         _______ _______ _______ _____ _____    ______ ____
ROOT
ATOM      1  O   UNL     1       4.977   7.264  15.834  0.00  0.00    +0.000 OA
ATOM      2  C   UNL     1       4.928   6.896  16.994  0.00  0.00    +0.000 C 
ATOM      3  C   UNL     1       3.594   7.096  17.709  0.00  0.00    +0.000 C 
ATOM      4  C   UNL     1       3.007   8.506  17.535  0.00  0.00    +0.000 C 
ATOM      5  C   UNL     1       1.563   8.457  18.052  0.00  0.00    +0.000 C 
ATOM      6  C   UNL     1       1.582   8.102  19.541  0.00  0.00    +0.000 C 
ATOM      7  C   UNL     1       2.354   6.788  19.811  0.00  0.00    +0.000 C 
ATOM      8  N   UNL     1       3.680   6.766  19.151  0.00  0.00    +0.000 NA
ATOM      9  C   UNL     1       4.420   5.504  19.387  0.00  0.00    +0.000 C 
ATOM     10  C   UNL     1       5.796   5.611  18.798  0.00  0.00    +0.000 C 
ATOM     11  O   UNL     1       6.685   4.946  19.319  0.00  0.00    +0.000 OA
ATOM     12  N   UNL     1       5.977   6.198  17.569  0.00  0.00    +0.000 N 
ENDROOT
BRANCH   9  13
ATOM     13  C   UNL     1       3.788   4.219  18.809  0.00  0.00    +0.000 A 
ATOM     14  C   UNL     1       3.995   2.933  19.375  0.00  0.00    +0.000 A 
ATOM     15  C   UNL     1       3.364   1.806  18.866  0.00  0.00    +0.000 A 
ATOM     16  C   UNL     1       2.490   1.921  17.796  0.00  0.00    +0.000 A 
ATOM     17  C   UNL     1       2.248   3.175  17.229  0.00  0.00    +0.000 A 
ATOM     18  C   UNL     1       2.891   4.315  17.728  0.00  0.00    +0.000 A 
ENDBRANCH   9  13
BRANCH  12  19
ATOM     19  C   UNL     1       7.189   5.809  16.809  0.00  0.00    +0.000 C 
BRANCH  19  20
ATOM     20  C   UNL     1       7.253   4.383  16.230  0.00  0.00    +0.000 C 
BRANCH  20  21
ATOM     21  C   UNL     1       6.975   4.376  14.746  0.00  0.00    +0.000 A 
ATOM     22  C   UNL     1       7.823   5.071  13.856  0.00  0.00    +0.000 A 
ATOM     23  C   UNL     1       7.598   5.021  12.479  0.00  0.00    +0.000 A 
ATOM     24  C   UNL     1       6.529   4.277  11.975  0.00  0.00    +0.000 A 
ATOM     25  C   UNL     1       5.680   3.590  12.848  0.00  0.00    +0.000 A 
ATOM     26  C   UNL     1       5.899   3.639  14.227  0.00  0.00    +0.000 A 
ENDBRANCH  20  21
ENDBRANCH  19  20
ENDBRANCH  12  19
TORSDOF 4
ENDMDL
MODEL 6
REMARK VINA RESULT:      -7.5      1.162      1.632
REMARK  Name = 
REMARK  4 active torsions:
REMARK  status: ('A' for Active; 'I' for Inactive)
REMARK    1  A    between atoms: C_9  and  C_10
REMARK    2  A    between atoms: N_18  and  C_19
REMARK    3  A    between atoms: C_19  and  C_20
REMARK    4  A    between atoms: C_20  and  C_21
REMARK                            x       y       z     vdW  Elec       q    Type
REMARK                         _______ _______ _______ _____ _____    ______ ____
ROOT
ATOM      1  O   UNL     1       5.276   7.324  16.134  0.00  0.00    +0.000 OA
ATOM      2  C   UNL     1       5.092   6.937  17.274  0.00  0.00    +0.000 C 
ATOM      3  C   UNL     1       3.676   7.101  17.822  0.00  0.00    +0.000 C 
ATOM      4  C   UNL     1       3.086   8.502  17.596  0.00  0.00    +0.000 C 
ATOM      5  C   UNL     1       1.591   8.418  17.930  0.00  0.00    +0.000 C 
ATOM      6  C   UNL     1       1.434   8.041  19.405  0.00  0.00    +0.000 C 
ATOM      7  C   UNL     1       2.194   6.737  19.750  0.00  0.00    +0.000 C 
ATOM      8  N   UNL     1       3.591   6.750  19.259  0.00  0.00    +0.000 NA
ATOM      9  C   UNL     1       4.322   5.498  19.568  0.00  0.00    +0.000 C 
ATOM     10  C   UNL     1       5.757   5.640  19.155  0.00  0.00    +0.000 C 
ATOM     11  O   UNL     1       6.589   4.984  19.772  0.00  0.00    +0.000 OA
ATOM     12  N   UNL     1       6.076   6.250  17.965  0.00  0.00    +0.000 N 
ENDROOT
BRANCH   9  13
ATOM     13  C   UNL     1       3.792   4.211  18.899  0.00  0.00    +0.000 A 
ATOM     14  C   UNL     1       4.118   2.909  19.361  0.00  0.00    +0.000 A 
ATOM     15  C   UNL     1       3.577   1.773  18.774  0.00  0.00    +0.000 A 
ATOM     16  C   UNL     1       2.677   1.893  17.725  0.00  0.00    +0.000 A 
ATOM     17  C   UNL     1       2.320   3.161  17.260  0.00  0.00    +0.000 A 
ATOM     18  C   UNL     1       2.872   4.311  17.838  0.00  0.00    +0.000 A 
ENDBRANCH   9  13
BRANCH  12  19
ATOM     19  C   UNL     1       7.381   5.895  17.355  0.00  0.00    +0.000 C 
BRANCH  19  20
ATOM     20  C   UNL     1       7.565   4.461  16.824  0.00  0.00    +0.000 C 
BRANCH  20  21
ATOM     21  C   UNL     1       6.898   4.279  15.481  0.00  0.00    +0.000 A 
ATOM     22  C   UNL     1       5.611   3.705  15.394  0.00  0.00    +0.000 A 
ATOM     23  C   UNL     1       4.972   3.587  14.158  0.00  0.00    +0.000 A 
ATOM     24  C   UNL     1       5.606   4.039  12.999  0.00  0.00    +0.000 A 
ATOM     25  C   UNL     1       6.883   4.603  13.075  0.00  0.00    +0.000 A 
ATOM     26  C   UNL     1       7.529   4.722  14.309  0.00  0.00    +0.000 A 
ENDBRANCH  20  21
ENDBRANCH  19  20
ENDBRANCH  12  19
TORSDOF 4
ENDMDL
MODEL 7
REMARK VINA RESULT:      -7.3      4.343      7.277
REMARK  Name = 
REMARK  4 active torsions:
REMARK  status: ('A' for Active; 'I' for Inactive)
REMARK    1  A    between atoms: C_9  and  C_10
REMARK    2  A    between atoms: N_18  and  C_19
REMARK    3  A    between atoms: C_19  and  C_20
REMARK    4  A    between atoms: C_20  and  C_21
REMARK                            x       y       z     vdW  Elec       q    Type
REMARK                         _______ _______ _______ _____ _____    ______ ____
ROOT
ATOM      1  O   UNL     1       2.571  10.510  17.381  0.00  0.00    +0.000 OA
ATOM      2  C   UNL     1       1.871  10.651  18.368  0.00  0.00    +0.000 C 
ATOM      3  C   UNL     1       1.411  12.075  18.669  0.00  0.00    +0.000 C 
ATOM      4  C   UNL     1       2.543  13.113  18.623  0.00  0.00    +0.000 C 
ATOM      5  C   UNL     1       1.884  14.498  18.655  0.00  0.00    +0.000 C 
ATOM      6  C   UNL     1       1.118  14.651  19.972  0.00  0.00    +0.000 C 
ATOM      7  C   UNL     1       0.101  13.505  20.183  0.00  0.00    +0.000 C 
ATOM      8  N   UNL     1       0.703  12.168  19.968  0.00  0.00    +0.000 NA
ATOM      9  C   UNL     1      -0.268  11.063  20.150  0.00  0.00    +0.000 C 
ATOM     10  C   UNL     1       0.443   9.747  20.042  0.00  0.00    +0.000 C 
ATOM     11  O   UNL     1      -0.031   8.798  20.658  0.00  0.00    +0.000 OA
ATOM     12  N   UNL     1       1.402   9.558  19.076  0.00  0.00    +0.000 N 
ENDROOT
BRANCH   9  13
ATOM     13  C   UNL     1      -1.447  11.014  19.153  0.00  0.00    +0.000 A 
ATOM     14  C   UNL     1      -1.508  10.096  18.072  0.00  0.00    +0.000 A 
ATOM     15  C   UNL     1      -2.611  10.038  17.230  0.00  0.00    +0.000 A 
ATOM     16  C   UNL     1      -3.697  10.873  17.446  0.00  0.00    +0.000 A 
ATOM     17  C   UNL     1      -3.677  11.774  18.514  0.00  0.00    +0.000 A 
ATOM     18  C   UNL     1      -2.563  11.848  19.360  0.00  0.00    +0.000 A 
ENDBRANCH   9  13
BRANCH  12  19
ATOM     19  C   UNL     1       1.669   8.160  18.657  0.00  0.00    +0.000 C 
BRANCH  19  20
ATOM     20  C   UNL     1       2.475   7.260  19.613  0.00  0.00    +0.000 C 
BRANCH  20  21
ATOM     21  C   UNL     1       2.050   5.815  19.499  0.00  0.00    +0.000 A 
ATOM     22  C   UNL     1       1.580   5.117  20.632  0.00  0.00    +0.000 A 
ATOM     23  C   UNL     1       1.137   3.798  20.518  0.00  0.00    +0.000 A 
ATOM     24  C   UNL     1       1.156   3.162  19.274  0.00  0.00    +0.000 A 
ATOM     25  C   UNL     1       1.625   3.843  18.147  0.00  0.00    +0.000 A 
ATOM     26  C   UNL     1       2.073   5.163  18.257  0.00  0.00    +0.000 A 
ENDBRANCH  20  21
ENDBRANCH  19  20
ENDBRANCH  12  19
TORSDOF 4
ENDMDL
MODEL 8
REMARK VINA RESULT:      -7.2      4.377      7.247
REMARK  Name = 
REMARK  4 active torsions:
REMARK  status: ('A' for Active; 'I' for Inactive)
REMARK    1  A    between atoms: C_9  and  C_10
REMARK    2  A    between atoms: N_18  and  C_19
REMARK    3  A    between atoms: C_19  and  C_20
REMARK    4  A    between atoms: C_20  and  C_21
REMARK                            x       y       z     vdW  Elec       q    Type
REMARK                         _______ _______ _______ _____ _____    ______ ____
ROOT
ATOM      1  O   UNL     1       2.409  11.626  18.181  0.00  0.00    +0.000 OA
ATOM      2  C   UNL     1       1.438  11.591  18.916  0.00  0.00    +0.000 C 
ATOM      3  C   UNL     1       0.581  12.854  18.961  0.00  0.00    +0.000 C 
ATOM      4  C   UNL     1       1.394  14.144  19.155  0.00  0.00    +0.000 C 
ATOM      5  C   UNL     1       0.441  15.317  18.889  0.00  0.00    +0.000 C 
ATOM      6  C   UNL     1      -0.691  15.279  19.919  0.00  0.00    +0.000 C 
ATOM      7  C   UNL     1      -1.419  13.913  19.923  0.00  0.00    +0.000 C 
ATOM      8  N   UNL     1      -0.478  12.771  19.994  0.00  0.00    +0.000 NA
ATOM      9  C   UNL     1      -1.164  11.458  19.979  0.00  0.00    +0.000 C 
ATOM     10  C   UNL     1      -0.159  10.364  20.182  0.00  0.00    +0.000 C 
ATOM     11  O   UNL     1      -0.550   9.329  20.712  0.00  0.00    +0.000 OA
ATOM     12  N   UNL     1       1.058  10.418  19.545  0.00  0.00    +0.000 N 
ENDROOT
BRANCH   9  13
ATOM     13  C   UNL     1      -1.950  11.107  18.697  0.00  0.00    +0.000 A 
ATOM     14  C   UNL     1      -1.471  10.193  17.722  0.00  0.00    +0.000 A 
ATOM     15  C   UNL     1      -2.230   9.854  16.609  0.00  0.00    +0.000 A 
ATOM     16  C   UNL     1      -3.495  10.395  16.439  0.00  0.00    +0.000 A 
ATOM     17  C   UNL     1      -4.004  11.282  17.390  0.00  0.00    +0.000 A 
ATOM     18  C   UNL     1      -3.240  11.639  18.509  0.00  0.00    +0.000 A 
ENDBRANCH   9  13
BRANCH  12  19
ATOM     19  C   UNL     1       1.764   9.131  19.331  0.00  0.00    +0.000 C 
BRANCH  19  20
ATOM     20  C   UNL     1       1.788   8.549  17.904  0.00  0.00    +0.000 C 
BRANCH  20  21
ATOM     21  C   UNL     1       2.639   7.303  17.831  0.00  0.00    +0.000 A 
ATOM     22  C   UNL     1       2.101   6.049  18.193  0.00  0.00    +0.000 A 
ATOM     23  C   UNL     1       2.869   4.889  18.074  0.00  0.00    +0.000 A 
ATOM     24  C   UNL     1       4.178   4.966  17.592  0.00  0.00    +0.000 A 
ATOM     25  C   UNL     1       4.721   6.204  17.236  0.00  0.00    +0.000 A 
ATOM     26  C   UNL     1       3.957   7.369  17.356  0.00  0.00    +0.000 A 
ENDBRANCH  20  21
ENDBRANCH  19  20
ENDBRANCH  12  19
TORSDOF 4
ENDMDL
MODEL 9
REMARK VINA RESULT:      -7.2      1.174      3.837
REMARK  Name = 
REMARK  4 active torsions:
REMARK  status: ('A' for Active; 'I' for Inactive)
REMARK    1  A    between atoms: C_9  and  C_10
REMARK    2  A    between atoms: N_18  and  C_19
REMARK    3  A    between atoms: C_19  and  C_20
REMARK    4  A    between atoms: C_20  and  C_21
REMARK                            x       y       z     vdW  Elec       q    Type
REMARK                         _______ _______ _______ _____ _____    ______ ____
ROOT
ATOM      1  O   UNL     1       5.982   4.576  19.951  0.00  0.00    +0.000 OA
ATOM      2  C   UNL     1       5.027   4.605  19.195  0.00  0.00    +0.000 C 
ATOM      3  C   UNL     1       3.689   4.167  19.784  0.00  0.00    +0.000 C 
ATOM      4  C   UNL     1       3.759   2.842  20.559  0.00  0.00    +0.000 C 
ATOM      5  C   UNL     1       2.434   2.695  21.318  0.00  0.00    +0.000 C 
ATOM      6  C   UNL     1       1.289   2.622  20.304  0.00  0.00    +0.000 C 
ATOM      7  C   UNL     1       1.291   3.835  19.344  0.00  0.00    +0.000 C 
ATOM      8  N   UNL     1       2.627   4.086  18.753  0.00  0.00    +0.000 NA
ATOM      9  C   UNL     1       2.645   5.258  17.846  0.00  0.00    +0.000 C 
ATOM     10  C   UNL     1       3.991   5.368  17.194  0.00  0.00    +0.000 C 
ATOM     11  O   UNL     1       4.040   5.892  16.086  0.00  0.00    +0.000 OA
ATOM     12  N   UNL     1       5.134   5.152  17.928  0.00  0.00    +0.000 N 
ENDROOT
BRANCH   9  13
ATOM     13  C   UNL     1       2.351   6.630  18.491  0.00  0.00    +0.000 A 
ATOM     14  C   UNL     1       2.237   7.830  17.740  0.00  0.00    +0.000 A 
ATOM     15  C   UNL     1       1.913   9.038  18.344  0.00  0.00    +0.000 A 
ATOM     16  C   UNL     1       1.669   9.089  19.709  0.00  0.00    +0.000 A 
ATOM     17  C   UNL     1       1.752   7.923  20.473  0.00  0.00    +0.000 A 
ATOM     18  C   UNL     1       2.092   6.704  19.874  0.00  0.00    +0.000 A 
ENDBRANCH   9  13
BRANCH  12  19
ATOM     19  C   UNL     1       6.382   5.779  17.430  0.00  0.00    +0.000 C 
BRANCH  19  20
ATOM     20  C   UNL     1       7.430   4.870  16.760  0.00  0.00    +0.000 C 
BRANCH  20  21
ATOM     21  C   UNL     1       7.133   4.675  15.291  0.00  0.00    +0.000 A 
ATOM     22  C   UNL     1       7.870   5.378  14.314  0.00  0.00    +0.000 A 
ATOM     23  C   UNL     1       7.633   5.159  12.956  0.00  0.00    +0.000 A 
ATOM     24  C   UNL     1       6.663   4.236  12.558  0.00  0.00    +0.000 A 
ATOM     25  C   UNL     1       5.924   3.539  13.518  0.00  0.00    +0.000 A 
ATOM     26  C   UNL     1       6.155   3.758  14.879  0.00  0.00    +0.000 A 
ENDBRANCH  20  21
ENDBRANCH  19  20
ENDBRANCH  12  19
TORSDOF 4
ENDMDL
