MODEL 1
REMARK VINA RESULT:      -9.4      0.000      0.000
REMARK  Name = 
REMARK  7 active torsions:
REMARK  status: ('A' for Active; 'I' for Inactive)
REMARK    1  A    between atoms: C_2  and  C_20
REMARK    2  A    between atoms: N_3  and  C_4
REMARK    3  A    between atoms: C_4  and  C_5
REMARK    4  A    between atoms: C_4  and  C_11
REMARK    5  A    between atoms: C_5  and  N_6
REMARK    6  A    between atoms: C_11  and  C_13
REMARK    7  A    between atoms: C_23  and  C_24
REMARK                            x       y       z     vdW  Elec       q    Type
REMARK                         _______ _______ _______ _____ _____    ______ ____
ROOT
ATOM      1  O   UNL     1       3.947   7.215  16.832  0.00  0.00    +0.000 OA
ATOM      2  C   UNL     1       3.249   6.788  17.747  0.00  0.00    +0.000 C 
ATOM      3  N   UNL     1       3.188   5.452  18.056  0.00  0.00    +0.000 N 
ATOM      4  H   UNL     1       2.519   5.090  18.732  0.00  0.00    +0.000 HD
ENDROOT
BRANCH   2   5
ATOM      5  C   UNL     1       2.441   7.725  18.567  0.00  0.00    +0.000 A 
ATOM      6  C   UNL     1       2.177   7.367  19.890  0.00  0.00    +0.000 A 
ATOM      7  C   UNL     1       1.392   8.189  20.704  0.00  0.00    +0.000 A 
ATOM      8  C   UNL     1       0.843   9.395  20.228  0.00  0.00    +0.000 A 
ATOM      9  C   UNL     1       1.114   9.718  18.884  0.00  0.00    +0.000 A 
ATOM     10  F   UNL     1       0.625  10.845  18.343  0.00  0.00    +0.000 F 
ATOM     11  C   UNL     1       1.892   8.900  18.056  0.00  0.00    +0.000 A 
BRANCH   8  12
ATOM     12  C   UNL     1       0.007  10.239  21.118  0.00  0.00    +0.000 A 
ATOM     13  C   UNL     1      -0.308   9.826  22.429  0.00  0.00    +0.000 A 
ATOM     14  C   UNL     1      -1.154  10.571  23.255  0.00  0.00    +0.000 A 
ATOM     15  C   UNL     1      -1.692  11.768  22.798  0.00  0.00    +0.000 A 
ATOM     16  C   UNL     1      -1.379  12.218  21.519  0.00  0.00    +0.000 A 
ATOM     17  C   UNL     1      -0.543  11.460  20.690  0.00  0.00    +0.000 A 
ENDBRANCH   8  12
ENDBRANCH   2   5
BRANCH   3  18
ATOM     18  C   UNL     1       3.988   4.460  17.327  0.00  0.00    +0.000 C 
BRANCH  18  19
ATOM     19  C   UNL     1       3.595   3.067  17.846  0.00  0.00    +0.000 C 
ATOM     20  O   UNL     1       3.926   2.039  17.251  0.00  0.00    +0.000 OA
BRANCH  19  21
ATOM     21  C   UNL     1       2.793   2.942  19.099  0.00  0.00    +0.000 A 
ATOM     22  C   UNL     1       3.469   2.631  20.290  0.00  0.00    +0.000 A 
ATOM     23  C   UNL     1       2.761   2.509  21.490  0.00  0.00    +0.000 A 
ATOM     24  C   UNL     1       1.386   2.714  21.496  0.00  0.00    +0.000 A 
ATOM     25  F   UNL     1       0.707   2.604  22.644  0.00  0.00    +0.000 F 
ATOM     26  C   UNL     1       0.706   3.033  20.327  0.00  0.00    +0.000 A 
ATOM     27  C   UNL     1       1.409   3.150  19.122  0.00  0.00    +0.000 A 
ENDBRANCH  19  21
ENDBRANCH  18  19
BRANCH  18  28
ATOM     28  C   UNL     1       5.503   4.712  17.434  0.00  0.00    +0.000 C 
BRANCH  28  29
ATOM     29  N   UNL     1       6.183   4.790  16.156  0.00  0.00    +0.000 N 
ATOM     30  C   UNL     1       5.634   4.532  14.932  0.00  0.00    +0.000 A 
ATOM     31  C   UNL     1       6.649   4.771  14.033  0.00  0.00    +0.000 A 
ATOM     32  N   UNL     1       7.784   5.186  14.681  0.00  0.00    +0.000 NA
ATOM     33  C   UNL     1       7.469   5.205  15.957  0.00  0.00    +0.000 A 
ENDBRANCH  28  29
ENDBRANCH  18  28
ENDBRANCH   3  18
TORSDOF 7
ENDMDL
MODEL 2
REMARK VINA RESULT:      -9.4      1.368      1.820
REMARK  Name = 
REMARK  7 active torsions:
REMARK  status: ('A' for Active; 'I' for Inactive)
REMARK    1  A    between atoms: C_2  and  C_20
REMARK    2  A    between atoms: N_3  and  C_4
REMARK    3  A    between atoms: C_4  and  C_5
REMARK    4  A    between atoms: C_4  and  C_11
REMARK    5  A    between atoms: C_5  and  N_6
REMARK    6  A    between atoms: C_11  and  C_13
REMARK    7  A    between atoms: C_23  and  C_24
REMARK                            x       y       z     vdW  Elec       q    Type
REMARK                         _______ _______ _______ _____ _____    ______ ____
ROOT
ATOM      1  O   UNL     1       2.908   8.406  17.034  0.00  0.00    +0.000 OA
ATOM      2  C   UNL     1       2.461   7.939  18.077  0.00  0.00    +0.000 C 
ATOM      3  N   UNL     1       2.784   6.677  18.509  0.00  0.00    +0.000 N 
ATOM      4  H   UNL     1       2.319   6.250  19.307  0.00  0.00    +0.000 HD
ENDROOT
BRANCH   2   5
ATOM      5  C   UNL     1       1.546   8.746  18.922  0.00  0.00    +0.000 A 
ATOM      6  C   UNL     1       0.962   9.878  18.348  0.00  0.00    +0.000 A 
ATOM      7  C   UNL     1       0.119  10.700  19.101  0.00  0.00    +0.000 A 
ATOM      8  C   UNL     1      -0.172  10.424  20.451  0.00  0.00    +0.000 A 
ATOM      9  C   UNL     1       0.446   9.285  21.004  0.00  0.00    +0.000 A 
ATOM     10  F   UNL     1       0.232   8.949  22.286  0.00  0.00    +0.000 F 
ATOM     11  C   UNL     1       1.299   8.458  20.263  0.00  0.00    +0.000 A 
BRANCH   8  12
ATOM     12  C   UNL     1      -1.066  11.324  21.222  0.00  0.00    +0.000 A 
ATOM     13  C   UNL     1      -1.062  11.319  22.632  0.00  0.00    +0.000 A 
ATOM     14  C   UNL     1      -1.948  12.105  23.375  0.00  0.00    +0.000 A 
ATOM     15  C   UNL     1      -2.851  12.937  22.725  0.00  0.00    +0.000 A 
ATOM     16  C   UNL     1      -2.861  12.986  21.334  0.00  0.00    +0.000 A 
ATOM     17  C   UNL     1      -1.982  12.185  20.594  0.00  0.00    +0.000 A 
ENDBRANCH   8  12
ENDBRANCH   2   5
BRANCH   3  18
ATOM     18  C   UNL     1       3.717   5.827  17.760  0.00  0.00    +0.000 C 
BRANCH  18  19
ATOM     19  C   UNL     1       3.145   4.399  17.748  0.00  0.00    +0.000 C 
ATOM     20  O   UNL     1       3.177   3.698  16.734  0.00  0.00    +0.000 OA
BRANCH  19  21
ATOM     21  C   UNL     1       2.534   3.836  18.988  0.00  0.00    +0.000 A 
ATOM     22  C   UNL     1       3.391   3.339  19.984  0.00  0.00    +0.000 A 
ATOM     23  C   UNL     1       2.865   2.806  21.164  0.00  0.00    +0.000 A 
ATOM     24  C   UNL     1       1.487   2.787  21.351  0.00  0.00    +0.000 A 
ATOM     25  F   UNL     1       0.981   2.284  22.483  0.00  0.00    +0.000 F 
ATOM     26  C   UNL     1       0.628   3.285  20.379  0.00  0.00    +0.000 A 
ATOM     27  C   UNL     1       1.148   3.814  19.193  0.00  0.00    +0.000 A 
ENDBRANCH  19  21
ENDBRANCH  18  19
BRANCH  18  28
ATOM     28  C   UNL     1       5.152   5.871  18.315  0.00  0.00    +0.000 C 
BRANCH  28  29
ATOM     29  N   UNL     1       6.151   5.322  17.420  0.00  0.00    +0.000 N 
ATOM     30  C   UNL     1       6.171   5.441  16.060  0.00  0.00    +0.000 A 
ATOM     31  C   UNL     1       7.318   4.791  15.665  0.00  0.00    +0.000 A 
ATOM     32  N   UNL     1       7.998   4.304  16.751  0.00  0.00    +0.000 NA
ATOM     33  C   UNL     1       7.282   4.654  17.796  0.00  0.00    +0.000 A 
ENDBRANCH  28  29
ENDBRANCH  18  28
ENDBRANCH   3  18
TORSDOF 7
ENDMDL
MODEL 3
REMARK VINA RESULT:      -9.3      0.897      1.235
REMARK  Name = 
REMARK  7 active torsions:
REMARK  status: ('A' for Active; 'I' for Inactive)
REMARK    1  A    between atoms: C_2  and  C_20
REMARK    2  A    between atoms: N_3  and  C_4
REMARK    3  A    between atoms: C_4  and  C_5
REMARK    4  A    between atoms: C_4  and  C_11
REMARK    5  A    between atoms: C_5  and  N_6
REMARK    6  A    between atoms: C_11  and  C_13
REMARK    7  A    between atoms: C_23  and  C_24
REMARK                            x       y       z     vdW  Elec       q    Type
REMARK                         _______ _______ _______ _____ _____    ______ ____
ROOT
ATOM      1  O   UNL     1       3.732   7.245  16.874  0.00  0.00    +0.000 OA
ATOM      2  C   UNL     1       3.127   6.818  17.853  0.00  0.00    +0.000 C 
ATOM      3  N   UNL     1       3.162   5.494  18.212  0.00  0.00    +0.000 N 
ATOM      4  H   UNL     1       2.564   5.125  18.949  0.00  0.00    +0.000 HD
ENDROOT
BRANCH   2   5
ATOM      5  C   UNL     1       2.329   7.744  18.696  0.00  0.00    +0.000 A 
ATOM      6  C   UNL     1       1.851   8.913  18.101  0.00  0.00    +0.000 A 
ATOM      7  C   UNL     1       1.124   9.843  18.851  0.00  0.00    +0.000 A 
ATOM      8  C   UNL     1       0.847   9.640  20.217  0.00  0.00    +0.000 A 
ATOM      9  C   UNL     1       1.359   8.458  20.789  0.00  0.00    +0.000 A 
ATOM     10  F   UNL     1       1.151   8.186  22.087  0.00  0.00    +0.000 F 
ATOM     11  C   UNL     1       2.095   7.523  20.052  0.00  0.00    +0.000 A 
BRANCH   8  12
ATOM     12  C   UNL     1       0.079  10.652  20.983  0.00  0.00    +0.000 A 
ATOM     13  C   UNL     1      -0.458  10.352  22.252  0.00  0.00    +0.000 A 
ATOM     14  C   UNL     1      -1.246  11.267  22.955  0.00  0.00    +0.000 A 
ATOM     15  C   UNL     1      -1.501  12.522  22.416  0.00  0.00    +0.000 A 
ATOM     16  C   UNL     1      -0.963  12.860  21.178  0.00  0.00    +0.000 A 
ATOM     17  C   UNL     1      -0.187  11.934  20.471  0.00  0.00    +0.000 A 
ENDBRANCH   8  12
ENDBRANCH   2   5
BRANCH   3  18
ATOM     18  C   UNL     1       3.960   4.518  17.462  0.00  0.00    +0.000 C 
BRANCH  18  19
ATOM     19  C   UNL     1       3.535   3.113  17.919  0.00  0.00    +0.000 C 
ATOM     20  O   UNL     1       3.835   2.105  17.275  0.00  0.00    +0.000 OA
BRANCH  19  21
ATOM     21  C   UNL     1       2.739   2.950  19.171  0.00  0.00    +0.000 A 
ATOM     22  C   UNL     1       3.423   2.627  20.355  0.00  0.00    +0.000 A 
ATOM     23  C   UNL     1       2.721   2.470  21.554  0.00  0.00    +0.000 A 
ATOM     24  C   UNL     1       1.342   2.652  21.567  0.00  0.00    +0.000 A 
ATOM     25  F   UNL     1       0.669   2.509  22.715  0.00  0.00    +0.000 F 
ATOM     26  C   UNL     1       0.654   2.983  20.406  0.00  0.00    +0.000 A 
ATOM     27  C   UNL     1       1.351   3.135  19.202  0.00  0.00    +0.000 A 
ENDBRANCH  19  21
ENDBRANCH  18  19
BRANCH  18  28
ATOM     28  C   UNL     1       5.477   4.740  17.608  0.00  0.00    +0.000 C 
BRANCH  28  29
ATOM     29  N   UNL     1       6.192   4.794  16.348  0.00  0.00    +0.000 N 
ATOM     30  C   UNL     1       5.925   4.050  15.235  0.00  0.00    +0.000 A 
ATOM     31  C   UNL     1       6.840   4.476  14.298  0.00  0.00    +0.000 A 
ATOM     32  N   UNL     1       7.633   5.469  14.811  0.00  0.00    +0.000 NA
ATOM     33  C   UNL     1       7.209   5.653  16.041  0.00  0.00    +0.000 A 
ENDBRANCH  28  29
ENDBRANCH  18  28
ENDBRANCH   3  18
TORSDOF 7
ENDMDL
MODEL 4
REMARK VINA RESULT:      -9.2      1.365      2.066
REMARK  Name = 
REMARK  7 active torsions:
REMARK  status: ('A' for Active; 'I' for Inactive)
REMARK    1  A    between atoms: C_2  and  C_20
REMARK    2  A    between atoms: N_3  and  C_4
REMARK    3  A    between atoms: C_4  and  C_5
REMARK    4  A    between atoms: C_4  and  C_11
REMARK    5  A    between atoms: C_5  and  N_6
REMARK    6  A    between atoms: C_11  and  C_13
REMARK    7  A    between atoms: C_23  and  C_24
REMARK                            x       y       z     vdW  Elec       q    Type
REMARK                         _______ _______ _______ _____ _____    ______ ____
ROOT
ATOM      1  O   UNL     1       2.809   8.215  17.035  0.00  0.00    +0.000 OA
ATOM      2  C   UNL     1       2.482   7.814  18.148  0.00  0.00    +0.000 C 
ATOM      3  N   UNL     1       2.777   6.546  18.582  0.00  0.00    +0.000 N 
ATOM      4  H   UNL     1       2.401   6.179  19.453  0.00  0.00    +0.000 HD
ENDROOT
BRANCH   2   5
ATOM      5  C   UNL     1       1.749   8.711  19.077  0.00  0.00    +0.000 A 
ATOM      6  C   UNL     1       1.246   9.907  18.561  0.00  0.00    +0.000 A 
ATOM      7  C   UNL     1       0.578  10.811  19.393  0.00  0.00    +0.000 A 
ATOM      8  C   UNL     1       0.387  10.555  20.764  0.00  0.00    +0.000 A 
ATOM      9  C   UNL     1       0.922   9.347  21.255  0.00  0.00    +0.000 A 
ATOM     10  F   UNL     1       0.795   9.024  22.551  0.00  0.00    +0.000 F 
ATOM     11  C   UNL     1       1.601   8.437  20.435  0.00  0.00    +0.000 A 
BRANCH   8  12
ATOM     12  C   UNL     1      -0.320  11.542  21.618  0.00  0.00    +0.000 A 
ATOM     13  C   UNL     1       0.083  12.892  21.658  0.00  0.00    +0.000 A 
ATOM     14  C   UNL     1      -0.523  13.818  22.511  0.00  0.00    +0.000 A 
ATOM     15  C   UNL     1      -1.569  13.423  23.335  0.00  0.00    +0.000 A 
ATOM     16  C   UNL     1      -2.010  12.103  23.299  0.00  0.00    +0.000 A 
ATOM     17  C   UNL     1      -1.389  11.175  22.454  0.00  0.00    +0.000 A 
ENDBRANCH   8  12
ENDBRANCH   2   5
BRANCH   3  18
ATOM     18  C   UNL     1       3.537   5.608  17.747  0.00  0.00    +0.000 C 
BRANCH  18  19
ATOM     19  C   UNL     1       2.835   4.242  17.816  0.00  0.00    +0.000 C 
ATOM     20  O   UNL     1       2.619   3.574  16.802  0.00  0.00    +0.000 OA
BRANCH  19  21
ATOM     21  C   UNL     1       2.399   3.699  19.136  0.00  0.00    +0.000 A 
ATOM     22  C   UNL     1       1.022   3.585  19.385  0.00  0.00    +0.000 A 
ATOM     23  C   UNL     1       0.566   3.078  20.605  0.00  0.00    +0.000 A 
ATOM     24  C   UNL     1       1.488   2.672  21.564  0.00  0.00    +0.000 A 
ATOM     25  F   UNL     1       1.054   2.179  22.730  0.00  0.00    +0.000 F 
ATOM     26  C   UNL     1       2.853   2.769  21.327  0.00  0.00    +0.000 A 
ATOM     27  C   UNL     1       3.315   3.282  20.110  0.00  0.00    +0.000 A 
ENDBRANCH  19  21
ENDBRANCH  18  19
BRANCH  18  28
ATOM     28  C   UNL     1       5.023   5.517  18.142  0.00  0.00    +0.000 C 
BRANCH  28  29
ATOM     29  N   UNL     1       5.923   5.324  17.023  0.00  0.00    +0.000 N 
ATOM     30  C   UNL     1       5.962   4.239  16.195  0.00  0.00    +0.000 A 
ATOM     31  C   UNL     1       6.947   4.530  15.278  0.00  0.00    +0.000 A 
ATOM     32  N   UNL     1       7.483   5.768  15.519  0.00  0.00    +0.000 NA
ATOM     33  C   UNL     1       6.836   6.231  16.564  0.00  0.00    +0.000 A 
ENDBRANCH  28  29
ENDBRANCH  18  28
ENDBRANCH   3  18
TORSDOF 7
ENDMDL
MODEL 5
REMARK VINA RESULT:      -9.1      1.274      1.677
REMARK  Name = 
REMARK  7 active torsions:
REMARK  status: ('A' for Active; 'I' for Inactive)
REMARK    1  A    between atoms: C_2  and  C_20
REMARK    2  A    between atoms: N_3  and  C_4
REMARK    3  A    between atoms: C_4  and  C_5
REMARK    4  A    between atoms: C_4  and  C_11
REMARK    5  A    between atoms: C_5  and  N_6
REMARK    6  A    between atoms: C_11  and  C_13
REMARK    7  A    between atoms: C_23  and  C_24
REMARK                            x       y       z     vdW  Elec       q    Type
REMARK                         _______ _______ _______ _____ _____    ______ ____
ROOT
ATOM      1  O   UNL     1       3.050   8.124  17.021  0.00  0.00    +0.000 OA
ATOM      2  C   UNL     1       2.615   7.650  18.066  0.00  0.00    +0.000 C 
ATOM      3  N   UNL     1       2.788   6.330  18.396  0.00  0.00    +0.000 N 
ATOM      4  H   UNL     1       2.323   5.915  19.201  0.00  0.00    +0.000 HD
ENDROOT
BRANCH   2   5
ATOM      5  C   UNL     1       1.878   8.512  19.024  0.00  0.00    +0.000 A 
ATOM      6  C   UNL     1       1.367   9.721  18.547  0.00  0.00    +0.000 A 
ATOM      7  C   UNL     1       0.695  10.595  19.408  0.00  0.00    +0.000 A 
ATOM      8  C   UNL     1       0.508  10.294  20.771  0.00  0.00    +0.000 A 
ATOM      9  C   UNL     1       1.051   9.074  21.222  0.00  0.00    +0.000 A 
ATOM     10  F   UNL     1       0.928   8.709  22.508  0.00  0.00    +0.000 F 
ATOM     11  C   UNL     1       1.733   8.195  20.373  0.00  0.00    +0.000 A 
BRANCH   8  12
ATOM     12  C   UNL     1      -0.204  11.249  21.657  0.00  0.00    +0.000 A 
ATOM     13  C   UNL     1      -1.206  10.808  22.545  0.00  0.00    +0.000 A 
ATOM     14  C   UNL     1      -1.938  11.701  23.333  0.00  0.00    +0.000 A 
ATOM     15  C   UNL     1      -1.671  13.063  23.269  0.00  0.00    +0.000 A 
ATOM     16  C   UNL     1      -0.669  13.528  22.422  0.00  0.00    +0.000 A 
ATOM     17  C   UNL     1       0.051  12.631  21.624  0.00  0.00    +0.000 A 
ENDBRANCH   8  12
ENDBRANCH   2   5
BRANCH   3  18
ATOM     18  C   UNL     1       3.542   5.416  17.530  0.00  0.00    +0.000 C 
BRANCH  18  19
ATOM     19  C   UNL     1       2.924   4.015  17.673  0.00  0.00    +0.000 C 
ATOM     20  O   UNL     1       2.847   3.242  16.716  0.00  0.00    +0.000 OA
BRANCH  19  21
ATOM     21  C   UNL     1       2.401   3.568  18.998  0.00  0.00    +0.000 A 
ATOM     22  C   UNL     1       3.321   3.098  19.950  0.00  0.00    +0.000 A 
ATOM     23  C   UNL     1       2.879   2.674  21.206  0.00  0.00    +0.000 A 
ATOM     24  C   UNL     1       1.523   2.736  21.511  0.00  0.00    +0.000 A 
ATOM     25  F   UNL     1       1.098   2.336  22.716  0.00  0.00    +0.000 F 
ATOM     26  C   UNL     1       0.604   3.209  20.583  0.00  0.00    +0.000 A 
ATOM     27  C   UNL     1       1.040   3.629  19.321  0.00  0.00    +0.000 A 
ENDBRANCH  19  21
ENDBRANCH  18  19
BRANCH  18  28
ATOM     28  C   UNL     1       5.053   5.415  17.824  0.00  0.00    +0.000 C 
BRANCH  28  29
ATOM     29  N   UNL     1       5.887   5.272  16.647  0.00  0.00    +0.000 N 
ATOM     30  C   UNL     1       7.076   4.603  16.574  0.00  0.00    +0.000 A 
ATOM     31  C   UNL     1       7.464   4.717  15.258  0.00  0.00    +0.000 A 
ATOM     32  N   UNL     1       6.532   5.414  14.535  0.00  0.00    +0.000 NA
ATOM     33  C   UNL     1       5.585   5.721  15.392  0.00  0.00    +0.000 A 
ENDBRANCH  28  29
ENDBRANCH  18  28
ENDBRANCH   3  18
TORSDOF 7
ENDMDL
MODEL 6
REMARK VINA RESULT:      -9.1      2.691      5.110
REMARK  Name = 
REMARK  7 active torsions:
REMARK  status: ('A' for Active; 'I' for Inactive)
REMARK    1  A    between atoms: C_2  and  C_20
REMARK    2  A    between atoms: N_3  and  C_4
REMARK    3  A    between atoms: C_4  and  C_5
REMARK    4  A    between atoms: C_4  and  C_11
REMARK    5  A    between atoms: C_5  and  N_6
REMARK    6  A    between atoms: C_11  and  C_13
REMARK    7  A    between atoms: C_23  and  C_24
REMARK                            x       y       z     vdW  Elec       q    Type
REMARK                         _______ _______ _______ _____ _____    ______ ____
ROOT
ATOM      1  O   UNL     1       3.177   5.197  20.232  0.00  0.00    +0.000 OA
ATOM      2  C   UNL     1       3.150   5.929  19.246  0.00  0.00    +0.000 C 
ATOM      3  N   UNL     1       3.791   5.601  18.078  0.00  0.00    +0.000 N 
ATOM      4  H   UNL     1       3.868   6.262  17.308  0.00  0.00    +0.000 HD
ENDROOT
BRANCH   2   5
ATOM      5  C   UNL     1       2.403   7.211  19.291  0.00  0.00    +0.000 A 
ATOM      6  C   UNL     1       2.404   8.001  18.139  0.00  0.00    +0.000 A 
ATOM      7  C   UNL     1       1.749   9.237  18.128  0.00  0.00    +0.000 A 
ATOM      8  C   UNL     1       1.072   9.726  19.261  0.00  0.00    +0.000 A 
ATOM      9  C   UNL     1       1.105   8.912  20.410  0.00  0.00    +0.000 A 
ATOM     10  F   UNL     1       0.492   9.302  21.539  0.00  0.00    +0.000 F 
ATOM     11  C   UNL     1       1.763   7.677  20.438  0.00  0.00    +0.000 A 
BRANCH   8  12
ATOM     12  C   UNL     1       0.394  11.046  19.214  0.00  0.00    +0.000 A 
ATOM     13  C   UNL     1      -1.005  11.151  19.351  0.00  0.00    +0.000 A 
ATOM     14  C   UNL     1      -1.668  12.376  19.236  0.00  0.00    +0.000 A 
ATOM     15  C   UNL     1      -0.944  13.539  19.003  0.00  0.00    +0.000 A 
ATOM     16  C   UNL     1       0.442  13.473  18.891  0.00  0.00    +0.000 A 
ATOM     17  C   UNL     1       1.100  12.241  18.991  0.00  0.00    +0.000 A 
ENDBRANCH   8  12
ENDBRANCH   2   5
BRANCH   3  18
ATOM     18  C   UNL     1       4.515   4.333  17.930  0.00  0.00    +0.000 C 
BRANCH  18  19
ATOM     19  C   UNL     1       5.832   4.628  17.195  0.00  0.00    +0.000 C 
ATOM     20  O   UNL     1       6.210   3.940  16.243  0.00  0.00    +0.000 OA
BRANCH  19  21
ATOM     21  C   UNL     1       6.686   5.772  17.632  0.00  0.00    +0.000 A 
ATOM     22  C   UNL     1       7.494   5.601  18.768  0.00  0.00    +0.000 A 
ATOM     23  C   UNL     1       8.313   6.642  19.213  0.00  0.00    +0.000 A 
ATOM     24  C   UNL     1       8.333   7.843  18.513  0.00  0.00    +0.000 A 
ATOM     25  F   UNL     1       9.122   8.839  18.933  0.00  0.00    +0.000 F 
ATOM     26  C   UNL     1       7.547   8.023  17.382  0.00  0.00    +0.000 A 
ATOM     27  C   UNL     1       6.720   6.986  16.935  0.00  0.00    +0.000 A 
ENDBRANCH  19  21
ENDBRANCH  18  19
BRANCH  18  28
ATOM     28  C   UNL     1       3.687   3.245  17.223  0.00  0.00    +0.000 C 
BRANCH  28  29
ATOM     29  N   UNL     1       2.537   2.790  17.980  0.00  0.00    +0.000 N 
ATOM     30  C   UNL     1       2.556   1.926  19.038  0.00  0.00    +0.000 A 
ATOM     31  C   UNL     1       1.242   1.829  19.437  0.00  0.00    +0.000 A 
ATOM     32  N   UNL     1       0.440   2.626  18.663  0.00  0.00    +0.000 NA
ATOM     33  C   UNL     1       1.248   3.206  17.806  0.00  0.00    +0.000 A 
ENDBRANCH  28  29
ENDBRANCH  18  28
ENDBRANCH   3  18
TORSDOF 7
ENDMDL
MODEL 7
REMARK VINA RESULT:      -9.1      0.495      1.382
REMARK  Name = 
REMARK  7 active torsions:
REMARK  status: ('A' for Active; 'I' for Inactive)
REMARK    1  A    between atoms: C_2  and  C_20
REMARK    2  A    between atoms: N_3  and  C_4
REMARK    3  A    between atoms: C_4  and  C_5
REMARK    4  A    between atoms: C_4  and  C_11
REMARK    5  A    between atoms: C_5  and  N_6
REMARK    6  A    between atoms: C_11  and  C_13
REMARK    7  A    between atoms: C_23  and  C_24
REMARK                            x       y       z     vdW  Elec       q    Type
REMARK                         _______ _______ _______ _____ _____    ______ ____
ROOT
ATOM      1  O   UNL     1       3.972   7.026  16.787  0.00  0.00    +0.000 OA
ATOM      2  C   UNL     1       3.266   6.621  17.705  0.00  0.00    +0.000 C 
ATOM      3  N   UNL     1       3.152   5.286  18.003  0.00  0.00    +0.000 N 
ATOM      4  H   UNL     1       2.475   4.946  18.682  0.00  0.00    +0.000 HD
ENDROOT
BRANCH   2   5
ATOM      5  C   UNL     1       2.505   7.584  18.540  0.00  0.00    +0.000 A 
ATOM      6  C   UNL     1       2.253   7.231  19.868  0.00  0.00    +0.000 A 
ATOM      7  C   UNL     1       1.511   8.078  20.697  0.00  0.00    +0.000 A 
ATOM      8  C   UNL     1       0.996   9.304  20.233  0.00  0.00    +0.000 A 
ATOM      9  C   UNL     1       1.255   9.621  18.885  0.00  0.00    +0.000 A 
ATOM     10  F   UNL     1       0.795  10.765  18.354  0.00  0.00    +0.000 F 
ATOM     11  C   UNL     1       1.988   8.778  18.042  0.00  0.00    +0.000 A 
BRANCH   8  12
ATOM     12  C   UNL     1       0.206  10.174  21.140  0.00  0.00    +0.000 A 
ATOM     13  C   UNL     1       0.063  11.553  20.883  0.00  0.00    +0.000 A 
ATOM     14  C   UNL     1      -0.614  12.402  21.763  0.00  0.00    +0.000 A 
ATOM     15  C   UNL     1      -1.189  11.887  22.919  0.00  0.00    +0.000 A 
ATOM     16  C   UNL     1      -1.090  10.525  23.188  0.00  0.00    +0.000 A 
ATOM     17  C   UNL     1      -0.397   9.682  22.310  0.00  0.00    +0.000 A 
ENDBRANCH   8  12
ENDBRANCH   2   5
BRANCH   3  18
ATOM     18  C   UNL     1       3.902   4.268  17.258  0.00  0.00    +0.000 C 
BRANCH  18  19
ATOM     19  C   UNL     1       3.536   2.893  17.841  0.00  0.00    +0.000 C 
ATOM     20  O   UNL     1       3.818   1.846  17.255  0.00  0.00    +0.000 OA
BRANCH  19  21
ATOM     21  C   UNL     1       2.820   2.810  19.149  0.00  0.00    +0.000 A 
ATOM     22  C   UNL     1       1.418   2.881  19.143  0.00  0.00    +0.000 A 
ATOM     23  C   UNL     1       0.704   2.803  20.343  0.00  0.00    +0.000 A 
ATOM     24  C   UNL     1       1.394   2.638  21.539  0.00  0.00    +0.000 A 
ATOM     25  F   UNL     1       0.712   2.556  22.688  0.00  0.00    +0.000 F 
ATOM     26  C   UNL     1       2.781   2.556  21.558  0.00  0.00    +0.000 A 
ATOM     27  C   UNL     1       3.501   2.640  20.361  0.00  0.00    +0.000 A 
ENDBRANCH  19  21
ENDBRANCH  18  19
BRANCH  18  28
ATOM     28  C   UNL     1       5.422   4.514  17.265  0.00  0.00    +0.000 C 
BRANCH  28  29
ATOM     29  N   UNL     1       6.026   4.534  15.948  0.00  0.00    +0.000 N 
ATOM     30  C   UNL     1       7.023   5.369  15.528  0.00  0.00    +0.000 A 
ATOM     31  C   UNL     1       7.278   4.987  14.230  0.00  0.00    +0.000 A 
ATOM     32  N   UNL     1       6.479   3.935  13.867  0.00  0.00    +0.000 NA
ATOM     33  C   UNL     1       5.748   3.672  14.926  0.00  0.00    +0.000 A 
ENDBRANCH  28  29
ENDBRANCH  18  28
ENDBRANCH   3  18
TORSDOF 7
ENDMDL
MODEL 8
REMARK VINA RESULT:      -9.1      2.619      5.317
REMARK  Name = 
REMARK  7 active torsions:
REMARK  status: ('A' for Active; 'I' for Inactive)
REMARK    1  A    between atoms: C_2  and  C_20
REMARK    2  A    between atoms: N_3  and  C_4
REMARK    3  A    between atoms: C_4  and  C_5
REMARK    4  A    between atoms: C_4  and  C_11
REMARK    5  A    between atoms: C_5  and  N_6
REMARK    6  A    between atoms: C_11  and  C_13
REMARK    7  A    between atoms: C_23  and  C_24
REMARK                            x       y       z     vdW  Elec       q    Type
REMARK                         _______ _______ _______ _____ _____    ______ ____
ROOT
ATOM      1  O   UNL     1       3.040   5.484  17.553  0.00  0.00    +0.000 OA
ATOM      2  C   UNL     1       3.186   6.013  18.650  0.00  0.00    +0.000 C 
ATOM      3  N   UNL     1       4.063   5.523  19.586  0.00  0.00    +0.000 N 
ATOM      4  H   UNL     1       4.092   5.891  20.534  0.00  0.00    +0.000 HD
ENDROOT
BRANCH   2   5
ATOM      5  C   UNL     1       2.407   7.227  19.001  0.00  0.00    +0.000 A 
ATOM      6  C   UNL     1       2.221   8.188  18.004  0.00  0.00    +0.000 A 
ATOM      7  C   UNL     1       1.527   9.370  18.281  0.00  0.00    +0.000 A 
ATOM      8  C   UNL     1       0.996   9.636  19.557  0.00  0.00    +0.000 A 
ATOM      9  C   UNL     1       1.216   8.654  20.543  0.00  0.00    +0.000 A 
ATOM     10  F   UNL     1       0.752   8.826  21.791  0.00  0.00    +0.000 F 
ATOM     11  C   UNL     1       1.916   7.470  20.282  0.00  0.00    +0.000 A 
BRANCH   8  12
ATOM     12  C   UNL     1       0.271  10.905  19.817  0.00  0.00    +0.000 A 
ATOM     13  C   UNL     1      -1.055  11.090  19.376  0.00  0.00    +0.000 A 
ATOM     14  C   UNL     1      -1.727  12.304  19.545  0.00  0.00    +0.000 A 
ATOM     15  C   UNL     1      -1.095  13.364  20.184  0.00  0.00    +0.000 A 
ATOM     16  C   UNL     1       0.205  13.205  20.655  0.00  0.00    +0.000 A 
ATOM     17  C   UNL     1       0.879  11.992  20.470  0.00  0.00    +0.000 A 
ENDBRANCH   8  12
ENDBRANCH   2   5
BRANCH   3  18
ATOM     18  C   UNL     1       4.906   4.354  19.307  0.00  0.00    +0.000 C 
BRANCH  18  19
ATOM     19  C   UNL     1       5.774   4.682  18.082  0.00  0.00    +0.000 C 
ATOM     20  O   UNL     1       5.795   3.951  17.089  0.00  0.00    +0.000 OA
BRANCH  19  21
ATOM     21  C   UNL     1       6.617   5.915  18.079  0.00  0.00    +0.000 A 
ATOM     22  C   UNL     1       6.281   6.947  17.188  0.00  0.00    +0.000 A 
ATOM     23  C   UNL     1       7.038   8.121  17.153  0.00  0.00    +0.000 A 
ATOM     24  C   UNL     1       8.116   8.266  18.020  0.00  0.00    +0.000 A 
ATOM     25  F   UNL     1       8.838   9.393  17.993  0.00  0.00    +0.000 F 
ATOM     26  C   UNL     1       8.453   7.258  18.914  0.00  0.00    +0.000 A 
ATOM     27  C   UNL     1       7.703   6.077  18.949  0.00  0.00    +0.000 A 
ENDBRANCH  19  21
ENDBRANCH  18  19
BRANCH  18  28
ATOM     28  C   UNL     1       4.096   3.059  19.114  0.00  0.00    +0.000 C 
BRANCH  28  29
ATOM     29  N   UNL     1       2.995   2.904  20.045  0.00  0.00    +0.000 N 
ATOM     30  C   UNL     1       1.665   2.964  19.741  0.00  0.00    +0.000 A 
ATOM     31  C   UNL     1       1.020   2.726  20.934  0.00  0.00    +0.000 A 
ATOM     32  N   UNL     1       1.925   2.504  21.939  0.00  0.00    +0.000 NA
ATOM     33  C   UNL     1       3.106   2.599  21.372  0.00  0.00    +0.000 A 
ENDBRANCH  28  29
ENDBRANCH  18  28
ENDBRANCH   3  18
TORSDOF 7
ENDMDL
MODEL 9
REMARK VINA RESULT:      -9.1      2.743      5.193
REMARK  Name = 
REMARK  7 active torsions:
REMARK  status: ('A' for Active; 'I' for Inactive)
REMARK    1  A    between atoms: C_2  and  C_20
REMARK    2  A    between atoms: N_3  and  C_4
REMARK    3  A    between atoms: C_4  and  C_5
REMARK    4  A    between atoms: C_4  and  C_11
REMARK    5  A    between atoms: C_5  and  N_6
REMARK    6  A    between atoms: C_11  and  C_13
REMARK    7  A    between atoms: C_23  and  C_24
REMARK                            x       y       z     vdW  Elec       q    Type
REMARK                         _______ _______ _______ _____ _____    ______ ____
ROOT
ATOM      1  O   UNL     1       3.321   5.202  20.248  0.00  0.00    +0.000 OA
ATOM      2  C   UNL     1       3.288   5.934  19.263  0.00  0.00    +0.000 C 
ATOM      3  N   UNL     1       3.969   5.634  18.109  0.00  0.00    +0.000 N 
ATOM      4  H   UNL     1       4.038   6.300  17.342  0.00  0.00    +0.000 HD
ENDROOT
BRANCH   2   5
ATOM      5  C   UNL     1       2.491   7.185  19.291  0.00  0.00    +0.000 A 
ATOM      6  C   UNL     1       2.468   7.966  18.133  0.00  0.00    +0.000 A 
ATOM      7  C   UNL     1       1.765   9.174  18.107  0.00  0.00    +0.000 A 
ATOM      8  C   UNL     1       1.060   9.645  19.231  0.00  0.00    +0.000 A 
ATOM      9  C   UNL     1       1.118   8.842  20.387  0.00  0.00    +0.000 A 
ATOM     10  F   UNL     1       0.482   9.217  21.509  0.00  0.00    +0.000 F 
ATOM     11  C   UNL     1       1.825   7.635  20.430  0.00  0.00    +0.000 A 
BRANCH   8  12
ATOM     12  C   UNL     1       0.331  10.937  19.169  0.00  0.00    +0.000 A 
ATOM     13  C   UNL     1      -0.884  11.053  18.464  0.00  0.00    +0.000 A 
ATOM     14  C   UNL     1      -1.547  12.277  18.332  0.00  0.00    +0.000 A 
ATOM     15  C   UNL     1      -1.021  13.418  18.924  0.00  0.00    +0.000 A 
ATOM     16  C   UNL     1       0.163  13.332  19.651  0.00  0.00    +0.000 A 
ATOM     17  C   UNL     1       0.831  12.107  19.767  0.00  0.00    +0.000 A 
ENDBRANCH   8  12
ENDBRANCH   2   5
BRANCH   3  18
ATOM     18  C   UNL     1       4.746   4.396  17.977  0.00  0.00    +0.000 C 
BRANCH  18  19
ATOM     19  C   UNL     1       6.049   4.736  17.236  0.00  0.00    +0.000 C 
ATOM     20  O   UNL     1       6.425   4.087  16.257  0.00  0.00    +0.000 OA
BRANCH  19  21
ATOM     21  C   UNL     1       6.890   5.879  17.702  0.00  0.00    +0.000 A 
ATOM     22  C   UNL     1       6.831   7.083  16.981  0.00  0.00    +0.000 A 
ATOM     23  C   UNL     1       7.596   8.182  17.382  0.00  0.00    +0.000 A 
ATOM     24  C   UNL     1       8.404   8.077  18.510  0.00  0.00    +0.000 A 
ATOM     25  F   UNL     1       9.132   9.130  18.900  0.00  0.00    +0.000 F 
ATOM     26  C   UNL     1       8.463   6.896  19.239  0.00  0.00    +0.000 A 
ATOM     27  C   UNL     1       7.704   5.791  18.838  0.00  0.00    +0.000 A 
ENDBRANCH  19  21
ENDBRANCH  18  19
BRANCH  18  28
ATOM     28  C   UNL     1       3.964   3.264  17.286  0.00  0.00    +0.000 C 
BRANCH  28  29
ATOM     29  N   UNL     1       2.801   2.811  18.024  0.00  0.00    +0.000 N 
ATOM     30  C   UNL     1       1.509   3.199  17.814  0.00  0.00    +0.000 A 
ATOM     31  C   UNL     1       0.772   2.479  18.727  0.00  0.00    +0.000 A 
ATOM     32  N   UNL     1       1.583   1.655  19.464  0.00  0.00    +0.000 NA
ATOM     33  C   UNL     1       2.797   1.862  19.006  0.00  0.00    +0.000 A 
ENDBRANCH  28  29
ENDBRANCH  18  28
ENDBRANCH   3  18
TORSDOF 7
ENDMDL
