MODEL 1
REMARK VINA RESULT:      -7.2      0.000      0.000
REMARK  Name = 
REMARK  12 active torsions:
REMARK  status: ('A' for Active; 'I' for Inactive)
REMARK    1  A    between atoms: C_1  and  N_2
REMARK    2  A    between atoms: C_3  and  C_5
REMARK    3  A    between atoms: C_5  and  N_6
REMARK    4  A    between atoms: C_5  and  C_24
REMARK    5  A    between atoms: C_7  and  C_9
REMARK    6  A    between atoms: C_11  and  O_12
REMARK    7  A    between atoms: O_12  and  C_13
REMARK    8  A    between atoms: C_13  and  C_14
REMARK    9  A    between atoms: C_18  and  C_19
REMARK   10  A    between atoms: C_24  and  C_25
REMARK   11  A    between atoms: C_24  and  C_26
REMARK   12  A    between atoms: C_24  and  O_27
REMARK                            x       y       z     vdW  Elec       q    Type
REMARK                         _______ _______ _______ _____ _____    ______ ____
ROOT
ATOM      1  N   UNL     1       0.934  10.035  18.864  0.00  0.00    +0.000 N 
ATOM      2  C   UNL     1       1.153   8.992  19.731  0.00  0.00    +0.000 C 
ATOM      3  O   UNL     1       0.599   8.914  20.827  0.00  0.00    +0.000 OA
ATOM      4  H   UNL     1       1.326   9.963  17.926  0.00  0.00    +0.000 HD
ENDROOT
BRANCH   2   5
ATOM      5  C   UNL     1       2.092   7.925  19.251  0.00  0.00    +0.000 A 
ATOM      6  C   UNL     1       2.250   6.771  20.005  0.00  0.00    +0.000 A 
ATOM      7  C   UNL     1       3.113   5.787  19.528  0.00  0.00    +0.000 A 
ATOM      8  C   UNL     1       3.809   5.963  18.315  0.00  0.00    +0.000 A 
ATOM      9  C   UNL     1       3.558   7.168  17.645  0.00  0.00    +0.000 A 
ATOM     10  N   UNL     1       2.727   8.154  18.072  0.00  0.00    +0.000 NA
BRANCH   8  11
ATOM     11  C   UNL     1       4.724   4.910  17.721  0.00  0.00    +0.000 C 
ATOM     12  C   UNL     1       4.186   3.819  16.819  0.00  0.00    +0.000 C 
ATOM     13  C   UNL     1       5.028   4.911  16.238  0.00  0.00    +0.000 C 
ENDBRANCH   8  11
BRANCH   7  14
ATOM     14  O   UNL     1       3.276   4.569  20.138  0.00  0.00    +0.000 OA
BRANCH  14  15
ATOM     15  C   UNL     1       2.402   4.252  21.229  0.00  0.00    +0.000 C 
BRANCH  15  16
ATOM     16  C   UNL     1       1.412   3.160  20.826  0.00  0.00    +0.000 C 
ATOM     17  F   UNL     1       0.892   2.505  21.887  0.00  0.00    +0.000 F 
ATOM     18  F   UNL     1       0.377   3.677  20.123  0.00  0.00    +0.000 F 
ATOM     19  F   UNL     1       2.012   2.238  20.037  0.00  0.00    +0.000 F 
ENDBRANCH  15  16
ENDBRANCH  14  15
ENDBRANCH   7  14
ENDBRANCH   2   5
BRANCH   1  20
ATOM     20  C   UNL     1       0.101  11.202  19.188  0.00  0.00    +0.000 C 
BRANCH  20  23
ATOM     21  C   UNL     1      -2.392  10.023  16.531  0.00  0.00    +0.000 C 
ATOM     22  N   UNL     1      -1.197  10.307  17.280  0.00  0.00    +0.000 N 
ATOM     23  C   UNL     1      -1.246  11.057  18.437  0.00  0.00    +0.000 C 
ATOM     24  O   UNL     1      -2.301  11.537  18.854  0.00  0.00    +0.000 OA
ATOM     25  H   UNL     1      -0.289   9.993  16.940  0.00  0.00    +0.000 HD
ENDBRANCH  20  23
BRANCH  20  26
ATOM     26  C   UNL     1       0.823  12.540  18.834  0.00  0.00    +0.000 C 
ATOM     27  C   UNL     1       0.950  13.482  20.045  0.00  0.00    +0.000 C 
ATOM     28  C   UNL     1       2.233  12.281  18.283  0.00  0.00    +0.000 C 
BRANCH  26  29
ATOM     29  O   UNL     1       0.108  13.231  17.794  0.00  0.00    +0.000 OA
ATOM     30  H   UNL     1      -0.087  12.563  17.101  0.00  0.00    +0.000 HD
ENDBRANCH  26  29
ENDBRANCH  20  26
ENDBRANCH   1  20
TORSDOF 9
ENDMDL
MODEL 2
REMARK VINA RESULT:      -7.0      1.294      1.400
REMARK  Name = 
REMARK  12 active torsions:
REMARK  status: ('A' for Active; 'I' for Inactive)
REMARK    1  A    between atoms: C_1  and  N_2
REMARK    2  A    between atoms: C_3  and  C_5
REMARK    3  A    between atoms: C_5  and  N_6
REMARK    4  A    between atoms: C_5  and  C_24
REMARK    5  A    between atoms: C_7  and  C_9
REMARK    6  A    between atoms: C_11  and  O_12
REMARK    7  A    between atoms: O_12  and  C_13
REMARK    8  A    between atoms: C_13  and  C_14
REMARK    9  A    between atoms: C_18  and  C_19
REMARK   10  A    between atoms: C_24  and  C_25
REMARK   11  A    between atoms: C_24  and  C_26
REMARK   12  A    between atoms: C_24  and  O_27
REMARK                            x       y       z     vdW  Elec       q    Type
REMARK                         _______ _______ _______ _____ _____    ______ ____
ROOT
ATOM      1  N   UNL     1       0.844   9.707  18.709  0.00  0.00    +0.000 N 
ATOM      2  C   UNL     1       1.315   8.771  19.599  0.00  0.00    +0.000 C 
ATOM      3  O   UNL     1       0.958   8.738  20.776  0.00  0.00    +0.000 OA
ATOM      4  H   UNL     1       1.085   9.589  17.725  0.00  0.00    +0.000 HD
ENDROOT
BRANCH   2   5
ATOM      5  C   UNL     1       2.275   7.761  19.044  0.00  0.00    +0.000 A 
ATOM      6  C   UNL     1       2.329   6.495  19.608  0.00  0.00    +0.000 A 
ATOM      7  C   UNL     1       3.215   5.568  19.063  0.00  0.00    +0.000 A 
ATOM      8  C   UNL     1       4.037   5.911  17.970  0.00  0.00    +0.000 A 
ATOM      9  C   UNL     1       3.883   7.218  17.487  0.00  0.00    +0.000 A 
ATOM     10  N   UNL     1       3.033   8.153  17.987  0.00  0.00    +0.000 NA
BRANCH   8  11
ATOM     11  C   UNL     1       4.985   4.934  17.303  0.00  0.00    +0.000 C 
ATOM     12  C   UNL     1       4.567   4.144  16.081  0.00  0.00    +0.000 C 
ATOM     13  C   UNL     1       5.570   5.246  15.942  0.00  0.00    +0.000 C 
ENDBRANCH   8  11
BRANCH   7  14
ATOM     14  O   UNL     1       3.287   4.262  19.476  0.00  0.00    +0.000 OA
BRANCH  14  15
ATOM     15  C   UNL     1       2.053   3.577  19.727  0.00  0.00    +0.000 C 
BRANCH  15  16
ATOM     16  C   UNL     1       1.461   3.038  18.426  0.00  0.00    +0.000 C 
ATOM     17  F   UNL     1       0.384   2.249  18.626  0.00  0.00    +0.000 F 
ATOM     18  F   UNL     1       1.077   4.049  17.611  0.00  0.00    +0.000 F 
ATOM     19  F   UNL     1       2.378   2.305  17.751  0.00  0.00    +0.000 F 
ENDBRANCH  15  16
ENDBRANCH  14  15
ENDBRANCH   7  14
ENDBRANCH   2   5
BRANCH   1  20
ATOM     20  C   UNL     1      -0.047  10.812  19.085  0.00  0.00    +0.000 C 
BRANCH  20  23
ATOM     21  C   UNL     1      -3.694  11.402  18.076  0.00  0.00    +0.000 C 
ATOM     22  N   UNL     1      -2.435  11.382  18.772  0.00  0.00    +0.000 N 
ATOM     23  C   UNL     1      -1.365  10.664  18.282  0.00  0.00    +0.000 C 
ATOM     24  O   UNL     1      -1.451   9.991  17.254  0.00  0.00    +0.000 OA
ATOM     25  H   UNL     1      -2.332  11.865  19.664  0.00  0.00    +0.000 HD
ENDBRANCH  20  23
BRANCH  20  26
ATOM     26  C   UNL     1       0.625  12.201  18.847  0.00  0.00    +0.000 C 
ATOM     27  C   UNL     1       0.644  13.073  20.115  0.00  0.00    +0.000 C 
ATOM     28  C   UNL     1       2.073  12.039  18.359  0.00  0.00    +0.000 C 
BRANCH  26  29
ATOM     29  O   UNL     1      -0.069  12.918  17.812  0.00  0.00    +0.000 OA
ATOM     30  H   UNL     1      -0.667  12.272  17.380  0.00  0.00    +0.000 HD
ENDBRANCH  26  29
ENDBRANCH  20  26
ENDBRANCH   1  20
TORSDOF 9
ENDMDL
MODEL 3
REMARK VINA RESULT:      -6.9      0.928      1.207
REMARK  Name = 
REMARK  12 active torsions:
REMARK  status: ('A' for Active; 'I' for Inactive)
REMARK    1  A    between atoms: C_1  and  N_2
REMARK    2  A    between atoms: C_3  and  C_5
REMARK    3  A    between atoms: C_5  and  N_6
REMARK    4  A    between atoms: C_5  and  C_24
REMARK    5  A    between atoms: C_7  and  C_9
REMARK    6  A    between atoms: C_11  and  O_12
REMARK    7  A    between atoms: O_12  and  C_13
REMARK    8  A    between atoms: C_13  and  C_14
REMARK    9  A    between atoms: C_18  and  C_19
REMARK   10  A    between atoms: C_24  and  C_25
REMARK   11  A    between atoms: C_24  and  C_26
REMARK   12  A    between atoms: C_24  and  O_27
REMARK                            x       y       z     vdW  Elec       q    Type
REMARK                         _______ _______ _______ _____ _____    ______ ____
ROOT
ATOM      1  N   UNL     1       0.431   9.884  18.742  0.00  0.00    +0.000 N 
ATOM      2  C   UNL     1       1.060   9.149  19.717  0.00  0.00    +0.000 C 
ATOM      3  O   UNL     1       0.835   9.310  20.916  0.00  0.00    +0.000 OA
ATOM      4  H   UNL     1       0.572   9.604  17.772  0.00  0.00    +0.000 HD
ENDROOT
BRANCH   2   5
ATOM      5  C   UNL     1       2.022   8.104  19.236  0.00  0.00    +0.000 A 
ATOM      6  C   UNL     1       2.227   6.965  20.001  0.00  0.00    +0.000 A 
ATOM      7  C   UNL     1       3.111   6.000  19.523  0.00  0.00    +0.000 A 
ATOM      8  C   UNL     1       3.782   6.181  18.297  0.00  0.00    +0.000 A 
ATOM      9  C   UNL     1       3.484   7.369  17.616  0.00  0.00    +0.000 A 
ATOM     10  N   UNL     1       2.631   8.336  18.043  0.00  0.00    +0.000 NA
BRANCH   8  11
ATOM     11  C   UNL     1       4.719   5.148  17.701  0.00  0.00    +0.000 C 
ATOM     12  C   UNL     1       4.202   4.045  16.800  0.00  0.00    +0.000 C 
ATOM     13  C   UNL     1       5.019   5.155  16.217  0.00  0.00    +0.000 C 
ENDBRANCH   8  11
BRANCH   7  14
ATOM     14  O   UNL     1       3.320   4.796  20.146  0.00  0.00    +0.000 OA
BRANCH  14  15
ATOM     15  C   UNL     1       2.372   4.392  21.142  0.00  0.00    +0.000 C 
BRANCH  15  16
ATOM     16  C   UNL     1       1.331   3.446  20.543  0.00  0.00    +0.000 C 
ATOM     17  F   UNL     1       1.757   2.847  19.410  0.00  0.00    +0.000 F 
ATOM     18  F   UNL     1       1.002   2.468  21.419  0.00  0.00    +0.000 F 
ATOM     19  F   UNL     1       0.193   4.115  20.243  0.00  0.00    +0.000 F 
ENDBRANCH  15  16
ENDBRANCH  14  15
ENDBRANCH   7  14
ENDBRANCH   2   5
BRANCH   1  20
ATOM     20  C   UNL     1      -0.489  10.993  19.024  0.00  0.00    +0.000 C 
BRANCH  20  23
ATOM     21  C   UNL     1      -4.111  11.438  17.864  0.00  0.00    +0.000 C 
ATOM     22  N   UNL     1      -2.882  11.471  18.610  0.00  0.00    +0.000 N 
ATOM     23  C   UNL     1      -1.767  10.789  18.171  0.00  0.00    +0.000 C 
ATOM     24  O   UNL     1      -1.788  10.104  17.148  0.00  0.00    +0.000 OA
ATOM     25  H   UNL     1      -2.833  11.966  19.500  0.00  0.00    +0.000 HD
ENDBRANCH  20  23
BRANCH  20  26
ATOM     26  C   UNL     1       0.176  12.378  18.751  0.00  0.00    +0.000 C 
ATOM     27  C   UNL     1       0.072  13.332  19.954  0.00  0.00    +0.000 C 
ATOM     28  C   UNL     1       1.663  12.219  18.398  0.00  0.00    +0.000 C 
BRANCH  26  29
ATOM     29  O   UNL     1      -0.439  13.011  17.615  0.00  0.00    +0.000 OA
ATOM     30  H   UNL     1      -0.945  13.775  17.963  0.00  0.00    +0.000 HD
ENDBRANCH  26  29
ENDBRANCH  20  26
ENDBRANCH   1  20
TORSDOF 9
ENDMDL
MODEL 4
REMARK VINA RESULT:      -6.9      1.011      1.102
REMARK  Name = 
REMARK  12 active torsions:
REMARK  status: ('A' for Active; 'I' for Inactive)
REMARK    1  A    between atoms: C_1  and  N_2
REMARK    2  A    between atoms: C_3  and  C_5
REMARK    3  A    between atoms: C_5  and  N_6
REMARK    4  A    between atoms: C_5  and  C_24
REMARK    5  A    between atoms: C_7  and  C_9
REMARK    6  A    between atoms: C_11  and  O_12
REMARK    7  A    between atoms: O_12  and  C_13
REMARK    8  A    between atoms: C_13  and  C_14
REMARK    9  A    between atoms: C_18  and  C_19
REMARK   10  A    between atoms: C_24  and  C_25
REMARK   11  A    between atoms: C_24  and  C_26
REMARK   12  A    between atoms: C_24  and  O_27
REMARK                            x       y       z     vdW  Elec       q    Type
REMARK                         _______ _______ _______ _____ _____    ______ ____
ROOT
ATOM      1  N   UNL     1       1.198   9.479  18.699  0.00  0.00    +0.000 N 
ATOM      2  C   UNL     1       1.674   8.496  19.533  0.00  0.00    +0.000 C 
ATOM      3  O   UNL     1       1.463   8.496  20.745  0.00  0.00    +0.000 OA
ATOM      4  H   UNL     1       1.302   9.341  17.694  0.00  0.00    +0.000 HD
ENDROOT
BRANCH   2   5
ATOM      5  C   UNL     1       2.446   7.392  18.874  0.00  0.00    +0.000 A 
ATOM      6  C   UNL     1       2.196   6.077  19.237  0.00  0.00    +0.000 A 
ATOM      7  C   UNL     1       2.912   5.068  18.597  0.00  0.00    +0.000 A 
ATOM      8  C   UNL     1       3.870   5.379  17.610  0.00  0.00    +0.000 A 
ATOM      9  C   UNL     1       4.025   6.743  17.328  0.00  0.00    +0.000 A 
ATOM     10  N   UNL     1       3.349   7.758  17.926  0.00  0.00    +0.000 NA
BRANCH   8  11
ATOM     11  C   UNL     1       4.647   4.326  16.845  0.00  0.00    +0.000 C 
ATOM     12  C   UNL     1       5.229   4.617  15.477  0.00  0.00    +0.000 C 
ATOM     13  C   UNL     1       6.142   4.469  16.654  0.00  0.00    +0.000 C 
ENDBRANCH   8  11
BRANCH   7  14
ATOM     14  O   UNL     1       2.683   3.733  18.806  0.00  0.00    +0.000 OA
BRANCH  14  15
ATOM     15  C   UNL     1       3.188   3.155  20.017  0.00  0.00    +0.000 C 
BRANCH  15  16
ATOM     16  C   UNL     1       2.138   3.222  21.126  0.00  0.00    +0.000 C 
ATOM     17  F   UNL     1       2.305   4.284  21.943  0.00  0.00    +0.000 F 
ATOM     18  F   UNL     1       0.890   3.301  20.608  0.00  0.00    +0.000 F 
ATOM     19  F   UNL     1       2.184   2.109  21.896  0.00  0.00    +0.000 F 
ENDBRANCH  15  16
ENDBRANCH  14  15
ENDBRANCH   7  14
ENDBRANCH   2   5
BRANCH   1  20
ATOM     20  C   UNL     1       0.481  10.671  19.171  0.00  0.00    +0.000 C 
BRANCH  20  23
ATOM     21  C   UNL     1      -2.307   9.905  16.660  0.00  0.00    +0.000 C 
ATOM     22  N   UNL     1      -1.034  10.061  17.311  0.00  0.00    +0.000 N 
ATOM     23  C   UNL     1      -0.939  10.657  18.551  0.00  0.00    +0.000 C 
ATOM     24  O   UNL     1      -1.929  11.105  19.132  0.00  0.00    +0.000 OA
ATOM     25  H   UNL     1      -0.177   9.771  16.842  0.00  0.00    +0.000 HD
ENDBRANCH  20  23
BRANCH  20  26
ATOM     26  C   UNL     1       1.252  11.983  18.826  0.00  0.00    +0.000 C 
ATOM     27  C   UNL     1       1.710  12.747  20.080  0.00  0.00    +0.000 C 
ATOM     28  C   UNL     1       2.494  11.686  17.970  0.00  0.00    +0.000 C 
BRANCH  26  29
ATOM     29  O   UNL     1       0.423  12.855  18.039  0.00  0.00    +0.000 OA
ATOM     30  H   UNL     1       0.994  13.603  17.759  0.00  0.00    +0.000 HD
ENDBRANCH  26  29
ENDBRANCH  20  26
ENDBRANCH   1  20
TORSDOF 9
ENDMDL
MODEL 5
REMARK VINA RESULT:      -6.8      2.107      2.958
REMARK  Name = 
REMARK  12 active torsions:
REMARK  status: ('A' for Active; 'I' for Inactive)
REMARK    1  A    between atoms: C_1  and  N_2
REMARK    2  A    between atoms: C_3  and  C_5
REMARK    3  A    between atoms: C_5  and  N_6
REMARK    4  A    between atoms: C_5  and  C_24
REMARK    5  A    between atoms: C_7  and  C_9
REMARK    6  A    between atoms: C_11  and  O_12
REMARK    7  A    between atoms: O_12  and  C_13
REMARK    8  A    between atoms: C_13  and  C_14
REMARK    9  A    between atoms: C_18  and  C_19
REMARK   10  A    between atoms: C_24  and  C_25
REMARK   11  A    between atoms: C_24  and  C_26
REMARK   12  A    between atoms: C_24  and  O_27
REMARK                            x       y       z     vdW  Elec       q    Type
REMARK                         _______ _______ _______ _____ _____    ______ ____
ROOT
ATOM      1  N   UNL     1       1.371   9.156  20.027  0.00  0.00    +0.000 N 
ATOM      2  C   UNL     1       1.549   8.815  18.709  0.00  0.00    +0.000 C 
ATOM      3  O   UNL     1       0.961   9.386  17.791  0.00  0.00    +0.000 OA
ATOM      4  H   UNL     1       1.989   8.728  20.716  0.00  0.00    +0.000 HD
ENDROOT
BRANCH   2   5
ATOM      5  C   UNL     1       2.535   7.717  18.441  0.00  0.00    +0.000 A 
ATOM      6  C   UNL     1       2.473   6.551  19.190  0.00  0.00    +0.000 A 
ATOM      7  C   UNL     1       3.387   5.538  18.909  0.00  0.00    +0.000 A 
ATOM      8  C   UNL     1       4.353   5.698  17.895  0.00  0.00    +0.000 A 
ATOM      9  C   UNL     1       4.307   6.918  17.206  0.00  0.00    +0.000 A 
ATOM     10  N   UNL     1       3.435   7.932  17.446  0.00  0.00    +0.000 NA
BRANCH   8  11
ATOM     11  C   UNL     1       5.343   4.616  17.511  0.00  0.00    +0.000 C 
ATOM     12  C   UNL     1       5.238   3.889  16.186  0.00  0.00    +0.000 C 
ATOM     13  C   UNL     1       6.353   4.861  16.411  0.00  0.00    +0.000 C 
ENDBRANCH   8  11
BRANCH   7  14
ATOM     14  O   UNL     1       3.360   4.310  19.519  0.00  0.00    +0.000 OA
BRANCH  14  15
ATOM     15  C   UNL     1       2.089   3.659  19.643  0.00  0.00    +0.000 C 
BRANCH  15  16
ATOM     16  C   UNL     1       1.923   2.588  18.565  0.00  0.00    +0.000 C 
ATOM     17  F   UNL     1       0.719   1.979  18.611  0.00  0.00    +0.000 F 
ATOM     18  F   UNL     1       2.062   3.119  17.327  0.00  0.00    +0.000 F 
ATOM     19  F   UNL     1       2.867   1.627  18.697  0.00  0.00    +0.000 F 
ENDBRANCH  15  16
ENDBRANCH  14  15
ENDBRANCH   7  14
ENDBRANCH   2   5
BRANCH   1  20
ATOM     20  C   UNL     1       0.400  10.159  20.485  0.00  0.00    +0.000 C 
BRANCH  20  23
ATOM     21  C   UNL     1       1.096  13.521  18.791  0.00  0.00    +0.000 C 
ATOM     22  N   UNL     1       0.664  12.181  19.083  0.00  0.00    +0.000 N 
ATOM     23  C   UNL     1       1.015  11.564  20.265  0.00  0.00    +0.000 C 
ATOM     24  O   UNL     1       1.734  12.119  21.097  0.00  0.00    +0.000 OA
ATOM     25  H   UNL     1       0.126  11.652  18.397  0.00  0.00    +0.000 HD
ENDBRANCH  20  23
BRANCH  20  26
ATOM     26  C   UNL     1      -0.006   9.930  21.975  0.00  0.00    +0.000 C 
ATOM     27  C   UNL     1      -0.978  11.003  22.495  0.00  0.00    +0.000 C 
ATOM     28  C   UNL     1      -0.668   8.556  22.164  0.00  0.00    +0.000 C 
BRANCH  26  29
ATOM     29  O   UNL     1       1.162   9.929  22.814  0.00  0.00    +0.000 OA
ATOM     30  H   UNL     1       1.276  10.851  23.131  0.00  0.00    +0.000 HD
ENDBRANCH  26  29
ENDBRANCH  20  26
ENDBRANCH   1  20
TORSDOF 9
ENDMDL
MODEL 6
REMARK VINA RESULT:      -6.8      0.755      1.165
REMARK  Name = 
REMARK  12 active torsions:
REMARK  status: ('A' for Active; 'I' for Inactive)
REMARK    1  A    between atoms: C_1  and  N_2
REMARK    2  A    between atoms: C_3  and  C_5
REMARK    3  A    between atoms: C_5  and  N_6
REMARK    4  A    between atoms: C_5  and  C_24
REMARK    5  A    between atoms: C_7  and  C_9
REMARK    6  A    between atoms: C_11  and  O_12
REMARK    7  A    between atoms: O_12  and  C_13
REMARK    8  A    between atoms: C_13  and  C_14
REMARK    9  A    between atoms: C_18  and  C_19
REMARK   10  A    between atoms: C_24  and  C_25
REMARK   11  A    between atoms: C_24  and  C_26
REMARK   12  A    between atoms: C_24  and  O_27
REMARK                            x       y       z     vdW  Elec       q    Type
REMARK                         _______ _______ _______ _____ _____    ______ ____
ROOT
ATOM      1  N   UNL     1       0.209  10.072  18.705  0.00  0.00    +0.000 N 
ATOM      2  C   UNL     1       0.830   9.338  19.686  0.00  0.00    +0.000 C 
ATOM      3  O   UNL     1       0.581   9.486  20.882  0.00  0.00    +0.000 OA
ATOM      4  H   UNL     1       0.372   9.802  17.735  0.00  0.00    +0.000 HD
ENDROOT
BRANCH   2   5
ATOM      5  C   UNL     1       1.817   8.312  19.214  0.00  0.00    +0.000 A 
ATOM      6  C   UNL     1       2.023   7.168  19.972  0.00  0.00    +0.000 A 
ATOM      7  C   UNL     1       2.930   6.221  19.502  0.00  0.00    +0.000 A 
ATOM      8  C   UNL     1       3.623   6.423  18.292  0.00  0.00    +0.000 A 
ATOM      9  C   UNL     1       3.322   7.614  17.616  0.00  0.00    +0.000 A 
ATOM     10  N   UNL     1       2.446   8.564  18.036  0.00  0.00    +0.000 NA
BRANCH   8  11
ATOM     11  C   UNL     1       4.586   5.410  17.705  0.00  0.00    +0.000 C 
ATOM     12  C   UNL     1       5.865   5.845  17.020  0.00  0.00    +0.000 C 
ATOM     13  C   UNL     1       5.932   5.171  18.355  0.00  0.00    +0.000 C 
ENDBRANCH   8  11
BRANCH   7  14
ATOM     14  O   UNL     1       3.143   5.014  20.117  0.00  0.00    +0.000 OA
BRANCH  14  15
ATOM     15  C   UNL     1       2.232   4.627  21.154  0.00  0.00    +0.000 C 
BRANCH  15  16
ATOM     16  C   UNL     1       1.487   3.349  20.768  0.00  0.00    +0.000 C 
ATOM     17  F   UNL     1       2.243   2.501  20.039  0.00  0.00    +0.000 F 
ATOM     18  F   UNL     1       1.071   2.679  21.868  0.00  0.00    +0.000 F 
ATOM     19  F   UNL     1       0.386   3.640  20.035  0.00  0.00    +0.000 F 
ENDBRANCH  15  16
ENDBRANCH  14  15
ENDBRANCH   7  14
ENDBRANCH   2   5
BRANCH   1  20
ATOM     20  C   UNL     1      -0.733  11.165  18.979  0.00  0.00    +0.000 C 
BRANCH  20  23
ATOM     21  C   UNL     1      -2.785  10.042  15.947  0.00  0.00    +0.000 C 
ATOM     22  N   UNL     1      -1.715  10.352  16.858  0.00  0.00    +0.000 N 
ATOM     23  C   UNL     1      -1.966  10.982  18.059  0.00  0.00    +0.000 C 
ATOM     24  O   UNL     1      -3.102  11.332  18.382  0.00  0.00    +0.000 OA
ATOM     25  H   UNL     1      -0.749  10.147  16.607  0.00  0.00    +0.000 HD
ENDBRANCH  20  23
BRANCH  20  26
ATOM     26  C   UNL     1      -0.066  12.563  18.785  0.00  0.00    +0.000 C 
ATOM     27  C   UNL     1      -0.209  13.464  20.025  0.00  0.00    +0.000 C 
ATOM     28  C   UNL     1       1.431  12.424  18.468  0.00  0.00    +0.000 C 
BRANCH  26  29
ATOM     29  O   UNL     1      -0.651  13.242  17.660  0.00  0.00    +0.000 OA
ATOM     30  H   UNL     1      -1.620  13.097  17.722  0.00  0.00    +0.000 HD
ENDBRANCH  26  29
ENDBRANCH  20  26
ENDBRANCH   1  20
TORSDOF 9
ENDMDL
MODEL 7
REMARK VINA RESULT:      -6.7      2.639      3.437
REMARK  Name = 
REMARK  12 active torsions:
REMARK  status: ('A' for Active; 'I' for Inactive)
REMARK    1  A    between atoms: C_1  and  N_2
REMARK    2  A    between atoms: C_3  and  C_5
REMARK    3  A    between atoms: C_5  and  N_6
REMARK    4  A    between atoms: C_5  and  C_24
REMARK    5  A    between atoms: C_7  and  C_9
REMARK    6  A    between atoms: C_11  and  O_12
REMARK    7  A    between atoms: O_12  and  C_13
REMARK    8  A    between atoms: C_13  and  C_14
REMARK    9  A    between atoms: C_18  and  C_19
REMARK   10  A    between atoms: C_24  and  C_25
REMARK   11  A    between atoms: C_24  and  C_26
REMARK   12  A    between atoms: C_24  and  O_27
REMARK                            x       y       z     vdW  Elec       q    Type
REMARK                         _______ _______ _______ _____ _____    ______ ____
ROOT
ATOM      1  N   UNL     1       0.898   9.503  19.126  0.00  0.00    +0.000 N 
ATOM      2  C   UNL     1       1.336   8.675  20.131  0.00  0.00    +0.000 C 
ATOM      3  O   UNL     1       1.193   8.947  21.322  0.00  0.00    +0.000 OA
ATOM      4  H   UNL     1       0.934   9.150  18.170  0.00  0.00    +0.000 HD
ENDROOT
BRANCH   2   5
ATOM      5  C   UNL     1       1.976   7.391  19.692  0.00  0.00    +0.000 A 
ATOM      6  C   UNL     1       2.747   7.376  18.539  0.00  0.00    +0.000 A 
ATOM      7  C   UNL     1       3.347   6.176  18.163  0.00  0.00    +0.000 A 
ATOM      8  C   UNL     1       3.170   5.009  18.934  0.00  0.00    +0.000 A 
ATOM      9  C   UNL     1       2.376   5.156  20.079  0.00  0.00    +0.000 A 
ATOM     10  N   UNL     1       1.772   6.305  20.483  0.00  0.00    +0.000 NA
BRANCH   8  11
ATOM     11  C   UNL     1       3.834   3.687  18.604  0.00  0.00    +0.000 C 
ATOM     12  C   UNL     1       4.535   2.871  19.671  0.00  0.00    +0.000 C 
ATOM     13  C   UNL     1       3.238   2.387  19.102  0.00  0.00    +0.000 C 
ENDBRANCH   8  11
BRANCH   7  14
ATOM     14  O   UNL     1       4.204   6.065  17.098  0.00  0.00    +0.000 OA
BRANCH  14  15
ATOM     15  C   UNL     1       5.401   6.852  17.125  0.00  0.00    +0.000 C 
BRANCH  15  16
ATOM     16  C   UNL     1       6.573   6.034  17.666  0.00  0.00    +0.000 C 
ATOM     17  F   UNL     1       6.636   4.793  17.135  0.00  0.00    +0.000 F 
ATOM     18  F   UNL     1       7.753   6.646  17.408  0.00  0.00    +0.000 F 
ATOM     19  F   UNL     1       6.479   5.894  19.009  0.00  0.00    +0.000 F 
ENDBRANCH  15  16
ENDBRANCH  14  15
ENDBRANCH   7  14
ENDBRANCH   2   5
BRANCH   1  20
ATOM     20  C   UNL     1       0.309  10.828  19.361  0.00  0.00    +0.000 C 
BRANCH  20  23
ATOM     21  C   UNL     1      -2.375  10.119  16.724  0.00  0.00    +0.000 C 
ATOM     22  N   UNL     1      -1.134  10.225  17.443  0.00  0.00    +0.000 N 
ATOM     23  C   UNL     1      -1.070  10.876  18.657  0.00  0.00    +0.000 C 
ATOM     24  O   UNL     1      -2.059  11.417  19.155  0.00  0.00    +0.000 OA
ATOM     25  H   UNL     1      -0.273   9.855  17.042  0.00  0.00    +0.000 HD
ENDBRANCH  20  23
BRANCH  20  26
ATOM     26  C   UNL     1       1.251  11.973  18.871  0.00  0.00    +0.000 C 
ATOM     27  C   UNL     1       1.866  12.771  20.034  0.00  0.00    +0.000 C 
ATOM     28  C   UNL     1       2.400  11.416  18.016  0.00  0.00    +0.000 C 
BRANCH  26  29
ATOM     29  O   UNL     1       0.528  12.884  18.025  0.00  0.00    +0.000 OA
ATOM     30  H   UNL     1      -0.319  12.442  17.802  0.00  0.00    +0.000 HD
ENDBRANCH  26  29
ENDBRANCH  20  26
ENDBRANCH   1  20
TORSDOF 9
ENDMDL
MODEL 8
REMARK VINA RESULT:      -6.7      1.245      1.507
REMARK  Name = 
REMARK  12 active torsions:
REMARK  status: ('A' for Active; 'I' for Inactive)
REMARK    1  A    between atoms: C_1  and  N_2
REMARK    2  A    between atoms: C_3  and  C_5
REMARK    3  A    between atoms: C_5  and  N_6
REMARK    4  A    between atoms: C_5  and  C_24
REMARK    5  A    between atoms: C_7  and  C_9
REMARK    6  A    between atoms: C_11  and  O_12
REMARK    7  A    between atoms: O_12  and  C_13
REMARK    8  A    between atoms: C_13  and  C_14
REMARK    9  A    between atoms: C_18  and  C_19
REMARK   10  A    between atoms: C_24  and  C_25
REMARK   11  A    between atoms: C_24  and  C_26
REMARK   12  A    between atoms: C_24  and  O_27
REMARK                            x       y       z     vdW  Elec       q    Type
REMARK                         _______ _______ _______ _____ _____    ______ ____
ROOT
ATOM      1  N   UNL     1       0.900   9.586  19.184  0.00  0.00    +0.000 N 
ATOM      2  C   UNL     1       1.345   8.563  19.986  0.00  0.00    +0.000 C 
ATOM      3  O   UNL     1       0.996   8.441  21.159  0.00  0.00    +0.000 OA
ATOM      4  H   UNL     1       1.130   9.545  18.192  0.00  0.00    +0.000 HD
ENDROOT
BRANCH   2   5
ATOM      5  C   UNL     1       2.267   7.573  19.337  0.00  0.00    +0.000 A 
ATOM      6  C   UNL     1       2.346   6.285  19.845  0.00  0.00    +0.000 A 
ATOM      7  C   UNL     1       3.195   5.378  19.213  0.00  0.00    +0.000 A 
ATOM      8  C   UNL     1       3.956   5.764  18.092  0.00  0.00    +0.000 A 
ATOM      9  C   UNL     1       3.783   7.090  17.672  0.00  0.00    +0.000 A 
ATOM     10  N   UNL     1       2.968   8.007  18.256  0.00  0.00    +0.000 NA
BRANCH   8  11
ATOM     11  C   UNL     1       4.861   4.813  17.333  0.00  0.00    +0.000 C 
ATOM     12  C   UNL     1       4.326   3.945  16.212  0.00  0.00    +0.000 C 
ATOM     13  C   UNL     1       5.229   5.095  15.892  0.00  0.00    +0.000 C 
ENDBRANCH   8  11
BRANCH   7  14
ATOM     14  O   UNL     1       3.283   4.057  19.568  0.00  0.00    +0.000 OA
BRANCH  14  15
ATOM     15  C   UNL     1       2.060   3.360  19.839  0.00  0.00    +0.000 C 
BRANCH  15  16
ATOM     16  C   UNL     1       1.433   2.847  18.543  0.00  0.00    +0.000 C 
ATOM     17  F   UNL     1       0.272   2.188  18.746  0.00  0.00    +0.000 F 
ATOM     18  F   UNL     1       1.176   3.867  17.691  0.00  0.00    +0.000 F 
ATOM     19  F   UNL     1       2.275   1.997  17.909  0.00  0.00    +0.000 F 
ENDBRANCH  15  16
ENDBRANCH  14  15
ENDBRANCH   7  14
ENDBRANCH   2   5
BRANCH   1  20
ATOM     20  C   UNL     1       0.048  10.683  19.662  0.00  0.00    +0.000 C 
BRANCH  20  23
ATOM     21  C   UNL     1      -2.129  10.158  16.556  0.00  0.00    +0.000 C 
ATOM     22  N   UNL     1      -1.031  10.222  17.483  0.00  0.00    +0.000 N 
ATOM     23  C   UNL     1      -1.194  10.768  18.738  0.00  0.00    +0.000 C 
ATOM     24  O   UNL     1      -2.268  11.248  19.102  0.00  0.00    +0.000 OA
ATOM     25  H   UNL     1      -0.103   9.903  17.205  0.00  0.00    +0.000 HD
ENDBRANCH  20  23
BRANCH  20  26
ATOM     26  C   UNL     1       0.826  12.036  19.714  0.00  0.00    +0.000 C 
ATOM     27  C   UNL     1       1.886  12.152  18.605  0.00  0.00    +0.000 C 
ATOM     28  C   UNL     1      -0.132  13.230  19.584  0.00  0.00    +0.000 C 
BRANCH  26  29
ATOM     29  O   UNL     1       1.480  12.184  20.987  0.00  0.00    +0.000 OA
ATOM     30  H   UNL     1       1.296  13.100  21.288  0.00  0.00    +0.000 HD
ENDBRANCH  26  29
ENDBRANCH  20  26
ENDBRANCH   1  20
TORSDOF 9
ENDMDL
MODEL 9
REMARK VINA RESULT:      -6.7      2.345      4.013
REMARK  Name = 
REMARK  12 active torsions:
REMARK  status: ('A' for Active; 'I' for Inactive)
REMARK    1  A    between atoms: C_1  and  N_2
REMARK    2  A    between atoms: C_3  and  C_5
REMARK    3  A    between atoms: C_5  and  N_6
REMARK    4  A    between atoms: C_5  and  C_24
REMARK    5  A    between atoms: C_7  and  C_9
REMARK    6  A    between atoms: C_11  and  O_12
REMARK    7  A    between atoms: O_12  and  C_13
REMARK    8  A    between atoms: C_13  and  C_14
REMARK    9  A    between atoms: C_18  and  C_19
REMARK   10  A    between atoms: C_24  and  C_25
REMARK   11  A    between atoms: C_24  and  C_26
REMARK   12  A    between atoms: C_24  and  O_27
REMARK                            x       y       z     vdW  Elec       q    Type
REMARK                         _______ _______ _______ _____ _____    ______ ____
ROOT
ATOM      1  N   UNL     1       0.928  10.015  19.137  0.00  0.00    +0.000 N 
ATOM      2  C   UNL     1       1.852   9.271  18.445  0.00  0.00    +0.000 C 
ATOM      3  O   UNL     1       2.518   9.736  17.521  0.00  0.00    +0.000 OA
ATOM      4  H   UNL     1       0.512   9.599  19.970  0.00  0.00    +0.000 HD
ENDROOT
BRANCH   2   5
ATOM      5  C   UNL     1       2.030   7.853  18.902  0.00  0.00    +0.000 A 
ATOM      6  C   UNL     1       2.514   6.908  18.009  0.00  0.00    +0.000 A 
ATOM      7  C   UNL     1       2.689   5.602  18.462  0.00  0.00    +0.000 A 
ATOM      8  C   UNL     1       2.378   5.252  19.792  0.00  0.00    +0.000 A 
ATOM      9  C   UNL     1       1.905   6.298  20.596  0.00  0.00    +0.000 A 
ATOM     10  N   UNL     1       1.718   7.584  20.196  0.00  0.00    +0.000 NA
BRANCH   8  11
ATOM     11  C   UNL     1       2.591   3.862  20.357  0.00  0.00    +0.000 C 
ATOM     12  C   UNL     1       2.035   3.471  21.711  0.00  0.00    +0.000 C 
ATOM     13  C   UNL     1       1.429   2.897  20.469  0.00  0.00    +0.000 C 
ENDBRANCH   8  11
BRANCH   7  14
ATOM     14  O   UNL     1       3.246   4.609  17.699  0.00  0.00    +0.000 OA
BRANCH  14  15
ATOM     15  C   UNL     1       4.502   4.885  17.066  0.00  0.00    +0.000 C 
BRANCH  15  16
ATOM     16  C   UNL     1       5.659   4.643  18.035  0.00  0.00    +0.000 C 
ATOM     17  F   UNL     1       5.413   3.641  18.907  0.00  0.00    +0.000 F 
ATOM     18  F   UNL     1       6.795   4.330  17.368  0.00  0.00    +0.000 F 
ATOM     19  F   UNL     1       5.915   5.756  18.762  0.00  0.00    +0.000 F 
ENDBRANCH  15  16
ENDBRANCH  14  15
ENDBRANCH   7  14
ENDBRANCH   2   5
BRANCH   1  20
ATOM     20  C   UNL     1       0.570  11.397  18.791  0.00  0.00    +0.000 C 
BRANCH  20  23
ATOM     21  C   UNL     1       1.291  14.631  20.709  0.00  0.00    +0.000 C 
ATOM     22  N   UNL     1       1.002  13.664  19.685  0.00  0.00    +0.000 N 
ATOM     23  C   UNL     1       0.990  12.314  19.967  0.00  0.00    +0.000 C 
ATOM     24  O   UNL     1       1.256  11.884  21.091  0.00  0.00    +0.000 OA
ATOM     25  H   UNL     1       0.845  13.963  18.723  0.00  0.00    +0.000 HD
ENDBRANCH  20  23
BRANCH  20  26
ATOM     26  C   UNL     1      -0.950  11.533  18.463  0.00  0.00    +0.000 C 
ATOM     27  C   UNL     1      -1.508  10.305  17.722  0.00  0.00    +0.000 C 
ATOM     28  C   UNL     1      -1.777  11.734  19.742  0.00  0.00    +0.000 C 
BRANCH  26  29
ATOM     29  O   UNL     1      -1.181  12.698  17.650  0.00  0.00    +0.000 OA
ATOM     30  H   UNL     1      -0.421  13.299  17.805  0.00  0.00    +0.000 HD
ENDBRANCH  26  29
ENDBRANCH  20  26
ENDBRANCH   1  20
TORSDOF 9
ENDMDL
