MODEL 1
REMARK VINA RESULT:      -8.5      0.000      0.000
REMARK  Name = 
REMARK  5 active torsions:
REMARK  status: ('A' for Active; 'I' for Inactive)
REMARK    1  A    between atoms: C_6  and  C_7
REMARK    2  A    between atoms: C_7  and  N_8
REMARK    3  A    between atoms: N_11  and  C_12
REMARK    4  A    between atoms: C_21  and  N_22
REMARK    5  A    between atoms: N_22  and  C_23
REMARK                            x       y       z     vdW  Elec       q    Type
REMARK                         _______ _______ _______ _____ _____    ______ ____
ROOT
ATOM      1  C   UNL     1       5.657   4.288  16.672  0.00  0.00    +0.000 A 
ATOM      2  N   UNL     1       5.214   3.705  15.531  0.00  0.00    +0.000 NA
ATOM      3  C   UNL     1       5.926   3.872  14.417  0.00  0.00    +0.000 A 
ATOM      4  C   UNL     1       5.381   3.415  13.223  0.00  0.00    +0.000 A 
ATOM      5  C   UNL     1       5.970   3.725  12.002  0.00  0.00    +0.000 A 
ATOM      6  C   UNL     1       7.130   4.486  11.986  0.00  0.00    +0.000 A 
ATOM      7  C   UNL     1       7.720   4.882  13.193  0.00  0.00    +0.000 A 
ATOM      8  C   UNL     1       7.143   4.579  14.425  0.00  0.00    +0.000 A 
ATOM      9  N   UNL     1       7.700   4.997  15.583  0.00  0.00    +0.000 NA
ATOM     10  C   UNL     1       6.956   4.870  16.713  0.00  0.00    +0.000 A 
ENDROOT
BRANCH   1  14
ATOM     11  N   UNL     1       2.540   4.728  19.532  0.00  0.00    +0.000 NA
ATOM     12  C   UNL     1       2.223   4.898  18.126  0.00  0.00    +0.000 C 
ATOM     13  C   UNL     1       3.379   4.799  17.124  0.00  0.00    +0.000 C 
ATOM     14  N   UNL     1       4.702   4.488  17.700  0.00  0.00    +0.000 N 
ATOM     15  C   UNL     1       4.763   3.584  18.855  0.00  0.00    +0.000 C 
ATOM     16  C   UNL     1       3.497   3.650  19.753  0.00  0.00    +0.000 C 
BRANCH  11  17
ATOM     17  C   UNL     1       2.611   5.930  20.346  0.00  0.00    +0.000 C 
BRANCH  17  23
ATOM     18 CL   UNL     1      -0.268  10.273  20.584  0.00  0.00    +0.000 Cl
ATOM     19  C   UNL     1       0.888   9.282  19.781  0.00  0.00    +0.000 A 
ATOM     20  C   UNL     1       1.304   9.614  18.495  0.00  0.00    +0.000 A 
ATOM     21  C   UNL     1       2.216   8.792  17.834  0.00  0.00    +0.000 A 
ATOM     22  C   UNL     1       2.699   7.635  18.464  0.00  0.00    +0.000 A 
ATOM     23  C   UNL     1       2.270   7.275  19.759  0.00  0.00    +0.000 A 
ATOM     24  C   UNL     1       1.365   8.129  20.411  0.00  0.00    +0.000 A 
ENDBRANCH  17  23
ENDBRANCH  11  17
ENDBRANCH   1  14
BRANCH  10  25
ATOM     25  N   UNL     1       7.444   5.392  17.942  0.00  0.00    +0.000 N 
ATOM     26  H   UNL     1       7.236   4.688  18.649  0.00  0.00    +0.000 HD
BRANCH  25  27
ATOM     27  C   UNL     1       7.181   6.782  18.308  0.00  0.00    +0.000 C 
ATOM     28  C   UNL     1       8.348   7.712  18.505  0.00  0.00    +0.000 C 
ATOM     29  C   UNL     1       7.427   7.905  17.337  0.00  0.00    +0.000 C 
ENDBRANCH  25  27
ENDBRANCH  10  25
TORSDOF 5
ENDMDL
MODEL 2
REMARK VINA RESULT:      -8.5      4.348      9.212
REMARK  Name = 
REMARK  5 active torsions:
REMARK  status: ('A' for Active; 'I' for Inactive)
REMARK    1  A    between atoms: C_6  and  C_7
REMARK    2  A    between atoms: C_7  and  N_8
REMARK    3  A    between atoms: N_11  and  C_12
REMARK    4  A    between atoms: C_21  and  N_22
REMARK    5  A    between atoms: N_22  and  C_23
REMARK                            x       y       z     vdW  Elec       q    Type
REMARK                         _______ _______ _______ _____ _____    ______ ____
ROOT
ATOM      1  C   UNL     1       0.492  10.721  19.175  0.00  0.00    +0.000 A 
ATOM      2  N   UNL     1       1.152  11.557  20.013  0.00  0.00    +0.000 NA
ATOM      3  C   UNL     1       0.928  12.867  19.908  0.00  0.00    +0.000 A 
ATOM      4  C   UNL     1       1.729  13.724  20.653  0.00  0.00    +0.000 A 
ATOM      5  C   UNL     1       1.688  15.100  20.450  0.00  0.00    +0.000 A 
ATOM      6  C   UNL     1       0.817  15.616  19.501  0.00  0.00    +0.000 A 
ATOM      7  C   UNL     1      -0.043  14.757  18.804  0.00  0.00    +0.000 A 
ATOM      8  C   UNL     1      -0.014  13.377  18.997  0.00  0.00    +0.000 A 
ATOM      9  N   UNL     1      -0.823  12.554  18.294  0.00  0.00    +0.000 NA
ATOM     10  C   UNL     1      -0.567  11.221  18.364  0.00  0.00    +0.000 A 
ENDROOT
BRANCH   1  14
ATOM     11  N   UNL     1       2.501   7.024  18.553  0.00  0.00    +0.000 NA
ATOM     12  C   UNL     1       2.908   8.177  17.772  0.00  0.00    +0.000 C 
ATOM     13  C   UNL     1       2.122   9.478  17.970  0.00  0.00    +0.000 C 
ATOM     14  N   UNL     1       1.052   9.433  18.985  0.00  0.00    +0.000 N 
ATOM     15  C   UNL     1       1.264   8.613  20.183  0.00  0.00    +0.000 C 
ATOM     16  C   UNL     1       2.176   7.381  19.930  0.00  0.00    +0.000 C 
BRANCH  11  17
ATOM     17  C   UNL     1       1.722   6.003  17.873  0.00  0.00    +0.000 C 
BRANCH  17  23
ATOM     18 CL   UNL     1       1.484   2.472  21.705  0.00  0.00    +0.000 Cl
ATOM     19  C   UNL     1       1.802   2.887  20.064  0.00  0.00    +0.000 A 
ATOM     20  C   UNL     1       2.374   1.943  19.216  0.00  0.00    +0.000 A 
ATOM     21  C   UNL     1       2.659   2.291  17.896  0.00  0.00    +0.000 A 
ATOM     22  C   UNL     1       2.378   3.587  17.437  0.00  0.00    +0.000 A 
ATOM     23  C   UNL     1       1.819   4.559  18.293  0.00  0.00    +0.000 A 
ATOM     24  C   UNL     1       1.522   4.179  19.613  0.00  0.00    +0.000 A 
ENDBRANCH  17  23
ENDBRANCH  11  17
ENDBRANCH   1  14
BRANCH  10  25
ATOM     25  N   UNL     1      -1.313  10.316  17.561  0.00  0.00    +0.000 N 
ATOM     26  H   UNL     1      -0.647   9.615  17.235  0.00  0.00    +0.000 HD
BRANCH  25  27
ATOM     27  C   UNL     1      -2.264  10.820  16.572  0.00  0.00    +0.000 C 
ATOM     28  C   UNL     1      -2.916   9.841  15.631  0.00  0.00    +0.000 C 
ATOM     29  C   UNL     1      -3.735  10.525  16.685  0.00  0.00    +0.000 C 
ENDBRANCH  25  27
ENDBRANCH  10  25
TORSDOF 5
ENDMDL
MODEL 3
REMARK VINA RESULT:      -8.4      0.827      1.268
REMARK  Name = 
REMARK  5 active torsions:
REMARK  status: ('A' for Active; 'I' for Inactive)
REMARK    1  A    between atoms: C_6  and  C_7
REMARK    2  A    between atoms: C_7  and  N_8
REMARK    3  A    between atoms: N_11  and  C_12
REMARK    4  A    between atoms: C_21  and  N_22
REMARK    5  A    between atoms: N_22  and  C_23
REMARK                            x       y       z     vdW  Elec       q    Type
REMARK                         _______ _______ _______ _____ _____    ______ ____
ROOT
ATOM      1  C   UNL     1       5.784   4.193  16.589  0.00  0.00    +0.000 A 
ATOM      2  N   UNL     1       5.328   3.651  15.433  0.00  0.00    +0.000 NA
ATOM      3  C   UNL     1       6.025   3.860  14.316  0.00  0.00    +0.000 A 
ATOM      4  C   UNL     1       5.465   3.446  13.114  0.00  0.00    +0.000 A 
ATOM      5  C   UNL     1       6.037   3.802  11.897  0.00  0.00    +0.000 A 
ATOM      6  C   UNL     1       7.195   4.567  11.894  0.00  0.00    +0.000 A 
ATOM      7  C   UNL     1       7.799   4.921  13.107  0.00  0.00    +0.000 A 
ATOM      8  C   UNL     1       7.239   4.571  14.334  0.00  0.00    +0.000 A 
ATOM      9  N   UNL     1       7.810   4.948  15.499  0.00  0.00    +0.000 NA
ATOM     10  C   UNL     1       7.082   4.777  16.634  0.00  0.00    +0.000 A 
ENDROOT
BRANCH   1  14
ATOM     11  N   UNL     1       2.698   4.544  19.494  0.00  0.00    +0.000 NA
ATOM     12  C   UNL     1       2.388   4.849  18.110  0.00  0.00    +0.000 C 
ATOM     13  C   UNL     1       3.536   4.779  17.097  0.00  0.00    +0.000 C 
ATOM     14  N   UNL     1       4.842   4.352  17.636  0.00  0.00    +0.000 N 
ATOM     15  C   UNL     1       4.858   3.350  18.708  0.00  0.00    +0.000 C 
ATOM     16  C   UNL     1       3.599   3.403  19.616  0.00  0.00    +0.000 C 
BRANCH  11  17
ATOM     17  C   UNL     1       2.832   5.666  20.408  0.00  0.00    +0.000 C 
BRANCH  17  23
ATOM     18 CL   UNL     1       1.908  10.014  17.680  0.00  0.00    +0.000 Cl
ATOM     19  C   UNL     1       1.589   8.993  19.029  0.00  0.00    +0.000 A 
ATOM     20  C   UNL     1       0.755   9.442  20.049  0.00  0.00    +0.000 A 
ATOM     21  C   UNL     1       0.523   8.627  21.155  0.00  0.00    +0.000 A 
ATOM     22  C   UNL     1       1.138   7.367  21.238  0.00  0.00    +0.000 A 
ATOM     23  C   UNL     1       2.003   6.909  20.222  0.00  0.00    +0.000 A 
ATOM     24  C   UNL     1       2.205   7.741  19.108  0.00  0.00    +0.000 A 
ENDBRANCH  17  23
ENDBRANCH  11  17
ENDBRANCH   1  14
BRANCH  10  25
ATOM     25  N   UNL     1       7.585   5.256  17.874  0.00  0.00    +0.000 N 
ATOM     26  H   UNL     1       7.449   4.499  18.543  0.00  0.00    +0.000 HD
BRANCH  25  27
ATOM     27  C   UNL     1       7.250   6.602  18.335  0.00  0.00    +0.000 C 
ATOM     28  C   UNL     1       8.366   7.588  18.561  0.00  0.00    +0.000 C 
ATOM     29  C   UNL     1       7.400   7.795  17.432  0.00  0.00    +0.000 C 
ENDBRANCH  25  27
ENDBRANCH  10  25
TORSDOF 5
ENDMDL
MODEL 4
REMARK VINA RESULT:      -8.3      3.137      5.788
REMARK  Name = 
REMARK  5 active torsions:
REMARK  status: ('A' for Active; 'I' for Inactive)
REMARK    1  A    between atoms: C_6  and  C_7
REMARK    2  A    between atoms: C_7  and  N_8
REMARK    3  A    between atoms: N_11  and  C_12
REMARK    4  A    between atoms: C_21  and  N_22
REMARK    5  A    between atoms: N_22  and  C_23
REMARK                            x       y       z     vdW  Elec       q    Type
REMARK                         _______ _______ _______ _____ _____    ______ ____
ROOT
ATOM      1  C   UNL     1       2.886   6.936  18.460  0.00  0.00    +0.000 A 
ATOM      2  N   UNL     1       3.928   7.280  17.664  0.00  0.00    +0.000 NA
ATOM      3  C   UNL     1       5.052   6.568  17.748  0.00  0.00    +0.000 A 
ATOM      4  C   UNL     1       6.165   7.028  17.055  0.00  0.00    +0.000 A 
ATOM      5  C   UNL     1       7.417   6.454  17.249  0.00  0.00    +0.000 A 
ATOM      6  C   UNL     1       7.543   5.393  18.135  0.00  0.00    +0.000 A 
ATOM      7  C   UNL     1       6.407   4.882  18.776  0.00  0.00    +0.000 A 
ATOM      8  C   UNL     1       5.146   5.446  18.591  0.00  0.00    +0.000 A 
ATOM      9  N   UNL     1       4.063   4.969  19.243  0.00  0.00    +0.000 NA
ATOM     10  C   UNL     1       2.929   5.717  19.196  0.00  0.00    +0.000 A 
ENDROOT
BRANCH   1  14
ATOM     11  N   UNL     1       0.156  10.048  19.433  0.00  0.00    +0.000 NA
ATOM     12  C   UNL     1       0.877   9.394  20.508  0.00  0.00    +0.000 C 
ATOM     13  C   UNL     1       1.804   8.232  20.134  0.00  0.00    +0.000 C 
ATOM     14  N   UNL     1       1.904   7.930  18.693  0.00  0.00    +0.000 N 
ATOM     15  C   UNL     1       1.845   9.047  17.742  0.00  0.00    +0.000 C 
ATOM     16  C   UNL     1       0.989  10.240  18.250  0.00  0.00    +0.000 C 
BRANCH  11  17
ATOM     17  C   UNL     1      -1.249   9.712  19.274  0.00  0.00    +0.000 C 
BRANCH  17  23
ATOM     18 CL   UNL     1      -5.370  12.411  17.559  0.00  0.00    +0.000 Cl
ATOM     19  C   UNL     1      -3.994  11.421  17.258  0.00  0.00    +0.000 A 
ATOM     20  C   UNL     1      -3.771  10.925  15.977  0.00  0.00    +0.000 A 
ATOM     21  C   UNL     1      -2.674  10.098  15.742  0.00  0.00    +0.000 A 
ATOM     22  C   UNL     1      -1.810   9.764  16.797  0.00  0.00    +0.000 A 
ATOM     23  C   UNL     1      -2.037  10.241  18.104  0.00  0.00    +0.000 A 
ATOM     24  C   UNL     1      -3.138  11.089  18.312  0.00  0.00    +0.000 A 
ENDBRANCH  17  23
ENDBRANCH  11  17
ENDBRANCH   1  14
BRANCH  10  25
ATOM     25  N   UNL     1       1.791   5.322  19.952  0.00  0.00    +0.000 N 
ATOM     26  H   UNL     1       1.266   6.176  20.135  0.00  0.00    +0.000 HD
BRANCH  25  27
ATOM     27  C   UNL     1       1.936   4.393  21.071  0.00  0.00    +0.000 C 
ATOM     28  C   UNL     1       1.119   3.128  21.070  0.00  0.00    +0.000 C 
ATOM     29  C   UNL     1       2.607   3.059  20.893  0.00  0.00    +0.000 C 
ENDBRANCH  25  27
ENDBRANCH  10  25
TORSDOF 5
ENDMDL
MODEL 5
REMARK VINA RESULT:      -8.3      1.012      1.552
REMARK  Name = 
REMARK  5 active torsions:
REMARK  status: ('A' for Active; 'I' for Inactive)
REMARK    1  A    between atoms: C_6  and  C_7
REMARK    2  A    between atoms: C_7  and  N_8
REMARK    3  A    between atoms: N_11  and  C_12
REMARK    4  A    between atoms: C_21  and  N_22
REMARK    5  A    between atoms: N_22  and  C_23
REMARK                            x       y       z     vdW  Elec       q    Type
REMARK                         _______ _______ _______ _____ _____    ______ ____
ROOT
ATOM      1  C   UNL     1       5.721   4.941  16.813  0.00  0.00    +0.000 A 
ATOM      2  N   UNL     1       5.431   4.051  15.832  0.00  0.00    +0.000 NA
ATOM      3  C   UNL     1       6.112   4.124  14.688  0.00  0.00    +0.000 A 
ATOM      4  C   UNL     1       5.696   3.322  13.633  0.00  0.00    +0.000 A 
ATOM      5  C   UNL     1       6.227   3.483  12.358  0.00  0.00    +0.000 A 
ATOM      6  C   UNL     1       7.201   4.450  12.150  0.00  0.00    +0.000 A 
ATOM      7  C   UNL     1       7.673   5.207  13.230  0.00  0.00    +0.000 A 
ATOM      8  C   UNL     1       7.151   5.056  14.514  0.00  0.00    +0.000 A 
ATOM      9  N   UNL     1       7.587   5.817  15.542  0.00  0.00    +0.000 NA
ATOM     10  C   UNL     1       6.868   5.778  16.694  0.00  0.00    +0.000 A 
ENDROOT
BRANCH   1  14
ATOM     11  N   UNL     1       2.491   5.439  19.534  0.00  0.00    +0.000 NA
ATOM     12  C   UNL     1       2.266   5.721  18.129  0.00  0.00    +0.000 C 
ATOM     13  C   UNL     1       3.466   5.597  17.182  0.00  0.00    +0.000 C 
ATOM     14  N   UNL     1       4.728   5.149  17.802  0.00  0.00    +0.000 N 
ATOM     15  C   UNL     1       4.658   4.171  18.895  0.00  0.00    +0.000 C 
ATOM     16  C   UNL     1       3.353   4.278  19.730  0.00  0.00    +0.000 C 
BRANCH  11  17
ATOM     17  C   UNL     1       2.606   6.578  20.430  0.00  0.00    +0.000 C 
BRANCH  17  23
ATOM     18 CL   UNL     1       0.952  11.180  18.615  0.00  0.00    +0.000 Cl
ATOM     19  C   UNL     1       0.784   9.840  19.683  0.00  0.00    +0.000 A 
ATOM     20  C   UNL     1      -0.169   9.884  20.696  0.00  0.00    +0.000 A 
ATOM     21  C   UNL     1      -0.283   8.812  21.580  0.00  0.00    +0.000 A 
ATOM     22  C   UNL     1       0.568   7.703  21.448  0.00  0.00    +0.000 A 
ATOM     23  C   UNL     1       1.552   7.655  20.439  0.00  0.00    +0.000 A 
ATOM     24  C   UNL     1       1.635   8.739  19.549  0.00  0.00    +0.000 A 
ENDBRANCH  17  23
ENDBRANCH  11  17
ENDBRANCH   1  14
BRANCH  10  25
ATOM     25  N   UNL     1       7.213   6.639  17.772  0.00  0.00    +0.000 N 
ATOM     26  H   UNL     1       6.338   6.864  18.243  0.00  0.00    +0.000 HD
BRANCH  25  27
ATOM     27  C   UNL     1       8.144   7.746  17.561  0.00  0.00    +0.000 C 
ATOM     28  C   UNL     1       7.640   9.155  17.724  0.00  0.00    +0.000 C 
ATOM     29  C   UNL     1       8.621   8.592  18.709  0.00  0.00    +0.000 C 
ENDBRANCH  25  27
ENDBRANCH  10  25
TORSDOF 5
ENDMDL
MODEL 6
REMARK VINA RESULT:      -8.3      1.002      1.214
REMARK  Name = 
REMARK  5 active torsions:
REMARK  status: ('A' for Active; 'I' for Inactive)
REMARK    1  A    between atoms: C_6  and  C_7
REMARK    2  A    between atoms: C_7  and  N_8
REMARK    3  A    between atoms: N_11  and  C_12
REMARK    4  A    between atoms: C_21  and  N_22
REMARK    5  A    between atoms: N_22  and  C_23
REMARK                            x       y       z     vdW  Elec       q    Type
REMARK                         _______ _______ _______ _____ _____    ______ ____
ROOT
ATOM      1  C   UNL     1       5.929   4.358  16.401  0.00  0.00    +0.000 A 
ATOM      2  N   UNL     1       5.778   3.527  15.341  0.00  0.00    +0.000 NA
ATOM      3  C   UNL     1       6.390   3.839  14.199  0.00  0.00    +0.000 A 
ATOM      4  C   UNL     1       6.095   3.076  13.075  0.00  0.00    +0.000 A 
ATOM      5  C   UNL     1       6.539   3.458  11.814  0.00  0.00    +0.000 A 
ATOM      6  C   UNL     1       7.303   4.609  11.687  0.00  0.00    +0.000 A 
ATOM      7  C   UNL     1       7.662   5.336  12.830  0.00  0.00    +0.000 A 
ATOM      8  C   UNL     1       7.226   4.966  14.100  0.00  0.00    +0.000 A 
ATOM      9  N   UNL     1       7.547   5.694  15.192  0.00  0.00    +0.000 NA
ATOM     10  C   UNL     1       6.891   5.408  16.347  0.00  0.00    +0.000 A 
ENDROOT
BRANCH   1  14
ATOM     11  N   UNL     1       3.064   3.742  19.483  0.00  0.00    +0.000 NA
ATOM     12  C   UNL     1       3.213   2.726  18.459  0.00  0.00    +0.000 C 
ATOM     13  C   UNL     1       4.206   3.006  17.324  0.00  0.00    +0.000 C 
ATOM     14  N   UNL     1       4.952   4.275  17.424  0.00  0.00    +0.000 N 
ATOM     15  C   UNL     1       5.336   4.753  18.757  0.00  0.00    +0.000 C 
ATOM     16  C   UNL     1       4.346   4.320  19.873  0.00  0.00    +0.000 C 
BRANCH  11  17
ATOM     17  C   UNL     1       1.886   4.589  19.412  0.00  0.00    +0.000 C 
BRANCH  17  23
ATOM     18 CL   UNL     1       1.086   9.189  21.738  0.00  0.00    +0.000 Cl
ATOM     19  C   UNL     1       1.591   8.264  20.376  0.00  0.00    +0.000 A 
ATOM     20  C   UNL     1       1.883   8.908  19.177  0.00  0.00    +0.000 A 
ATOM     21  C   UNL     1       2.261   8.155  18.067  0.00  0.00    +0.000 A 
ATOM     22  C   UNL     1       2.336   6.756  18.163  0.00  0.00    +0.000 A 
ATOM     23  C   UNL     1       2.022   6.089  19.366  0.00  0.00    +0.000 A 
ATOM     24  C   UNL     1       1.662   6.872  20.476  0.00  0.00    +0.000 A 
ENDBRANCH  17  23
ENDBRANCH  11  17
ENDBRANCH   1  14
BRANCH  10  25
ATOM     25  N   UNL     1       7.106   6.212  17.500  0.00  0.00    +0.000 N 
ATOM     26  H   UNL     1       6.184   6.383  17.899  0.00  0.00    +0.000 HD
BRANCH  25  27
ATOM     27  C   UNL     1       8.013   7.356  17.440  0.00  0.00    +0.000 C 
ATOM     28  C   UNL     1       7.459   8.733  17.697  0.00  0.00    +0.000 C 
ATOM     29  C   UNL     1       8.400   8.109  18.684  0.00  0.00    +0.000 C 
ENDBRANCH  25  27
ENDBRANCH  10  25
TORSDOF 5
ENDMDL
MODEL 7
REMARK VINA RESULT:      -8.2      2.313      3.640
REMARK  Name = 
REMARK  5 active torsions:
REMARK  status: ('A' for Active; 'I' for Inactive)
REMARK    1  A    between atoms: C_6  and  C_7
REMARK    2  A    between atoms: C_7  and  N_8
REMARK    3  A    between atoms: N_11  and  C_12
REMARK    4  A    between atoms: C_21  and  N_22
REMARK    5  A    between atoms: N_22  and  C_23
REMARK                            x       y       z     vdW  Elec       q    Type
REMARK                         _______ _______ _______ _____ _____    ______ ____
ROOT
ATOM      1  C   UNL     1       5.453   5.008  16.285  0.00  0.00    +0.000 A 
ATOM      2  N   UNL     1       5.177   4.182  15.245  0.00  0.00    +0.000 NA
ATOM      3  C   UNL     1       6.004   4.181  14.200  0.00  0.00    +0.000 A 
ATOM      4  C   UNL     1       5.626   3.460  13.074  0.00  0.00    +0.000 A 
ATOM      5  C   UNL     1       6.336   3.569  11.882  0.00  0.00    +0.000 A 
ATOM      6  C   UNL     1       7.449   4.397  11.833  0.00  0.00    +0.000 A 
ATOM      7  C   UNL     1       7.873   5.064  12.990  0.00  0.00    +0.000 A 
ATOM      8  C   UNL     1       7.172   4.965  14.191  0.00  0.00    +0.000 A 
ATOM      9  N   UNL     1       7.568   5.641  15.291  0.00  0.00    +0.000 NA
ATOM     10  C   UNL     1       6.706   5.682  16.341  0.00  0.00    +0.000 A 
ENDROOT
BRANCH   1  14
ATOM     11  N   UNL     1       2.144   6.266  18.642  0.00  0.00    +0.000 NA
ATOM     12  C   UNL     1       2.971   7.276  18.010  0.00  0.00    +0.000 C 
ATOM     13  C   UNL     1       4.195   6.795  17.222  0.00  0.00    +0.000 C 
ATOM     14  N   UNL     1       4.375   5.332  17.146  0.00  0.00    +0.000 N 
ATOM     15  C   UNL     1       3.178   4.487  17.068  0.00  0.00    +0.000 C 
ATOM     16  C   UNL     1       1.944   5.103  17.783  0.00  0.00    +0.000 C 
BRANCH  11  17
ATOM     17  C   UNL     1       2.298   6.081  20.075  0.00  0.00    +0.000 C 
BRANCH  17  23
ATOM     18 CL   UNL     1       5.027   1.670  20.628  0.00  0.00    +0.000 Cl
ATOM     19  C   UNL     1       3.592   2.588  20.878  0.00  0.00    +0.000 A 
ATOM     20  C   UNL     1       2.460   1.967  21.399  0.00  0.00    +0.000 A 
ATOM     21  C   UNL     1       1.290   2.705  21.572  0.00  0.00    +0.000 A 
ATOM     22  C   UNL     1       1.259   4.061  21.212  0.00  0.00    +0.000 A 
ATOM     23  C   UNL     1       2.392   4.698  20.664  0.00  0.00    +0.000 A 
ATOM     24  C   UNL     1       3.564   3.938  20.517  0.00  0.00    +0.000 A 
ENDBRANCH  17  23
ENDBRANCH  11  17
ENDBRANCH   1  14
BRANCH  10  25
ATOM     25  N   UNL     1       7.020   6.469  17.482  0.00  0.00    +0.000 N 
ATOM     26  H   UNL     1       6.127   6.704  17.916  0.00  0.00    +0.000 HD
BRANCH  25  27
ATOM     27  C   UNL     1       8.001   7.548  17.386  0.00  0.00    +0.000 C 
ATOM     28  C   UNL     1       7.555   8.959  17.665  0.00  0.00    +0.000 C 
ATOM     29  C   UNL     1       8.490   8.269  18.613  0.00  0.00    +0.000 C 
ENDBRANCH  25  27
ENDBRANCH  10  25
TORSDOF 5
ENDMDL
MODEL 8
REMARK VINA RESULT:      -8.2      2.354      3.696
REMARK  Name = 
REMARK  5 active torsions:
REMARK  status: ('A' for Active; 'I' for Inactive)
REMARK    1  A    between atoms: C_6  and  C_7
REMARK    2  A    between atoms: C_7  and  N_8
REMARK    3  A    between atoms: N_11  and  C_12
REMARK    4  A    between atoms: C_21  and  N_22
REMARK    5  A    between atoms: N_22  and  C_23
REMARK                            x       y       z     vdW  Elec       q    Type
REMARK                         _______ _______ _______ _____ _____    ______ ____
ROOT
ATOM      1  C   UNL     1       5.476   5.067  16.258  0.00  0.00    +0.000 A 
ATOM      2  N   UNL     1       5.233   4.169  15.272  0.00  0.00    +0.000 NA
ATOM      3  C   UNL     1       6.044   4.153  14.214  0.00  0.00    +0.000 A 
ATOM      4  C   UNL     1       5.691   3.350  13.137  0.00  0.00    +0.000 A 
ATOM      5  C   UNL     1       6.376   3.429  11.929  0.00  0.00    +0.000 A 
ATOM      6  C   UNL     1       7.440   4.313  11.813  0.00  0.00    +0.000 A 
ATOM      7  C   UNL     1       7.842   5.068  12.923  0.00  0.00    +0.000 A 
ATOM      8  C   UNL     1       7.166   4.999  14.140  0.00  0.00    +0.000 A 
ATOM      9  N   UNL     1       7.539   5.759  15.193  0.00  0.00    +0.000 NA
ATOM     10  C   UNL     1       6.690   5.812  16.254  0.00  0.00    +0.000 A 
ENDROOT
BRANCH   1  14
ATOM     11  N   UNL     1       2.153   6.290  18.613  0.00  0.00    +0.000 NA
ATOM     12  C   UNL     1       2.973   7.309  17.985  0.00  0.00    +0.000 C 
ATOM     13  C   UNL     1       4.203   6.841  17.197  0.00  0.00    +0.000 C 
ATOM     14  N   UNL     1       4.395   5.380  17.119  0.00  0.00    +0.000 N 
ATOM     15  C   UNL     1       3.205   4.525  17.036  0.00  0.00    +0.000 C 
ATOM     16  C   UNL     1       1.965   5.128  17.751  0.00  0.00    +0.000 C 
BRANCH  11  17
ATOM     17  C   UNL     1       2.307   6.104  20.046  0.00  0.00    +0.000 C 
BRANCH  17  23
ATOM     18 CL   UNL     1       5.028   1.695  20.651  0.00  0.00    +0.000 Cl
ATOM     19  C   UNL     1       3.587   2.611  20.872  0.00  0.00    +0.000 A 
ATOM     20  C   UNL     1       2.445   1.987  21.365  0.00  0.00    +0.000 A 
ATOM     21  C   UNL     1       1.270   2.723  21.513  0.00  0.00    +0.000 A 
ATOM     22  C   UNL     1       1.245   4.081  21.156  0.00  0.00    +0.000 A 
ATOM     23  C   UNL     1       2.389   4.720  20.634  0.00  0.00    +0.000 A 
ATOM     24  C   UNL     1       3.566   3.962  20.512  0.00  0.00    +0.000 A 
ENDBRANCH  17  23
ENDBRANCH  11  17
ENDBRANCH   1  14
BRANCH  10  25
ATOM     25  N   UNL     1       6.976   6.679  17.343  0.00  0.00    +0.000 N 
ATOM     26  H   UNL     1       7.192   7.586  16.931  0.00  0.00    +0.000 HD
BRANCH  25  27
ATOM     27  C   UNL     1       7.844   6.234  18.432  0.00  0.00    +0.000 C 
ATOM     28  C   UNL     1       7.218   5.587  19.638  0.00  0.00    +0.000 C 
ATOM     29  C   UNL     1       8.064   4.772  18.705  0.00  0.00    +0.000 C 
ENDBRANCH  25  27
ENDBRANCH  10  25
TORSDOF 5
ENDMDL
MODEL 9
REMARK VINA RESULT:      -8.1      1.274      1.575
REMARK  Name = 
REMARK  5 active torsions:
REMARK  status: ('A' for Active; 'I' for Inactive)
REMARK    1  A    between atoms: C_6  and  C_7
REMARK    2  A    between atoms: C_7  and  N_8
REMARK    3  A    between atoms: N_11  and  C_12
REMARK    4  A    between atoms: C_21  and  N_22
REMARK    5  A    between atoms: N_22  and  C_23
REMARK                            x       y       z     vdW  Elec       q    Type
REMARK                         _______ _______ _______ _____ _____    ______ ____
ROOT
ATOM      1  C   UNL     1       5.604   4.160  16.508  0.00  0.00    +0.000 A 
ATOM      2  N   UNL     1       5.670   3.367  15.411  0.00  0.00    +0.000 NA
ATOM      3  C   UNL     1       6.325   3.817  14.341  0.00  0.00    +0.000 A 
ATOM      4  C   UNL     1       6.245   3.073  13.171  0.00  0.00    +0.000 A 
ATOM      5  C   UNL     1       6.735   3.574  11.969  0.00  0.00    +0.000 A 
ATOM      6  C   UNL     1       7.329   4.828  11.953  0.00  0.00    +0.000 A 
ATOM      7  C   UNL     1       7.476   5.545  13.148  0.00  0.00    +0.000 A 
ATOM      8  C   UNL     1       6.991   5.056  14.359  0.00  0.00    +0.000 A 
ATOM      9  N   UNL     1       7.105   5.771  15.500  0.00  0.00    +0.000 NA
ATOM     10  C   UNL     1       6.401   5.338  16.579  0.00  0.00    +0.000 A 
ENDROOT
BRANCH   1  14
ATOM     11  N   UNL     1       2.485   2.995  19.155  0.00  0.00    +0.000 NA
ATOM     12  C   UNL     1       2.514   2.426  17.821  0.00  0.00    +0.000 C 
ATOM     13  C   UNL     1       3.611   2.914  16.867  0.00  0.00    +0.000 C 
ATOM     14  N   UNL     1       4.564   3.889  17.432  0.00  0.00    +0.000 N 
ATOM     15  C   UNL     1       4.943   3.753  18.844  0.00  0.00    +0.000 C 
ATOM     16  C   UNL     1       3.822   3.132  19.722  0.00  0.00    +0.000 C 
BRANCH  11  17
ATOM     17  C   UNL     1       1.485   4.015  19.420  0.00  0.00    +0.000 C 
BRANCH  17  23
ATOM     18 CL   UNL     1       1.406   8.683  21.746  0.00  0.00    +0.000 Cl
ATOM     19  C   UNL     1       1.759   7.691  20.384  0.00  0.00    +0.000 A 
ATOM     20  C   UNL     1       2.142   8.283  19.183  0.00  0.00    +0.000 A 
ATOM     21  C   UNL     1       2.397   7.480  18.073  0.00  0.00    +0.000 A 
ATOM     22  C   UNL     1       2.257   6.087  18.169  0.00  0.00    +0.000 A 
ATOM     23  C   UNL     1       1.849   5.476  19.373  0.00  0.00    +0.000 A 
ATOM     24  C   UNL     1       1.616   6.304  20.484  0.00  0.00    +0.000 A 
ENDBRANCH  17  23
ENDBRANCH  11  17
ENDBRANCH   1  14
BRANCH  10  25
ATOM     25  N   UNL     1       6.394   6.110  17.773  0.00  0.00    +0.000 N 
ATOM     26  H   UNL     1       5.893   6.969  17.550  0.00  0.00    +0.000 HD
BRANCH  25  27
ATOM     27  C   UNL     1       7.615   6.254  18.564  0.00  0.00    +0.000 C 
ATOM     28  C   UNL     1       7.628   5.731  19.976  0.00  0.00    +0.000 C 
ATOM     29  C   UNL     1       8.458   5.061  18.921  0.00  0.00    +0.000 C 
ENDBRANCH  25  27
ENDBRANCH  10  25
TORSDOF 5
ENDMDL
