MODEL 1
REMARK VINA RESULT:      -7.7      0.000      0.000
REMARK  Name = 
REMARK  2 active torsions:
REMARK  status: ('A' for Active; 'I' for Inactive)
REMARK    1  A    between atoms: C_7  and  C_8
REMARK    2  A    between atoms: N_13  and  C_14
REMARK                            x       y       z     vdW  Elec       q    Type
REMARK                         _______ _______ _______ _____ _____    ______ ____
ROOT
ATOM      1  C   UNL     1      -6.441  12.263  20.252  0.00  0.00    +0.000 A 
ATOM      2  C   UNL     1      -7.209  12.102  19.072  0.00  0.00    +0.000 A 
ATOM      3  N   UNL     1      -6.455  11.912  17.978  0.00  0.00    +0.000 NA
ATOM      4  N   UNL     1      -5.196  11.979  18.477  0.00  0.00    +0.000 N 
ATOM      5  C   UNL     1      -4.029  11.837  17.719  0.00  0.00    +0.000 A 
ATOM      6  N   UNL     1      -4.170  11.632  16.358  0.00  0.00    +0.000 N 
ATOM      7  N   UNL     1      -2.887  11.902  18.341  0.00  0.00    +0.000 NA
ATOM      8  C   UNL     1      -2.847  12.111  19.706  0.00  0.00    +0.000 A 
ATOM      9  N   UNL     1      -1.613  12.171  20.306  0.00  0.00    +0.000 N 
ATOM     10  C   UNL     1      -0.357  12.114  19.561  0.00  0.00    +0.000 C 
ATOM     11  C   UNL     1       0.574  11.082  20.212  0.00  0.00    +0.000 C 
ATOM     12  O   UNL     1       0.787  11.366  21.605  0.00  0.00    +0.000 OA
ATOM     13  C   UNL     1      -0.464  11.366  22.314  0.00  0.00    +0.000 C 
ATOM     14  C   UNL     1      -1.424  12.415  21.742  0.00  0.00    +0.000 C 
ATOM     15  N   UNL     1      -3.927  12.230  20.441  0.00  0.00    +0.000 NA
ATOM     16  C   UNL     1      -5.131  12.170  19.826  0.00  0.00    +0.000 A 
ATOM     17  H   UNL     1      -5.133  11.490  16.050  0.00  0.00    +0.000 HD
ENDROOT
BRANCH   1  24
ATOM     18  O   UNL     1      -4.913  16.400  23.235  0.00  0.00    +0.000 OA
ATOM     19  C   UNL     1      -5.564  15.370  23.198  0.00  0.00    +0.000 C 
ATOM     20  N   UNL     1      -6.403  14.900  24.176  0.00  0.00    +0.000 N 
ATOM     21  C   UNL     1      -7.061  13.772  23.767  0.00  0.00    +0.000 C 
ATOM     22  O   UNL     1      -7.917  13.145  24.362  0.00  0.00    +0.000 OA
ATOM     23  C   UNL     1      -6.529  13.497  22.399  0.00  0.00    +0.000 C 
ATOM     24  C   UNL     1      -6.900  12.497  21.589  0.00  0.00    +0.000 C 
ATOM     25  N   UNL     1      -5.620  14.484  22.145  0.00  0.00    +0.000 N 
ATOM     26  H   UNL     1      -6.575  15.383  25.040  0.00  0.00    +0.000 HD
ATOM     27  H   UNL     1      -5.173  14.632  21.247  0.00  0.00    +0.000 HD
ENDBRANCH   1  24
BRANCH   6  28
ATOM     28  C   UNL     1      -3.063  11.037  15.617  0.00  0.00    +0.000 C 
ATOM     29  C   UNL     1      -2.789   9.560  15.680  0.00  0.00    +0.000 C 
ATOM     30  C   UNL     1      -3.314  10.173  14.414  0.00  0.00    +0.000 C 
ENDBRANCH   6  28
TORSDOF 2
ENDMDL
MODEL 2
REMARK VINA RESULT:      -7.7      1.215      1.505
REMARK  Name = 
REMARK  2 active torsions:
REMARK  status: ('A' for Active; 'I' for Inactive)
REMARK    1  A    between atoms: C_7  and  C_8
REMARK    2  A    between atoms: N_13  and  C_14
REMARK                            x       y       z     vdW  Elec       q    Type
REMARK                         _______ _______ _______ _____ _____    ______ ____
ROOT
ATOM      1  C   UNL     1      -6.861  13.289  19.866  0.00  0.00    +0.000 A 
ATOM      2  C   UNL     1      -7.657  12.953  18.742  0.00  0.00    +0.000 A 
ATOM      3  N   UNL     1      -6.965  12.315  17.785  0.00  0.00    +0.000 NA
ATOM      4  N   UNL     1      -5.715  12.272  18.307  0.00  0.00    +0.000 N 
ATOM      5  C   UNL     1      -4.607  11.694  17.679  0.00  0.00    +0.000 A 
ATOM      6  N   UNL     1      -4.798  11.140  16.425  0.00  0.00    +0.000 N 
ATOM      7  N   UNL     1      -3.471  11.707  18.313  0.00  0.00    +0.000 NA
ATOM      8  C   UNL     1      -3.378  12.284  19.565  0.00  0.00    +0.000 A 
ATOM      9  N   UNL     1      -2.152  12.269  20.185  0.00  0.00    +0.000 N 
ATOM     10  C   UNL     1      -0.940  11.756  19.549  0.00  0.00    +0.000 C 
ATOM     11  C   UNL     1      -0.233  10.791  20.510  0.00  0.00    +0.000 C 
ATOM     12  O   UNL     1       0.046  11.412  21.776  0.00  0.00    +0.000 OA
ATOM     13  C   UNL     1      -1.174  11.860  22.393  0.00  0.00    +0.000 C 
ATOM     14  C   UNL     1      -1.906  12.870  21.502  0.00  0.00    +0.000 C 
ATOM     15  N   UNL     1      -4.405  12.818  20.182  0.00  0.00    +0.000 NA
ATOM     16  C   UNL     1      -5.602  12.823  19.549  0.00  0.00    +0.000 A 
ATOM     17  H   UNL     1      -5.772  11.109  16.120  0.00  0.00    +0.000 HD
ENDROOT
BRANCH   1  24
ATOM     18  O   UNL     1      -5.271  11.911  24.757  0.00  0.00    +0.000 OA
ATOM     19  C   UNL     1      -5.971  12.662  24.099  0.00  0.00    +0.000 C 
ATOM     20  N   UNL     1      -6.683  13.735  24.570  0.00  0.00    +0.000 N 
ATOM     21  C   UNL     1      -7.273  14.428  23.547  0.00  0.00    +0.000 C 
ATOM     22  O   UNL     1      -7.916  15.458  23.612  0.00  0.00    +0.000 OA
ATOM     23  C   UNL     1      -6.914  13.664  22.315  0.00  0.00    +0.000 C 
ATOM     24  C   UNL     1      -7.252  13.981  21.058  0.00  0.00    +0.000 C 
ATOM     25  N   UNL     1      -6.157  12.608  22.735  0.00  0.00    +0.000 N 
ATOM     26  H   UNL     1      -6.688  14.020  25.533  0.00  0.00    +0.000 HD
ATOM     27  H   UNL     1      -5.670  11.972  22.115  0.00  0.00    +0.000 HD
ENDBRANCH   1  24
BRANCH   6  28
ATOM     28  C   UNL     1      -3.841  10.153  15.937  0.00  0.00    +0.000 C 
ATOM     29  C   UNL     1      -3.564   9.998  14.468  0.00  0.00    +0.000 C 
ATOM     30  C   UNL     1      -2.515  10.576  15.372  0.00  0.00    +0.000 C 
ENDBRANCH   6  28
TORSDOF 2
ENDMDL
MODEL 3
REMARK VINA RESULT:      -7.6      4.279      9.039
REMARK  Name = 
REMARK  2 active torsions:
REMARK  status: ('A' for Active; 'I' for Inactive)
REMARK    1  A    between atoms: C_7  and  C_8
REMARK    2  A    between atoms: N_13  and  C_14
REMARK                            x       y       z     vdW  Elec       q    Type
REMARK                         _______ _______ _______ _____ _____    ______ ____
ROOT
ATOM      1  C   UNL     1       1.272   8.851  20.633  0.00  0.00    +0.000 A 
ATOM      2  C   UNL     1       1.500   9.120  22.006  0.00  0.00    +0.000 A 
ATOM      3  N   UNL     1       0.650  10.029  22.509  0.00  0.00    +0.000 NA
ATOM      4  N   UNL     1      -0.105  10.351  21.430  0.00  0.00    +0.000 N 
ATOM      5  C   UNL     1      -1.155  11.275  21.437  0.00  0.00    +0.000 A 
ATOM      6  N   UNL     1      -1.431  11.922  22.629  0.00  0.00    +0.000 N 
ATOM      7  N   UNL     1      -1.808  11.465  20.327  0.00  0.00    +0.000 NA
ATOM      8  C   UNL     1      -1.458  10.771  19.185  0.00  0.00    +0.000 A 
ATOM      9  N   UNL     1      -2.183  11.014  18.044  0.00  0.00    +0.000 N 
ATOM     10  C   UNL     1      -3.235  12.026  17.965  0.00  0.00    +0.000 C 
ATOM     11  C   UNL     1      -4.490  11.405  17.335  0.00  0.00    +0.000 C 
ATOM     12  O   UNL     1      -4.206  10.823  16.052  0.00  0.00    +0.000 OA
ATOM     13  C   UNL     1      -3.203   9.799  16.177  0.00  0.00    +0.000 C 
ATOM     14  C   UNL     1      -1.902  10.368  16.756  0.00  0.00    +0.000 C 
ATOM     15  N   UNL     1      -0.489   9.887  19.156  0.00  0.00    +0.000 NA
ATOM     16  C   UNL     1       0.212   9.668  20.293  0.00  0.00    +0.000 A 
ATOM     17  H   UNL     1      -0.903  11.574  23.431  0.00  0.00    +0.000 HD
ENDROOT
BRANCH   1  24
ATOM     18  O   UNL     1       2.033   3.686  21.678  0.00  0.00    +0.000 OA
ATOM     19  C   UNL     1       2.273   4.606  20.915  0.00  0.00    +0.000 C 
ATOM     20  N   UNL     1       2.923   4.518  19.711  0.00  0.00    +0.000 N 
ATOM     21  C   UNL     1       2.928   5.721  19.058  0.00  0.00    +0.000 C 
ATOM     22  O   UNL     1       3.361   5.972  17.950  0.00  0.00    +0.000 OA
ATOM     23  C   UNL     1       2.238   6.661  19.993  0.00  0.00    +0.000 C 
ATOM     24  C   UNL     1       1.986   7.958  19.770  0.00  0.00    +0.000 C 
ATOM     25  N   UNL     1       1.903   5.921  21.089  0.00  0.00    +0.000 N 
ATOM     26  H   UNL     1       3.266   3.656  19.325  0.00  0.00    +0.000 HD
ATOM     27  H   UNL     1       1.321   6.257  21.849  0.00  0.00    +0.000 HD
ENDBRANCH   1  24
BRANCH   6  28
ATOM     28  C   UNL     1      -2.747  12.521  22.818  0.00  0.00    +0.000 C 
ATOM     29  C   UNL     1      -3.541  12.278  24.071  0.00  0.00    +0.000 C 
ATOM     30  C   UNL     1      -2.956  13.634  23.805  0.00  0.00    +0.000 C 
ENDBRANCH   6  28
TORSDOF 2
ENDMDL
MODEL 4
REMARK VINA RESULT:      -7.2      6.822      9.224
REMARK  Name = 
REMARK  2 active torsions:
REMARK  status: ('A' for Active; 'I' for Inactive)
REMARK    1  A    between atoms: C_7  and  C_8
REMARK    2  A    between atoms: N_13  and  C_14
REMARK                            x       y       z     vdW  Elec       q    Type
REMARK                         _______ _______ _______ _____ _____    ______ ____
ROOT
ATOM      1  C   UNL     1       1.992   8.714  18.756  0.00  0.00    +0.000 A 
ATOM      2  C   UNL     1       2.556   9.292  17.591  0.00  0.00    +0.000 A 
ATOM      3  N   UNL     1       3.376   8.455  16.936  0.00  0.00    +0.000 NA
ATOM      4  N   UNL     1       3.343   7.345  17.715  0.00  0.00    +0.000 N 
ATOM      5  C   UNL     1       4.046   6.165  17.453  0.00  0.00    +0.000 A 
ATOM      6  N   UNL     1       4.848   6.134  16.326  0.00  0.00    +0.000 N 
ATOM      7  N   UNL     1       3.899   5.171  18.280  0.00  0.00    +0.000 NA
ATOM      8  C   UNL     1       3.073   5.297  19.381  0.00  0.00    +0.000 A 
ATOM      9  N   UNL     1       2.959   4.215  20.219  0.00  0.00    +0.000 N 
ATOM     10  C   UNL     1       3.729   2.984  20.047  0.00  0.00    +0.000 C 
ATOM     11  C   UNL     1       2.783   1.778  20.122  0.00  0.00    +0.000 C 
ATOM     12  O   UNL     1       2.027   1.773  21.345  0.00  0.00    +0.000 OA
ATOM     13  C   UNL     1       1.245   2.975  21.455  0.00  0.00    +0.000 C 
ATOM     14  C   UNL     1       2.139   4.220  21.438  0.00  0.00    +0.000 C 
ATOM     15  N   UNL     1       2.391   6.387  19.640  0.00  0.00    +0.000 NA
ATOM     16  C   UNL     1       2.523   7.441  18.800  0.00  0.00    +0.000 A 
ATOM     17  H   UNL     1       4.761   6.953  15.722  0.00  0.00    +0.000 HD
ENDROOT
BRANCH   1  24
ATOM     18  O   UNL     1      -2.043  11.914  17.406  0.00  0.00    +0.000 OA
ATOM     19  C   UNL     1      -1.421  11.410  18.325  0.00  0.00    +0.000 C 
ATOM     20  N   UNL     1      -1.736  11.478  19.658  0.00  0.00    +0.000 N 
ATOM     21  C   UNL     1      -0.887  10.712  20.410  0.00  0.00    +0.000 C 
ATOM     22  O   UNL     1      -0.928  10.502  21.606  0.00  0.00    +0.000 OA
ATOM     23  C   UNL     1       0.085  10.146  19.426  0.00  0.00    +0.000 C 
ATOM     24  C   UNL     1       1.094   9.310  19.700  0.00  0.00    +0.000 C 
ATOM     25  N   UNL     1      -0.289  10.634  18.207  0.00  0.00    +0.000 N 
ATOM     26  H   UNL     1      -2.544  11.956  20.014  0.00  0.00    +0.000 HD
ATOM     27  H   UNL     1       0.112  10.336  17.325  0.00  0.00    +0.000 HD
ENDBRANCH   1  24
BRANCH   6  28
ATOM     28  C   UNL     1       5.225   4.841  15.764  0.00  0.00    +0.000 C 
ATOM     29  C   UNL     1       6.009   4.748  14.485  0.00  0.00    +0.000 C 
ATOM     30  C   UNL     1       6.652   4.374  15.788  0.00  0.00    +0.000 C 
ENDBRANCH   6  28
TORSDOF 2
ENDMDL
MODEL 5
REMARK VINA RESULT:      -7.1      6.121      9.033
REMARK  Name = 
REMARK  2 active torsions:
REMARK  status: ('A' for Active; 'I' for Inactive)
REMARK    1  A    between atoms: C_7  and  C_8
REMARK    2  A    between atoms: N_13  and  C_14
REMARK                            x       y       z     vdW  Elec       q    Type
REMARK                         _______ _______ _______ _____ _____    ______ ____
ROOT
ATOM      1  C   UNL     1       1.212   9.226  19.949  0.00  0.00    +0.000 A 
ATOM      2  C   UNL     1       0.415   8.803  21.043  0.00  0.00    +0.000 A 
ATOM      3  N   UNL     1       0.563   7.499  21.325  0.00  0.00    +0.000 NA
ATOM      4  N   UNL     1       1.447   7.095  20.379  0.00  0.00    +0.000 N 
ATOM      5  C   UNL     1       1.934   5.790  20.248  0.00  0.00    +0.000 A 
ATOM      6  N   UNL     1       1.466   4.839  21.137  0.00  0.00    +0.000 N 
ATOM      7  N   UNL     1       2.798   5.555  19.303  0.00  0.00    +0.000 NA
ATOM      8  C   UNL     1       3.207   6.572  18.462  0.00  0.00    +0.000 A 
ATOM      9  N   UNL     1       4.120   6.263  17.484  0.00  0.00    +0.000 N 
ATOM     10  C   UNL     1       4.604   4.905  17.241  0.00  0.00    +0.000 C 
ATOM     11  C   UNL     1       6.137   4.919  17.158  0.00  0.00    +0.000 C 
ATOM     12  O   UNL     1       6.604   5.842  16.161  0.00  0.00    +0.000 OA
ATOM     13  C   UNL     1       6.150   7.174  16.459  0.00  0.00    +0.000 C 
ATOM     14  C   UNL     1       4.619   7.238  16.507  0.00  0.00    +0.000 C 
ATOM     15  N   UNL     1       2.779   7.806  18.576  0.00  0.00    +0.000 NA
ATOM     16  C   UNL     1       1.876   8.086  19.546  0.00  0.00    +0.000 A 
ATOM     17  H   UNL     1       0.883   5.212  21.887  0.00  0.00    +0.000 HD
ENDROOT
BRANCH   1  24
ATOM     18  O   UNL     1      -2.909  11.769  17.737  0.00  0.00    +0.000 OA
ATOM     19  C   UNL     1      -1.713  11.801  17.970  0.00  0.00    +0.000 C 
ATOM     20  N   UNL     1      -0.863  12.851  17.735  0.00  0.00    +0.000 N 
ATOM     21  C   UNL     1       0.393  12.592  18.213  0.00  0.00    +0.000 C 
ATOM     22  O   UNL     1       1.358  13.331  18.226  0.00  0.00    +0.000 OA
ATOM     23  C   UNL     1       0.310  11.206  18.764  0.00  0.00    +0.000 C 
ATOM     24  C   UNL     1       1.299  10.530  19.363  0.00  0.00    +0.000 C 
ATOM     25  N   UNL     1      -0.975  10.795  18.555  0.00  0.00    +0.000 N 
ATOM     26  H   UNL     1      -1.158  13.729  17.346  0.00  0.00    +0.000 HD
ATOM     27  H   UNL     1      -1.368   9.937  18.924  0.00  0.00    +0.000 HD
ENDBRANCH   1  24
BRANCH   6  28
ATOM     28  C   UNL     1       2.246   3.624  21.344  0.00  0.00    +0.000 C 
ATOM     29  C   UNL     1       1.613   2.379  21.901  0.00  0.00    +0.000 C 
ATOM     30  C   UNL     1       2.052   2.421  20.466  0.00  0.00    +0.000 C 
ENDBRANCH   6  28
TORSDOF 2
ENDMDL
MODEL 6
REMARK VINA RESULT:      -7.0      3.851      8.474
REMARK  Name = 
REMARK  2 active torsions:
REMARK  status: ('A' for Active; 'I' for Inactive)
REMARK    1  A    between atoms: C_7  and  C_8
REMARK    2  A    between atoms: N_13  and  C_14
REMARK                            x       y       z     vdW  Elec       q    Type
REMARK                         _______ _______ _______ _____ _____    ______ ____
ROOT
ATOM      1  C   UNL     1       0.641   8.840  21.851  0.00  0.00    +0.000 A 
ATOM      2  C   UNL     1       0.692   9.321  23.183  0.00  0.00    +0.000 A 
ATOM      3  N   UNL     1      -0.064  10.414  23.374  0.00  0.00    +0.000 NA
ATOM      4  N   UNL     1      -0.577  10.633  22.138  0.00  0.00    +0.000 N 
ATOM      5  C   UNL     1      -1.447  11.677  21.810  0.00  0.00    +0.000 A 
ATOM      6  N   UNL     1      -1.797  12.561  22.816  0.00  0.00    +0.000 N 
ATOM      7  N   UNL     1      -1.877  11.749  20.583  0.00  0.00    +0.000 NA
ATOM      8  C   UNL     1      -1.472  10.818  19.647  0.00  0.00    +0.000 A 
ATOM      9  N   UNL     1      -1.958  10.945  18.369  0.00  0.00    +0.000 N 
ATOM     10  C   UNL     1      -2.804  12.059  17.941  0.00  0.00    +0.000 C 
ATOM     11  C   UNL     1      -4.029  11.511  17.197  0.00  0.00    +0.000 C 
ATOM     12  O   UNL     1      -3.646  10.672  16.094  0.00  0.00    +0.000 OA
ATOM     13  C   UNL     1      -2.858   9.561  16.559  0.00  0.00    +0.000 C 
ATOM     14  C   UNL     1      -1.589  10.044  17.270  0.00  0.00    +0.000 C 
ATOM     15  N   UNL     1      -0.670   9.820  19.933  0.00  0.00    +0.000 NA
ATOM     16  C   UNL     1      -0.202   9.718  21.200  0.00  0.00    +0.000 A 
ATOM     17  H   UNL     1      -1.466  12.296  23.745  0.00  0.00    +0.000 HD
ENDROOT
BRANCH   1  24
ATOM     18  O   UNL     1       2.766   8.812  16.969  0.00  0.00    +0.000 OA
ATOM     19  C   UNL     1       2.535   8.158  17.971  0.00  0.00    +0.000 C 
ATOM     20  N   UNL     1       2.965   6.881  18.229  0.00  0.00    +0.000 N 
ATOM     21  C   UNL     1       2.618   6.485  19.492  0.00  0.00    +0.000 C 
ATOM     22  O   UNL     1       2.899   5.445  20.056  0.00  0.00    +0.000 OA
ATOM     23  C   UNL     1       1.850   7.637  20.054  0.00  0.00    +0.000 C 
ATOM     24  C   UNL     1       1.325   7.717  21.283  0.00  0.00    +0.000 C 
ATOM     25  N   UNL     1       1.824   8.584  19.071  0.00  0.00    +0.000 N 
ATOM     26  H   UNL     1       3.541   6.351  17.600  0.00  0.00    +0.000 HD
ATOM     27  H   UNL     1       1.471   9.527  19.195  0.00  0.00    +0.000 HD
ENDBRANCH   1  24
BRANCH   6  28
ATOM     28  C   UNL     1      -3.009  13.358  22.664  0.00  0.00    +0.000 C 
ATOM     29  C   UNL     1      -4.118  13.287  23.676  0.00  0.00    +0.000 C 
ATOM     30  C   UNL     1      -3.282  14.529  23.564  0.00  0.00    +0.000 C 
ENDBRANCH   6  28
TORSDOF 2
ENDMDL
MODEL 7
REMARK VINA RESULT:      -7.0      5.221      8.993
REMARK  Name = 
REMARK  2 active torsions:
REMARK  status: ('A' for Active; 'I' for Inactive)
REMARK    1  A    between atoms: C_7  and  C_8
REMARK    2  A    between atoms: N_13  and  C_14
REMARK                            x       y       z     vdW  Elec       q    Type
REMARK                         _______ _______ _______ _____ _____    ______ ____
ROOT
ATOM      1  C   UNL     1       0.912   8.702  20.730  0.00  0.00    +0.000 A 
ATOM      2  C   UNL     1      -0.046   8.066  21.559  0.00  0.00    +0.000 A 
ATOM      3  N   UNL     1      -0.789   8.935  22.261  0.00  0.00    +0.000 NA
ATOM      4  N   UNL     1      -0.274  10.131  21.884  0.00  0.00    +0.000 N 
ATOM      5  C   UNL     1      -0.720  11.374  22.347  0.00  0.00    +0.000 A 
ATOM      6  N   UNL     1      -1.751  11.382  23.269  0.00  0.00    +0.000 N 
ATOM      7  N   UNL     1      -0.142  12.441  21.877  0.00  0.00    +0.000 NA
ATOM      8  C   UNL     1       0.882  12.333  20.956  0.00  0.00    +0.000 A 
ATOM      9  N   UNL     1       1.454  13.494  20.498  0.00  0.00    +0.000 N 
ATOM     10  C   UNL     1       1.091  14.818  21.002  0.00  0.00    +0.000 C 
ATOM     11  C   UNL     1       0.820  15.756  19.817  0.00  0.00    +0.000 C 
ATOM     12  O   UNL     1       1.940  15.811  18.918  0.00  0.00    +0.000 OA
ATOM     13  C   UNL     1       2.236  14.500  18.405  0.00  0.00    +0.000 C 
ATOM     14  C   UNL     1       2.567  13.524  19.540  0.00  0.00    +0.000 C 
ATOM     15  N   UNL     1       1.307  11.181  20.495  0.00  0.00    +0.000 NA
ATOM     16  C   UNL     1       0.729  10.049  20.964  0.00  0.00    +0.000 A 
ATOM     17  H   UNL     1      -2.169  10.467  23.444  0.00  0.00    +0.000 HD
ENDROOT
BRANCH   1  24
ATOM     18  O   UNL     1       2.471   3.624  21.093  0.00  0.00    +0.000 OA
ATOM     19  C   UNL     1       2.630   4.688  20.521  0.00  0.00    +0.000 C 
ATOM     20  N   UNL     1       3.429   4.917  19.430  0.00  0.00    +0.000 N 
ATOM     21  C   UNL     1       3.293   6.200  18.973  0.00  0.00    +0.000 C 
ATOM     22  O   UNL     1       3.805   6.705  17.993  0.00  0.00    +0.000 OA
ATOM     23  C   UNL     1       2.334   6.840  19.923  0.00  0.00    +0.000 C 
ATOM     24  C   UNL     1       1.878   8.098  19.861  0.00  0.00    +0.000 C 
ATOM     25  N   UNL     1       2.007   5.877  20.833  0.00  0.00    +0.000 N 
ATOM     26  H   UNL     1       3.968   4.201  18.975  0.00  0.00    +0.000 HD
ATOM     27  H   UNL     1       1.286   5.978  21.538  0.00  0.00    +0.000 HD
ENDBRANCH   1  24
BRANCH   6  28
ATOM     28  C   UNL     1      -2.541  12.597  23.432  0.00  0.00    +0.000 C 
ATOM     29  C   UNL     1      -3.860  12.766  22.732  0.00  0.00    +0.000 C 
ATOM     30  C   UNL     1      -3.819  12.588  24.222  0.00  0.00    +0.000 C 
ENDBRANCH   6  28
TORSDOF 2
ENDMDL
MODEL 8
REMARK VINA RESULT:      -6.9      6.546      8.992
REMARK  Name = 
REMARK  2 active torsions:
REMARK  status: ('A' for Active; 'I' for Inactive)
REMARK    1  A    between atoms: C_7  and  C_8
REMARK    2  A    between atoms: N_13  and  C_14
REMARK                            x       y       z     vdW  Elec       q    Type
REMARK                         _______ _______ _______ _____ _____    ______ ____
ROOT
ATOM      1  C   UNL     1       1.737   8.912  19.029  0.00  0.00    +0.000 A 
ATOM      2  C   UNL     1       2.248   9.570  17.882  0.00  0.00    +0.000 A 
ATOM      3  N   UNL     1       3.094   8.805  17.174  0.00  0.00    +0.000 NA
ATOM      4  N   UNL     1       3.131   7.661  17.901  0.00  0.00    +0.000 N 
ATOM      5  C   UNL     1       3.885   6.530  17.571  0.00  0.00    +0.000 A 
ATOM      6  N   UNL     1       4.664   6.590  16.429  0.00  0.00    +0.000 N 
ATOM      7  N   UNL     1       3.802   5.493  18.354  0.00  0.00    +0.000 NA
ATOM      8  C   UNL     1       2.994   5.528  19.474  0.00  0.00    +0.000 A 
ATOM      9  N   UNL     1       2.949   4.404  20.262  0.00  0.00    +0.000 N 
ATOM     10  C   UNL     1       3.774   3.222  20.019  0.00  0.00    +0.000 C 
ATOM     11  C   UNL     1       2.889   1.968  20.054  0.00  0.00    +0.000 C 
ATOM     12  O   UNL     1       2.159   1.870  21.288  0.00  0.00    +0.000 OA
ATOM     13  C   UNL     1       1.322   3.026  21.470  0.00  0.00    +0.000 C 
ATOM     14  C   UNL     1       2.155   4.312  21.494  0.00  0.00    +0.000 C 
ATOM     15  N   UNL     1       2.265   6.569  19.796  0.00  0.00    +0.000 NA
ATOM     16  C   UNL     1       2.330   7.666  19.004  0.00  0.00    +0.000 A 
ATOM     17  H   UNL     1       4.525   7.431  15.867  0.00  0.00    +0.000 HD
ENDROOT
BRANCH   1  24
ATOM     18  O   UNL     1       1.455  14.036  20.448  0.00  0.00    +0.000 OA
ATOM     19  C   UNL     1       1.041  12.908  20.657  0.00  0.00    +0.000 C 
ATOM     20  N   UNL     1       0.024  12.556  21.507  0.00  0.00    +0.000 N 
ATOM     21  C   UNL     1      -0.256  11.219  21.421  0.00  0.00    +0.000 C 
ATOM     22  O   UNL     1      -1.136  10.599  21.987  0.00  0.00    +0.000 OA
ATOM     23  C   UNL     1       0.735  10.687  20.439  0.00  0.00    +0.000 C 
ATOM     24  C   UNL     1       0.831   9.419  20.016  0.00  0.00    +0.000 C 
ATOM     25  N   UNL     1       1.490  11.756  20.051  0.00  0.00    +0.000 N 
ATOM     26  H   UNL     1      -0.504  13.219  22.047  0.00  0.00    +0.000 HD
ATOM     27  H   UNL     1       2.174  11.731  19.302  0.00  0.00    +0.000 HD
ENDBRANCH   1  24
BRANCH   6  28
ATOM     28  C   UNL     1       5.091   5.345  15.801  0.00  0.00    +0.000 C 
ATOM     29  C   UNL     1       6.017   5.348  14.617  0.00  0.00    +0.000 C 
ATOM     30  C   UNL     1       6.501   4.849  15.947  0.00  0.00    +0.000 C 
ENDBRANCH   6  28
TORSDOF 2
ENDMDL
MODEL 9
REMARK VINA RESULT:      -6.9      3.946      5.214
REMARK  Name = 
REMARK  2 active torsions:
REMARK  status: ('A' for Active; 'I' for Inactive)
REMARK    1  A    between atoms: C_7  and  C_8
REMARK    2  A    between atoms: N_13  and  C_14
REMARK                            x       y       z     vdW  Elec       q    Type
REMARK                         _______ _______ _______ _____ _____    ______ ____
ROOT
ATOM      1  C   UNL     1      -1.100  11.864  22.854  0.00  0.00    +0.000 A 
ATOM      2  C   UNL     1      -1.217  10.471  23.091  0.00  0.00    +0.000 A 
ATOM      3  N   UNL     1      -0.544   9.731  22.195  0.00  0.00    +0.000 NA
ATOM      4  N   UNL     1      -0.019  10.672  21.374  0.00  0.00    +0.000 N 
ATOM      5  C   UNL     1       0.784  10.402  20.260  0.00  0.00    +0.000 A 
ATOM      6  N   UNL     1       1.045   9.076  19.966  0.00  0.00    +0.000 N 
ATOM      7  N   UNL     1       1.237  11.413  19.576  0.00  0.00    +0.000 NA
ATOM      8  C   UNL     1       0.921  12.705  19.949  0.00  0.00    +0.000 A 
ATOM      9  N   UNL     1       1.427  13.730  19.187  0.00  0.00    +0.000 N 
ATOM     10  C   UNL     1       2.202  13.513  17.966  0.00  0.00    +0.000 C 
ATOM     11  C   UNL     1       3.480  14.361  18.018  0.00  0.00    +0.000 C 
ATOM     12  O   UNL     1       3.185  15.752  18.228  0.00  0.00    +0.000 OA
ATOM     13  C   UNL     1       2.466  15.932  19.462  0.00  0.00    +0.000 C 
ATOM     14  C   UNL     1       1.149  15.147  19.453  0.00  0.00    +0.000 C 
ATOM     15  N   UNL     1       0.185  12.985  20.997  0.00  0.00    +0.000 NA
ATOM     16  C   UNL     1      -0.305  11.957  21.730  0.00  0.00    +0.000 A 
ATOM     17  H   UNL     1       0.712   8.413  20.668  0.00  0.00    +0.000 HD
ENDROOT
BRANCH   1  24
ATOM     18  O   UNL     1      -6.340  12.435  23.606  0.00  0.00    +0.000 OA
ATOM     19  C   UNL     1      -5.237  12.924  23.784  0.00  0.00    +0.000 C 
ATOM     20  N   UNL     1      -4.950  14.042  24.524  0.00  0.00    +0.000 N 
ATOM     21  C   UNL     1      -3.599  14.252  24.606  0.00  0.00    +0.000 C 
ATOM     22  O   UNL     1      -3.010  15.110  25.234  0.00  0.00    +0.000 OA
ATOM     23  C   UNL     1      -2.996  13.159  23.784  0.00  0.00    +0.000 C 
ATOM     24  C   UNL     1      -1.689  12.943  23.589  0.00  0.00    +0.000 C 
ATOM     25  N   UNL     1      -4.044  12.426  23.307  0.00  0.00    +0.000 N 
ATOM     26  H   UNL     1      -5.643  14.577  25.016  0.00  0.00    +0.000 HD
ATOM     27  H   UNL     1      -3.948  11.549  22.809  0.00  0.00    +0.000 HD
ENDBRANCH   1  24
BRANCH   6  28
ATOM     28  C   UNL     1       2.202   8.753  19.137  0.00  0.00    +0.000 C 
ATOM     29  C   UNL     1       2.443   7.351  18.650  0.00  0.00    +0.000 C 
ATOM     30  C   UNL     1       2.042   8.425  17.680  0.00  0.00    +0.000 C 
ENDBRANCH   6  28
TORSDOF 2
ENDMDL
