MODEL 1
REMARK VINA RESULT:      -7.9      0.000      0.000
REMARK  Name = 
REMARK  8 active torsions:
REMARK  status: ('A' for Active; 'I' for Inactive)
REMARK    1  A    between atoms: C_1  and  C_2
REMARK    2  A    between atoms: C_2  and  C_3
REMARK    3  A    between atoms: C_3  and  C_4
REMARK    4  A    between atoms: C_4  and  O_5
REMARK    5  A    between atoms: O_5  and  C_6
REMARK    6  A    between atoms: N_8  and  C_9
REMARK    7  A    between atoms: C_13  and  C_14
REMARK    8  A    between atoms: C_23  and  N_24
REMARK                            x       y       z     vdW  Elec       q    Type
REMARK                         _______ _______ _______ _____ _____    ______ ____
ROOT
ATOM      1  C   UNL     1       2.741   6.519  18.468  0.00  0.00    +0.000 A 
ATOM      2  C   UNL     1       2.547   7.874  18.151  0.00  0.00    +0.000 A 
ATOM      3  C   UNL     1       1.839   8.677  19.054  0.00  0.00    +0.000 A 
ATOM      4  N   UNL     1       1.490  10.008  18.984  0.00  0.00    +0.000 NA
ATOM      5  C   UNL     1       0.843  10.276  20.101  0.00  0.00    +0.000 A 
ATOM      6  N   UNL     1       0.768   9.150  20.889  0.00  0.00    +0.000 N 
ATOM      7  C   UNL     1       1.388   8.116  20.236  0.00  0.00    +0.000 A 
ATOM      8  C   UNL     1       1.585   6.776  20.588  0.00  0.00    +0.000 A 
ATOM      9  C   UNL     1       2.268   5.942  19.682  0.00  0.00    +0.000 A 
ATOM     10  H   UNL     1       0.331   9.093  21.794  0.00  0.00    +0.000 HD
ENDROOT
BRANCH   5  11
ATOM     11  C   UNL     1       0.245  11.584  20.548  0.00  0.00    +0.000 C 
ATOM     12  C   UNL     1       1.096  12.785  20.116  0.00  0.00    +0.000 C 
ATOM     13  C   UNL     1       0.964  13.121  18.633  0.00  0.00    +0.000 C 
ATOM     14  C   UNL     1      -0.491  13.264  18.196  0.00  0.00    +0.000 C 
ATOM     15  C   UNL     1      -1.352  12.073  18.611  0.00  0.00    +0.000 C 
ATOM     16  C   UNL     1      -1.212  11.746  20.095  0.00  0.00    +0.000 C 
ENDBRANCH   5  11
BRANCH   9  17
ATOM     17  N   UNL     1       2.538   4.581  19.965  0.00  0.00    +0.000 N 
ATOM     18  C   UNL     1       1.870   3.503  19.218  0.00  0.00    +0.000 C 
ATOM     19  C   UNL     1       1.041   2.760  20.258  0.00  0.00    +0.000 C 
ATOM     20  C   UNL     1       1.890   2.865  21.507  0.00  0.00    +0.000 C 
ATOM     21  C   UNL     1       2.500   4.258  21.414  0.00  0.00    +0.000 C 
ENDBRANCH   9  17
BRANCH   1  24
ATOM     22  C   UNL     1       4.686   5.567  17.249  0.00  0.00    +0.000 C 
ATOM     23  O   UNL     1       5.595   6.246  17.699  0.00  0.00    +0.000 OA
ATOM     24  N   UNL     1       3.365   5.640  17.562  0.00  0.00    +0.000 N 
ATOM     25  H   UNL     1       2.777   4.899  17.205  0.00  0.00    +0.000 HD
BRANCH  22  26
ATOM     26  O   UNL     1       4.850   4.589  16.318  0.00  0.00    +0.000 OA
BRANCH  26  27
ATOM     27  C   UNL     1       6.214   4.236  16.078  0.00  0.00    +0.000 C 
BRANCH  27  28
ATOM     28  C   UNL     1       6.698   4.632  14.689  0.00  0.00    +0.000 C 
BRANCH  28  30
ATOM     29  C   UNL     1       6.610   3.756  12.298  0.00  0.00    +0.000 C 
ATOM     30  C   UNL     1       5.930   3.808  13.652  0.00  0.00    +0.000 C 
ENDBRANCH  28  30
ENDBRANCH  27  28
ENDBRANCH  26  27
ENDBRANCH  22  26
ENDBRANCH   1  24
TORSDOF 7
ENDMDL
MODEL 2
REMARK VINA RESULT:      -7.8      2.228      4.225
REMARK  Name = 
REMARK  8 active torsions:
REMARK  status: ('A' for Active; 'I' for Inactive)
REMARK    1  A    between atoms: C_1  and  C_2
REMARK    2  A    between atoms: C_2  and  C_3
REMARK    3  A    between atoms: C_3  and  C_4
REMARK    4  A    between atoms: C_4  and  O_5
REMARK    5  A    between atoms: O_5  and  C_6
REMARK    6  A    between atoms: N_8  and  C_9
REMARK    7  A    between atoms: C_13  and  C_14
REMARK    8  A    between atoms: C_23  and  N_24
REMARK                            x       y       z     vdW  Elec       q    Type
REMARK                         _______ _______ _______ _____ _____    ______ ____
ROOT
ATOM      1  C   UNL     1       2.339   6.923  19.899  0.00  0.00    +0.000 A 
ATOM      2  C   UNL     1       1.429   7.897  20.348  0.00  0.00    +0.000 A 
ATOM      3  C   UNL     1       1.243   9.046  19.569  0.00  0.00    +0.000 A 
ATOM      4  N   UNL     1       0.446  10.149  19.780  0.00  0.00    +0.000 NA
ATOM      5  C   UNL     1       0.627  10.936  18.737  0.00  0.00    +0.000 A 
ATOM      6  N   UNL     1       1.521  10.365  17.860  0.00  0.00    +0.000 N 
ATOM      7  C   UNL     1       1.935   9.164  18.375  0.00  0.00    +0.000 A 
ATOM      8  C   UNL     1       2.830   8.202  17.894  0.00  0.00    +0.000 A 
ATOM      9  C   UNL     1       3.056   7.053  18.675  0.00  0.00    +0.000 A 
ATOM     10  H   UNL     1       1.822  10.763  16.986  0.00  0.00    +0.000 HD
ENDROOT
BRANCH   5  11
ATOM     11  C   UNL     1      -0.007  12.272  18.449  0.00  0.00    +0.000 C 
ATOM     12  C   UNL     1      -1.455  12.130  17.963  0.00  0.00    +0.000 C 
ATOM     13  C   UNL     1      -2.441  11.795  19.080  0.00  0.00    +0.000 C 
ATOM     14  C   UNL     1      -2.325  12.751  20.264  0.00  0.00    +0.000 C 
ATOM     15  C   UNL     1      -0.891  12.898  20.766  0.00  0.00    +0.000 C 
ATOM     16  C   UNL     1       0.086  13.232  19.641  0.00  0.00    +0.000 C 
ENDBRANCH   5  11
BRANCH   9  17
ATOM     17  N   UNL     1       3.921   6.014  18.256  0.00  0.00    +0.000 N 
ATOM     18  C   UNL     1       5.228   6.313  17.647  0.00  0.00    +0.000 C 
ATOM     19  C   UNL     1       5.135   5.767  16.228  0.00  0.00    +0.000 C 
ATOM     20  C   UNL     1       4.255   4.545  16.391  0.00  0.00    +0.000 C 
ATOM     21  C   UNL     1       3.244   4.966  17.448  0.00  0.00    +0.000 C 
ENDBRANCH   9  17
BRANCH   1  24
ATOM     22  C   UNL     1       1.864   4.689  20.879  0.00  0.00    +0.000 C 
ATOM     23  O   UNL     1       0.759   4.463  20.412  0.00  0.00    +0.000 OA
ATOM     24  N   UNL     1       2.637   5.790  20.680  0.00  0.00    +0.000 N 
ATOM     25  H   UNL     1       3.587   5.740  21.024  0.00  0.00    +0.000 HD
BRANCH  22  26
ATOM     26  O   UNL     1       2.529   3.846  21.713  0.00  0.00    +0.000 OA
BRANCH  26  27
ATOM     27  C   UNL     1       2.771   2.551  21.161  0.00  0.00    +0.000 C 
BRANCH  27  28
ATOM     28  C   UNL     1       4.002   2.504  20.264  0.00  0.00    +0.000 C 
BRANCH  28  30
ATOM     29  C   UNL     1       2.120   1.768  18.711  0.00  0.00    +0.000 C 
ATOM     30  C   UNL     1       3.617   1.832  18.943  0.00  0.00    +0.000 C 
ENDBRANCH  28  30
ENDBRANCH  27  28
ENDBRANCH  26  27
ENDBRANCH  22  26
ENDBRANCH   1  24
TORSDOF 7
ENDMDL
MODEL 3
REMARK VINA RESULT:      -7.8      3.299      8.894
REMARK  Name = 
REMARK  8 active torsions:
REMARK  status: ('A' for Active; 'I' for Inactive)
REMARK    1  A    between atoms: C_1  and  C_2
REMARK    2  A    between atoms: C_2  and  C_3
REMARK    3  A    between atoms: C_3  and  C_4
REMARK    4  A    between atoms: C_4  and  O_5
REMARK    5  A    between atoms: O_5  and  C_6
REMARK    6  A    between atoms: N_8  and  C_9
REMARK    7  A    between atoms: C_13  and  C_14
REMARK    8  A    between atoms: C_23  and  N_24
REMARK                            x       y       z     vdW  Elec       q    Type
REMARK                         _______ _______ _______ _____ _____    ______ ____
ROOT
ATOM      1  C   UNL     1       0.771   9.167  20.581  0.00  0.00    +0.000 A 
ATOM      2  C   UNL     1       1.519   7.977  20.623  0.00  0.00    +0.000 A 
ATOM      3  C   UNL     1       2.217   7.586  19.474  0.00  0.00    +0.000 A 
ATOM      4  N   UNL     1       2.994   6.475  19.235  0.00  0.00    +0.000 NA
ATOM      5  C   UNL     1       3.433   6.595  17.997  0.00  0.00    +0.000 A 
ATOM      6  N   UNL     1       2.957   7.757  17.434  0.00  0.00    +0.000 N 
ATOM      7  C   UNL     1       2.171   8.400  18.354  0.00  0.00    +0.000 A 
ATOM      8  C   UNL     1       1.453   9.599  18.291  0.00  0.00    +0.000 A 
ATOM      9  C   UNL     1       0.719   9.997  19.425  0.00  0.00    +0.000 A 
ATOM     10  H   UNL     1       3.152   8.081  16.502  0.00  0.00    +0.000 HD
ENDROOT
BRANCH   5  11
ATOM     11  C   UNL     1       4.330   5.663  17.226  0.00  0.00    +0.000 C 
ATOM     12  C   UNL     1       5.364   6.422  16.384  0.00  0.00    +0.000 C 
ATOM     13  C   UNL     1       6.511   7.002  17.206  0.00  0.00    +0.000 C 
ATOM     14  C   UNL     1       7.164   5.959  18.109  0.00  0.00    +0.000 C 
ATOM     15  C   UNL     1       6.151   5.199  18.961  0.00  0.00    +0.000 C 
ATOM     16  C   UNL     1       5.008   4.624  18.128  0.00  0.00    +0.000 C 
ENDBRANCH   5  11
BRANCH   9  17
ATOM     17  N   UNL     1      -0.014  11.208  19.463  0.00  0.00    +0.000 N 
ATOM     18  C   UNL     1      -1.437  11.247  19.086  0.00  0.00    +0.000 C 
ATOM     19  C   UNL     1      -1.493  12.144  17.856  0.00  0.00    +0.000 C 
ATOM     20  C   UNL     1      -0.402  13.159  18.126  0.00  0.00    +0.000 C 
ATOM     21  C   UNL     1       0.687  12.346  18.813  0.00  0.00    +0.000 C 
ENDBRANCH   9  17
BRANCH   1  24
ATOM     22  C   UNL     1       0.356   9.711  22.970  0.00  0.00    +0.000 C 
ATOM     23  O   UNL     1       1.466   9.528  23.445  0.00  0.00    +0.000 OA
ATOM     24  N   UNL     1      -0.024   9.567  21.673  0.00  0.00    +0.000 N 
ATOM     25  H   UNL     1      -0.946   9.907  21.435  0.00  0.00    +0.000 HD
BRANCH  22  26
ATOM     26  O   UNL     1      -0.730  10.099  23.692  0.00  0.00    +0.000 OA
BRANCH  26  27
ATOM     27  C   UNL     1      -1.613  10.975  22.989  0.00  0.00    +0.000 C 
BRANCH  27  28
ATOM     28  C   UNL     1      -1.225  12.443  23.115  0.00  0.00    +0.000 C 
BRANCH  28  30
ATOM     29  C   UNL     1      -3.343  12.978  21.803  0.00  0.00    +0.000 C 
ATOM     30  C   UNL     1      -2.495  13.293  23.020  0.00  0.00    +0.000 C 
ENDBRANCH  28  30
ENDBRANCH  27  28
ENDBRANCH  26  27
ENDBRANCH  22  26
ENDBRANCH   1  24
TORSDOF 7
ENDMDL
MODEL 4
REMARK VINA RESULT:      -7.8      1.555      1.844
REMARK  Name = 
REMARK  8 active torsions:
REMARK  status: ('A' for Active; 'I' for Inactive)
REMARK    1  A    between atoms: C_1  and  C_2
REMARK    2  A    between atoms: C_2  and  C_3
REMARK    3  A    between atoms: C_3  and  C_4
REMARK    4  A    between atoms: C_4  and  O_5
REMARK    5  A    between atoms: O_5  and  C_6
REMARK    6  A    between atoms: N_8  and  C_9
REMARK    7  A    between atoms: C_13  and  C_14
REMARK    8  A    between atoms: C_23  and  N_24
REMARK                            x       y       z     vdW  Elec       q    Type
REMARK                         _______ _______ _______ _____ _____    ______ ____
ROOT
ATOM      1  C   UNL     1       4.053   6.455  17.343  0.00  0.00    +0.000 A 
ATOM      2  C   UNL     1       3.560   7.772  17.363  0.00  0.00    +0.000 A 
ATOM      3  C   UNL     1       2.650   8.129  18.365  0.00  0.00    +0.000 A 
ATOM      4  N   UNL     1       2.002   9.322  18.601  0.00  0.00    +0.000 NA
ATOM      5  C   UNL     1       1.267   9.132  19.679  0.00  0.00    +0.000 A 
ATOM      6  N   UNL     1       1.426   7.846  20.143  0.00  0.00    +0.000 N 
ATOM      7  C   UNL     1       2.295   7.185  19.314  0.00  0.00    +0.000 A 
ATOM      8  C   UNL     1       2.786   5.875  19.331  0.00  0.00    +0.000 A 
ATOM      9  C   UNL     1       3.679   5.484  18.316  0.00  0.00    +0.000 A 
ATOM     10  H   UNL     1       0.979   7.454  20.955  0.00  0.00    +0.000 HD
ENDROOT
BRANCH   5  11
ATOM     11  C   UNL     1       0.363  10.110  20.382  0.00  0.00    +0.000 C 
ATOM     12  C   UNL     1       1.056  11.456  20.636  0.00  0.00    +0.000 C 
ATOM     13  C   UNL     1       1.180  12.322  19.385  0.00  0.00    +0.000 C 
ATOM     14  C   UNL     1      -0.152  12.491  18.661  0.00  0.00    +0.000 C 
ATOM     15  C   UNL     1      -0.853  11.161  18.392  0.00  0.00    +0.000 C 
ATOM     16  C   UNL     1      -0.971  10.304  19.650  0.00  0.00    +0.000 C 
ENDBRANCH   5  11
BRANCH   9  17
ATOM     17  N   UNL     1       4.248   4.189  18.268  0.00  0.00    +0.000 N 
ATOM     18  C   UNL     1       3.595   3.098  17.525  0.00  0.00    +0.000 C 
ATOM     19  C   UNL     1       3.230   2.066  18.584  0.00  0.00    +0.000 C 
ATOM     20  C   UNL     1       4.363   2.187  19.581  0.00  0.00    +0.000 C 
ATOM     21  C   UNL     1       4.672   3.678  19.598  0.00  0.00    +0.000 C 
ENDBRANCH   9  17
BRANCH   1  24
ATOM     22  C   UNL     1       6.259   5.993  16.297  0.00  0.00    +0.000 C 
ATOM     23  O   UNL     1       7.016   6.355  17.184  0.00  0.00    +0.000 OA
ATOM     24  N   UNL     1       4.900   6.010  16.310  0.00  0.00    +0.000 N 
ATOM     25  H   UNL     1       4.438   5.532  15.548  0.00  0.00    +0.000 HD
BRANCH  22  26
ATOM     26  O   UNL     1       6.668   5.498  15.098  0.00  0.00    +0.000 OA
BRANCH  26  27
ATOM     27  C   UNL     1       6.346   4.121  14.896  0.00  0.00    +0.000 C 
BRANCH  27  28
ATOM     28  C   UNL     1       5.456   3.887  13.681  0.00  0.00    +0.000 C 
BRANCH  28  30
ATOM     29  C   UNL     1       5.629   2.458  11.578  0.00  0.00    +0.000 C 
ATOM     30  C   UNL     1       6.334   3.416  12.518  0.00  0.00    +0.000 C 
ENDBRANCH  28  30
ENDBRANCH  27  28
ENDBRANCH  26  27
ENDBRANCH  22  26
ENDBRANCH   1  24
TORSDOF 7
ENDMDL
MODEL 5
REMARK VINA RESULT:      -7.7      0.872      1.529
REMARK  Name = 
REMARK  8 active torsions:
REMARK  status: ('A' for Active; 'I' for Inactive)
REMARK    1  A    between atoms: C_1  and  C_2
REMARK    2  A    between atoms: C_2  and  C_3
REMARK    3  A    between atoms: C_3  and  C_4
REMARK    4  A    between atoms: C_4  and  O_5
REMARK    5  A    between atoms: O_5  and  C_6
REMARK    6  A    between atoms: N_8  and  C_9
REMARK    7  A    between atoms: C_13  and  C_14
REMARK    8  A    between atoms: C_23  and  N_24
REMARK                            x       y       z     vdW  Elec       q    Type
REMARK                         _______ _______ _______ _____ _____    ______ ____
ROOT
ATOM      1  C   UNL     1       3.348   6.427  18.042  0.00  0.00    +0.000 A 
ATOM      2  C   UNL     1       3.323   7.731  17.518  0.00  0.00    +0.000 A 
ATOM      3  C   UNL     1       2.492   8.679  18.128  0.00  0.00    +0.000 A 
ATOM      4  N   UNL     1       2.260  10.000  17.811  0.00  0.00    +0.000 NA
ATOM      5  C   UNL     1       1.403  10.446  18.710  0.00  0.00    +0.000 A 
ATOM      6  N   UNL     1       1.079   9.445  19.597  0.00  0.00    +0.000 N 
ATOM      7  C   UNL     1       1.754   8.306  19.239  0.00  0.00    +0.000 A 
ATOM      8  C   UNL     1       1.776   7.022  19.793  0.00  0.00    +0.000 A 
ATOM      9  C   UNL     1       2.581   6.044  19.180  0.00  0.00    +0.000 A 
ATOM     10  H   UNL     1       0.452   9.532  20.378  0.00  0.00    +0.000 HD
ENDROOT
BRANCH   5  11
ATOM     11  C   UNL     1       0.814  11.826  18.839  0.00  0.00    +0.000 C 
ATOM     12  C   UNL     1      -0.664  11.863  18.431  0.00  0.00    +0.000 C 
ATOM     13  C   UNL     1      -1.599  11.261  19.476  0.00  0.00    +0.000 C 
ATOM     14  C   UNL     1      -1.375  11.850  20.865  0.00  0.00    +0.000 C 
ATOM     15  C   UNL     1       0.090  11.814  21.293  0.00  0.00    +0.000 C 
ATOM     16  C   UNL     1       1.017  12.418  20.240  0.00  0.00    +0.000 C 
ENDBRANCH   5  11
BRANCH   9  17
ATOM     17  N   UNL     1       2.688   4.727  19.687  0.00  0.00    +0.000 N 
ATOM     18  C   UNL     1       2.041   3.595  19.003  0.00  0.00    +0.000 C 
ATOM     19  C   UNL     1       1.010   3.074  19.996  0.00  0.00    +0.000 C 
ATOM     20  C   UNL     1       1.678   3.309  21.334  0.00  0.00    +0.000 C 
ATOM     21  C   UNL     1       2.414   4.628  21.144  0.00  0.00    +0.000 C 
ENDBRANCH   9  17
BRANCH   1  24
ATOM     22  C   UNL     1       5.424   5.153  17.544  0.00  0.00    +0.000 C 
ATOM     23  O   UNL     1       6.235   5.759  18.226  0.00  0.00    +0.000 OA
ATOM     24  N   UNL     1       4.093   5.406  17.420  0.00  0.00    +0.000 N 
ATOM     25  H   UNL     1       3.548   4.710  16.930  0.00  0.00    +0.000 HD
BRANCH  22  26
ATOM     26  O   UNL     1       5.730   4.086  16.758  0.00  0.00    +0.000 OA
BRANCH  26  27
ATOM     27  C   UNL     1       6.379   4.433  15.533  0.00  0.00    +0.000 C 
BRANCH  27  28
ATOM     28  C   UNL     1       5.471   4.300  14.317  0.00  0.00    +0.000 C 
BRANCH  28  30
ATOM     29  C   UNL     1       5.421   3.218  12.010  0.00  0.00    +0.000 C 
ATOM     30  C   UNL     1       6.278   3.681  13.172  0.00  0.00    +0.000 C 
ENDBRANCH  28  30
ENDBRANCH  27  28
ENDBRANCH  26  27
ENDBRANCH  22  26
ENDBRANCH   1  24
TORSDOF 7
ENDMDL
MODEL 6
REMARK VINA RESULT:      -7.7      1.887      2.562
REMARK  Name = 
REMARK  8 active torsions:
REMARK  status: ('A' for Active; 'I' for Inactive)
REMARK    1  A    between atoms: C_1  and  C_2
REMARK    2  A    between atoms: C_2  and  C_3
REMARK    3  A    between atoms: C_3  and  C_4
REMARK    4  A    between atoms: C_4  and  O_5
REMARK    5  A    between atoms: O_5  and  C_6
REMARK    6  A    between atoms: N_8  and  C_9
REMARK    7  A    between atoms: C_13  and  C_14
REMARK    8  A    between atoms: C_23  and  N_24
REMARK                            x       y       z     vdW  Elec       q    Type
REMARK                         _______ _______ _______ _____ _____    ______ ____
ROOT
ATOM      1  C   UNL     1       4.424   5.878  16.862  0.00  0.00    +0.000 A 
ATOM      2  C   UNL     1       4.217   7.255  16.669  0.00  0.00    +0.000 A 
ATOM      3  C   UNL     1       3.325   7.921  17.518  0.00  0.00    +0.000 A 
ATOM      4  N   UNL     1       2.924   9.239  17.537  0.00  0.00    +0.000 NA
ATOM      5  C   UNL     1       2.083   9.351  18.547  0.00  0.00    +0.000 A 
ATOM      6  N   UNL     1       1.934   8.137  19.179  0.00  0.00    +0.000 N 
ATOM      7  C   UNL     1       2.709   7.209  18.534  0.00  0.00    +0.000 A 
ATOM      8  C   UNL     1       2.913   5.844  18.762  0.00  0.00    +0.000 A 
ATOM      9  C   UNL     1       3.782   5.146  17.902  0.00  0.00    +0.000 A 
ATOM     10  H   UNL     1       1.353   7.959  19.981  0.00  0.00    +0.000 HD
ENDROOT
BRANCH   5  11
ATOM     11  C   UNL     1       1.351  10.576  19.027  0.00  0.00    +0.000 C 
ATOM     12  C   UNL     1       0.266  11.024  18.038  0.00  0.00    +0.000 C 
ATOM     13  C   UNL     1      -0.983  10.148  18.067  0.00  0.00    +0.000 C 
ATOM     14  C   UNL     1      -1.535   9.969  19.478  0.00  0.00    +0.000 C 
ATOM     15  C   UNL     1      -0.471   9.516  20.475  0.00  0.00    +0.000 C 
ATOM     16  C   UNL     1       0.774  10.399  20.437  0.00  0.00    +0.000 C 
ENDBRANCH   5  11
BRANCH   9  17
ATOM     17  N   UNL     1       4.072   3.771  18.074  0.00  0.00    +0.000 N 
ATOM     18  C   UNL     1       3.085   2.737  17.719  0.00  0.00    +0.000 C 
ATOM     19  C   UNL     1       2.751   2.045  19.035  0.00  0.00    +0.000 C 
ATOM     20  C   UNL     1       4.064   2.095  19.788  0.00  0.00    +0.000 C 
ATOM     21  C   UNL     1       4.649   3.448  19.404  0.00  0.00    +0.000 C 
ENDBRANCH   9  17
BRANCH   1  24
ATOM     22  C   UNL     1       6.573   5.273  15.770  0.00  0.00    +0.000 C 
ATOM     23  O   UNL     1       7.333   6.070  16.299  0.00  0.00    +0.000 OA
ATOM     24  N   UNL     1       5.238   5.134  15.986  0.00  0.00    +0.000 N 
ATOM     25  H   UNL     1       4.799   4.323  15.572  0.00  0.00    +0.000 HD
BRANCH  22  26
ATOM     26  O   UNL     1       6.951   4.362  14.834  0.00  0.00    +0.000 OA
BRANCH  26  27
ATOM     27  C   UNL     1       5.895   3.951  13.963  0.00  0.00    +0.000 C 
BRANCH  27  28
ATOM     28  C   UNL     1       6.360   3.713  12.531  0.00  0.00    +0.000 C 
BRANCH  28  30
ATOM     29  C   UNL     1       4.189   3.241  11.282  0.00  0.00    +0.000 C 
ATOM     30  C   UNL     1       5.450   2.660  11.892  0.00  0.00    +0.000 C 
ENDBRANCH  28  30
ENDBRANCH  27  28
ENDBRANCH  26  27
ENDBRANCH  22  26
ENDBRANCH   1  24
TORSDOF 7
ENDMDL
MODEL 7
REMARK VINA RESULT:      -7.7      0.853      1.407
REMARK  Name = 
REMARK  8 active torsions:
REMARK  status: ('A' for Active; 'I' for Inactive)
REMARK    1  A    between atoms: C_1  and  C_2
REMARK    2  A    between atoms: C_2  and  C_3
REMARK    3  A    between atoms: C_3  and  C_4
REMARK    4  A    between atoms: C_4  and  O_5
REMARK    5  A    between atoms: O_5  and  C_6
REMARK    6  A    between atoms: N_8  and  C_9
REMARK    7  A    between atoms: C_13  and  C_14
REMARK    8  A    between atoms: C_23  and  N_24
REMARK                            x       y       z     vdW  Elec       q    Type
REMARK                         _______ _______ _______ _____ _____    ______ ____
ROOT
ATOM      1  C   UNL     1       3.098   6.588  18.129  0.00  0.00    +0.000 A 
ATOM      2  C   UNL     1       3.004   7.903  17.640  0.00  0.00    +0.000 A 
ATOM      3  C   UNL     1       2.214   8.822  18.342  0.00  0.00    +0.000 A 
ATOM      4  N   UNL     1       1.932  10.144  18.078  0.00  0.00    +0.000 NA
ATOM      5  C   UNL     1       1.150  10.554  19.058  0.00  0.00    +0.000 A 
ATOM      6  N   UNL     1       0.924   9.528  19.947  0.00  0.00    +0.000 N 
ATOM      7  C   UNL     1       1.584   8.411  19.505  0.00  0.00    +0.000 A 
ATOM      8  C   UNL     1       1.677   7.116  20.026  0.00  0.00    +0.000 A 
ATOM      9  C   UNL     1       2.442   6.167  19.321  0.00  0.00    +0.000 A 
ATOM     10  H   UNL     1       0.366   9.586  20.783  0.00  0.00    +0.000 HD
ENDROOT
BRANCH   5  11
ATOM     11  C   UNL     1       0.551  11.919  19.271  0.00  0.00    +0.000 C 
ATOM     12  C   UNL     1       0.895  12.491  20.652  0.00  0.00    +0.000 C 
ATOM     13  C   UNL     1       2.331  12.999  20.761  0.00  0.00    +0.000 C 
ATOM     14  C   UNL     1       2.692  13.963  19.635  0.00  0.00    +0.000 C 
ATOM     15  C   UNL     1       2.364  13.407  18.252  0.00  0.00    +0.000 C 
ATOM     16  C   UNL     1       0.927  12.902  18.156  0.00  0.00    +0.000 C 
ENDBRANCH   5  11
BRANCH   9  17
ATOM     17  N   UNL     1       2.616   4.841  19.786  0.00  0.00    +0.000 N 
ATOM     18  C   UNL     1       2.017   3.701  19.073  0.00  0.00    +0.000 C 
ATOM     19  C   UNL     1       1.022   3.101  20.058  0.00  0.00    +0.000 C 
ATOM     20  C   UNL     1       1.691   3.327  21.397  0.00  0.00    +0.000 C 
ATOM     21  C   UNL     1       2.362   4.685  21.242  0.00  0.00    +0.000 C 
ENDBRANCH   9  17
BRANCH   1  24
ATOM     22  C   UNL     1       5.144   5.368  17.419  0.00  0.00    +0.000 C 
ATOM     23  O   UNL     1       6.002   5.976  18.039  0.00  0.00    +0.000 OA
ATOM     24  N   UNL     1       3.803   5.596  17.420  0.00  0.00    +0.000 N 
ATOM     25  H   UNL     1       3.229   4.900  16.965  0.00  0.00    +0.000 HD
BRANCH  22  26
ATOM     26  O   UNL     1       5.398   4.324  16.585  0.00  0.00    +0.000 OA
BRANCH  26  27
ATOM     27  C   UNL     1       6.631   4.435  15.872  0.00  0.00    +0.000 C 
BRANCH  27  28
ATOM     28  C   UNL     1       6.451   4.911  14.436  0.00  0.00    +0.000 C 
BRANCH  28  30
ATOM     29  C   UNL     1       6.462   3.548  12.283  0.00  0.00    +0.000 C 
ATOM     30  C   UNL     1       5.801   3.785  13.627  0.00  0.00    +0.000 C 
ENDBRANCH  28  30
ENDBRANCH  27  28
ENDBRANCH  26  27
ENDBRANCH  22  26
ENDBRANCH   1  24
TORSDOF 7
ENDMDL
MODEL 8
REMARK VINA RESULT:      -7.6      1.806      2.492
REMARK  Name = 
REMARK  8 active torsions:
REMARK  status: ('A' for Active; 'I' for Inactive)
REMARK    1  A    between atoms: C_1  and  C_2
REMARK    2  A    between atoms: C_2  and  C_3
REMARK    3  A    between atoms: C_3  and  C_4
REMARK    4  A    between atoms: C_4  and  O_5
REMARK    5  A    between atoms: O_5  and  C_6
REMARK    6  A    between atoms: N_8  and  C_9
REMARK    7  A    between atoms: C_13  and  C_14
REMARK    8  A    between atoms: C_23  and  N_24
REMARK                            x       y       z     vdW  Elec       q    Type
REMARK                         _______ _______ _______ _____ _____    ______ ____
ROOT
ATOM      1  C   UNL     1       4.413   6.048  17.132  0.00  0.00    +0.000 A 
ATOM      2  C   UNL     1       4.130   7.398  16.860  0.00  0.00    +0.000 A 
ATOM      3  C   UNL     1       3.040   7.994  17.504  0.00  0.00    +0.000 A 
ATOM      4  N   UNL     1       2.532   9.271  17.405  0.00  0.00    +0.000 NA
ATOM      5  C   UNL     1       1.507   9.322  18.234  0.00  0.00    +0.000 A 
ATOM      6  N   UNL     1       1.343   8.110  18.864  0.00  0.00    +0.000 N 
ATOM      7  C   UNL     1       2.303   7.245  18.406  0.00  0.00    +0.000 A 
ATOM      8  C   UNL     1       2.575   5.907  18.712  0.00  0.00    +0.000 A 
ATOM      9  C   UNL     1       3.649   5.277  18.054  0.00  0.00    +0.000 A 
ATOM     10  H   UNL     1       0.637   7.892  19.546  0.00  0.00    +0.000 HD
ENDROOT
BRANCH   5  11
ATOM     11  C   UNL     1       0.595  10.484  18.526  0.00  0.00    +0.000 C 
ATOM     12  C   UNL     1      -0.665  10.052  19.288  0.00  0.00    +0.000 C 
ATOM     13  C   UNL     1      -0.412   9.754  20.763  0.00  0.00    +0.000 C 
ATOM     14  C   UNL     1       0.320  10.891  21.469  0.00  0.00    +0.000 C 
ATOM     15  C   UNL     1       1.582  11.330  20.730  0.00  0.00    +0.000 C 
ATOM     16  C   UNL     1       1.317  11.625  19.255  0.00  0.00    +0.000 C 
ENDBRANCH   5  11
BRANCH   9  17
ATOM     17  N   UNL     1       4.015   3.936  18.321  0.00  0.00    +0.000 N 
ATOM     18  C   UNL     1       3.133   2.818  17.945  0.00  0.00    +0.000 C 
ATOM     19  C   UNL     1       2.740   2.167  19.265  0.00  0.00    +0.000 C 
ATOM     20  C   UNL     1       3.980   2.347  20.115  0.00  0.00    +0.000 C 
ATOM     21  C   UNL     1       4.502   3.718  19.708  0.00  0.00    +0.000 C 
ENDBRANCH   9  17
BRANCH   1  24
ATOM     22  C   UNL     1       6.740   5.740  16.316  0.00  0.00    +0.000 C 
ATOM     23  O   UNL     1       7.277   6.740  16.767  0.00  0.00    +0.000 OA
ATOM     24  N   UNL     1       5.440   5.367  16.450  0.00  0.00    +0.000 N 
ATOM     25  H   UNL     1       5.206   4.434  16.138  0.00  0.00    +0.000 HD
BRANCH  22  26
ATOM     26  O   UNL     1       7.379   4.801  15.568  0.00  0.00    +0.000 OA
BRANCH  26  27
ATOM     27  C   UNL     1       6.515   4.058  14.705  0.00  0.00    +0.000 C 
BRANCH  27  28
ATOM     28  C   UNL     1       6.651   4.451  13.240  0.00  0.00    +0.000 C 
BRANCH  28  30
ATOM     29  C   UNL     1       4.775   3.396  11.875  0.00  0.00    +0.000 C 
ATOM     30  C   UNL     1       6.201   3.271  12.374  0.00  0.00    +0.000 C 
ENDBRANCH  28  30
ENDBRANCH  27  28
ENDBRANCH  26  27
ENDBRANCH  22  26
ENDBRANCH   1  24
TORSDOF 7
ENDMDL
MODEL 9
REMARK VINA RESULT:      -7.5      3.383      9.300
REMARK  Name = 
REMARK  8 active torsions:
REMARK  status: ('A' for Active; 'I' for Inactive)
REMARK    1  A    between atoms: C_1  and  C_2
REMARK    2  A    between atoms: C_2  and  C_3
REMARK    3  A    between atoms: C_3  and  C_4
REMARK    4  A    between atoms: C_4  and  O_5
REMARK    5  A    between atoms: O_5  and  C_6
REMARK    6  A    between atoms: N_8  and  C_9
REMARK    7  A    between atoms: C_13  and  C_14
REMARK    8  A    between atoms: C_23  and  N_24
REMARK                            x       y       z     vdW  Elec       q    Type
REMARK                         _______ _______ _______ _____ _____    ______ ____
ROOT
ATOM      1  C   UNL     1       0.591   9.552  20.519  0.00  0.00    +0.000 A 
ATOM      2  C   UNL     1       1.084   8.235  20.527  0.00  0.00    +0.000 A 
ATOM      3  C   UNL     1       1.910   7.824  19.474  0.00  0.00    +0.000 A 
ATOM      4  N   UNL     1       2.501   6.605  19.224  0.00  0.00    +0.000 NA
ATOM      5  C   UNL     1       3.189   6.754  18.109  0.00  0.00    +0.000 A 
ATOM      6  N   UNL     1       3.056   8.039  17.635  0.00  0.00    +0.000 N 
ATOM      7  C   UNL     1       2.236   8.736  18.484  0.00  0.00    +0.000 A 
ATOM      8  C   UNL     1       1.778  10.058  18.461  0.00  0.00    +0.000 A 
ATOM      9  C   UNL     1       0.922  10.485  19.494  0.00  0.00    +0.000 A 
ATOM     10  H   UNL     1       3.487   8.407  16.804  0.00  0.00    +0.000 HD
ENDROOT
BRANCH   5  11
ATOM     11  C   UNL     1       4.033   5.738  17.385  0.00  0.00    +0.000 C 
ATOM     12  C   UNL     1       5.082   6.397  16.481  0.00  0.00    +0.000 C 
ATOM     13  C   UNL     1       6.267   6.978  17.248  0.00  0.00    +0.000 C 
ATOM     14  C   UNL     1       6.891   5.967  18.206  0.00  0.00    +0.000 C 
ATOM     15  C   UNL     1       5.863   5.306  19.120  0.00  0.00    +0.000 C 
ATOM     16  C   UNL     1       4.682   4.730  18.342  0.00  0.00    +0.000 C 
ENDBRANCH   5  11
BRANCH   9  17
ATOM     17  N   UNL     1       0.431  11.811  19.569  0.00  0.00    +0.000 N 
ATOM     18  C   UNL     1       0.012  12.536  18.358  0.00  0.00    +0.000 C 
ATOM     19  C   UNL     1       0.974  13.712  18.251  0.00  0.00    +0.000 C 
ATOM     20  C   UNL     1       1.245  14.062  19.699  0.00  0.00    +0.000 C 
ATOM     21  C   UNL     1       1.276  12.710  20.398  0.00  0.00    +0.000 C 
ENDBRANCH   9  17
BRANCH   1  24
ATOM     22  C   UNL     1      -0.142  10.010  22.849  0.00  0.00    +0.000 C 
ATOM     23  O   UNL     1       0.839   9.641  23.476  0.00  0.00    +0.000 OA
ATOM     24  N   UNL     1      -0.315   9.997  21.500  0.00  0.00    +0.000 N 
ATOM     25  H   UNL     1      -1.131  10.480  21.148  0.00  0.00    +0.000 HD
BRANCH  22  26
ATOM     26  O   UNL     1      -1.272  10.506  23.419  0.00  0.00    +0.000 OA
BRANCH  26  27
ATOM     27  C   UNL     1      -1.524  11.879  23.113  0.00  0.00    +0.000 C 
BRANCH  27  28
ATOM     28  C   UNL     1      -3.006  12.193  22.949  0.00  0.00    +0.000 C 
BRANCH  28  30
ATOM     29  C   UNL     1      -4.882  12.399  24.661  0.00  0.00    +0.000 C 
ATOM     30  C   UNL     1      -3.506  12.867  24.230  0.00  0.00    +0.000 C 
ENDBRANCH  28  30
ENDBRANCH  27  28
ENDBRANCH  26  27
ENDBRANCH  22  26
ENDBRANCH   1  24
TORSDOF 7
ENDMDL
