MODEL 1
REMARK VINA RESULT:      -8.0      0.000      0.000
REMARK  Name = 
REMARK  3 active torsions:
REMARK  status: ('A' for Active; 'I' for Inactive)
REMARK    1  A    between atoms: C_1  and  C_2
REMARK    2  A    between atoms: C_5  and  C_6
REMARK    3  A    between atoms: C_16  and  C_18
REMARK                            x       y       z     vdW  Elec       q    Type
REMARK                         _______ _______ _______ _____ _____    ______ ____
ROOT
ATOM      1  C   UNL     1      -0.667  12.010  20.404  0.00  0.00    +0.000 C 
ATOM      2  O   UNL     1      -0.358  13.022  19.779  0.00  0.00    +0.000 OA
ATOM      3  N   UNL     1      -0.124  10.748  20.218  0.00  0.00    +0.000 N 
ATOM      4  C   UNL     1       0.860  10.470  19.279  0.00  0.00    +0.000 A 
ATOM      5  N   UNL     1       1.424  11.378  18.466  0.00  0.00    +0.000 NA
ATOM      6  N   UNL     1       2.313  10.707  17.709  0.00  0.00    +0.000 N 
ATOM      7  C   UNL     1       2.326   9.402  18.024  0.00  0.00    +0.000 A 
ATOM      8  C   UNL     1       1.422   9.211  19.023  0.00  0.00    +0.000 A 
ATOM      9  C   UNL     1       1.392   7.802  19.424  0.00  0.00    +0.000 C 
ATOM     10  N   UNL     1       2.413   7.220  18.489  0.00  0.00    +0.000 N 
ATOM     11  C   UNL     1       2.814   5.890  18.413  0.00  0.00    +0.000 C 
ATOM     12  O   UNL     1       3.643   5.528  17.573  0.00  0.00    +0.000 OA
ATOM     13  C   UNL     1       3.034   8.210  17.577  0.00  0.00    +0.000 C 
ATOM     14  H   UNL     1      -0.453   9.961  20.749  0.00  0.00    +0.000 HD
ATOM     15  H   UNL     1       2.849  11.224  17.019  0.00  0.00    +0.000 HD
ENDROOT
BRANCH   1  20
ATOM     16  C   UNL     1      -5.018  12.808  24.205  0.00  0.00    +0.000 C 
ATOM     17  C   UNL     1      -3.883  12.594  23.246  0.00  0.00    +0.000 A 
ATOM     18  C   UNL     1      -3.979  13.030  21.926  0.00  0.00    +0.000 A 
ATOM     19  C   UNL     1      -2.921  12.821  21.039  0.00  0.00    +0.000 A 
ATOM     20  C   UNL     1      -1.740  12.172  21.444  0.00  0.00    +0.000 A 
ATOM     21  C   UNL     1      -1.643  11.740  22.772  0.00  0.00    +0.000 A 
ATOM     22  C   UNL     1      -2.710  11.950  23.662  0.00  0.00    +0.000 A 
ENDBRANCH   1  20
BRANCH  11  23
ATOM     23  C   UNL     1       2.254   4.863  19.365  0.00  0.00    +0.000 A 
ATOM     24  C   UNL     1       1.338   3.928  18.889  0.00  0.00    +0.000 A 
ATOM     25  C   UNL     1       0.852   2.959  19.766  0.00  0.00    +0.000 A 
ATOM     26  C   UNL     1       1.293   2.948  21.083  0.00  0.00    +0.000 A 
ATOM     27  C   UNL     1       2.201   3.913  21.477  0.00  0.00    +0.000 A 
ATOM     28  N   UNL     1       2.686   4.867  20.653  0.00  0.00    +0.000 NA
ENDBRANCH  11  23
TORSDOF 2
ENDMDL
MODEL 2
REMARK VINA RESULT:      -7.9      1.673      8.272
REMARK  Name = 
REMARK  3 active torsions:
REMARK  status: ('A' for Active; 'I' for Inactive)
REMARK    1  A    between atoms: C_1  and  C_2
REMARK    2  A    between atoms: C_5  and  C_6
REMARK    3  A    between atoms: C_16  and  C_18
REMARK                            x       y       z     vdW  Elec       q    Type
REMARK                         _______ _______ _______ _____ _____    ______ ____
ROOT
ATOM      1  C   UNL     1       2.390   7.840  18.351  0.00  0.00    +0.000 C 
ATOM      2  O   UNL     1       3.299   7.985  17.538  0.00  0.00    +0.000 OA
ATOM      3  N   UNL     1       1.587   8.851  18.857  0.00  0.00    +0.000 N 
ATOM      4  C   UNL     1       1.717  10.185  18.491  0.00  0.00    +0.000 A 
ATOM      5  N   UNL     1       2.602  10.653  17.596  0.00  0.00    +0.000 NA
ATOM      6  N   UNL     1       2.413  11.985  17.539  0.00  0.00    +0.000 N 
ATOM      7  C   UNL     1       1.433  12.369  18.373  0.00  0.00    +0.000 A 
ATOM      8  C   UNL     1       0.959  11.253  18.991  0.00  0.00    +0.000 A 
ATOM      9  C   UNL     1      -0.126  11.601  19.912  0.00  0.00    +0.000 C 
ATOM     10  N   UNL     1      -0.187  13.090  19.729  0.00  0.00    +0.000 N 
ATOM     11  C   UNL     1      -1.053  13.975  20.363  0.00  0.00    +0.000 C 
ATOM     12  O   UNL     1      -0.981  15.189  20.150  0.00  0.00    +0.000 OA
ATOM     13  C   UNL     1       0.794  13.621  18.752  0.00  0.00    +0.000 C 
ATOM     14  H   UNL     1       0.883   8.656  19.545  0.00  0.00    +0.000 HD
ATOM     15  H   UNL     1       2.996  12.530  16.912  0.00  0.00    +0.000 HD
ENDROOT
BRANCH   1  20
ATOM     16  C   UNL     1       1.481   2.528  20.584  0.00  0.00    +0.000 C 
ATOM     17  C   UNL     1       1.719   3.885  19.986  0.00  0.00    +0.000 A 
ATOM     18  C   UNL     1       1.795   5.014  20.798  0.00  0.00    +0.000 A 
ATOM     19  C   UNL     1       2.009   6.273  20.233  0.00  0.00    +0.000 A 
ATOM     20  C   UNL     1       2.155   6.439  18.843  0.00  0.00    +0.000 A 
ATOM     21  C   UNL     1       2.084   5.303  18.029  0.00  0.00    +0.000 A 
ATOM     22  C   UNL     1       1.867   4.037  18.600  0.00  0.00    +0.000 A 
ENDBRANCH   1  20
BRANCH  11  23
ATOM     23  C   UNL     1      -2.108  13.469  21.315  0.00  0.00    +0.000 A 
ATOM     24  C   UNL     1      -1.784  13.311  22.660  0.00  0.00    +0.000 A 
ATOM     25  C   UNL     1      -2.774  12.877  23.542  0.00  0.00    +0.000 A 
ATOM     26  C   UNL     1      -4.051  12.618  23.059  0.00  0.00    +0.000 A 
ATOM     27  C   UNL     1      -4.288  12.797  21.709  0.00  0.00    +0.000 A 
ATOM     28  N   UNL     1      -3.350  13.211  20.830  0.00  0.00    +0.000 NA
ENDBRANCH  11  23
TORSDOF 2
ENDMDL
MODEL 3
REMARK VINA RESULT:      -7.8      0.604      1.353
REMARK  Name = 
REMARK  3 active torsions:
REMARK  status: ('A' for Active; 'I' for Inactive)
REMARK    1  A    between atoms: C_1  and  C_2
REMARK    2  A    between atoms: C_5  and  C_6
REMARK    3  A    between atoms: C_16  and  C_18
REMARK                            x       y       z     vdW  Elec       q    Type
REMARK                         _______ _______ _______ _____ _____    ______ ____
ROOT
ATOM      1  C   UNL     1      -0.567  11.936  20.358  0.00  0.00    +0.000 C 
ATOM      2  O   UNL     1      -0.249  12.943  19.732  0.00  0.00    +0.000 OA
ATOM      3  N   UNL     1      -0.039  10.667  20.170  0.00  0.00    +0.000 N 
ATOM      4  C   UNL     1       0.939  10.378  19.228  0.00  0.00    +0.000 A 
ATOM      5  N   UNL     1       1.510  11.280  18.413  0.00  0.00    +0.000 NA
ATOM      6  N   UNL     1       2.390  10.599  17.653  0.00  0.00    +0.000 N 
ATOM      7  C   UNL     1       2.389   9.293  17.968  0.00  0.00    +0.000 A 
ATOM      8  C   UNL     1       1.486   9.114  18.970  0.00  0.00    +0.000 A 
ATOM      9  C   UNL     1       1.442   7.704  19.372  0.00  0.00    +0.000 C 
ATOM     10  N   UNL     1       2.452   7.111  18.434  0.00  0.00    +0.000 N 
ATOM     11  C   UNL     1       2.839   5.777  18.356  0.00  0.00    +0.000 C 
ATOM     12  O   UNL     1       3.661   5.406  17.514  0.00  0.00    +0.000 OA
ATOM     13  C   UNL     1       3.082   8.094  17.519  0.00  0.00    +0.000 C 
ATOM     14  H   UNL     1      -0.375   9.884  20.702  0.00  0.00    +0.000 HD
ATOM     15  H   UNL     1       2.929  11.109  16.962  0.00  0.00    +0.000 HD
ENDROOT
BRANCH   1  20
ATOM     16  C   UNL     1      -4.511  12.432  24.626  0.00  0.00    +0.000 C 
ATOM     17  C   UNL     1      -3.513  12.314  23.510  0.00  0.00    +0.000 A 
ATOM     18  C   UNL     1      -2.286  11.689  23.721  0.00  0.00    +0.000 A 
ATOM     19  C   UNL     1      -1.361  11.589  22.679  0.00  0.00    +0.000 A 
ATOM     20  C   UNL     1      -1.635  12.109  21.401  0.00  0.00    +0.000 A 
ATOM     21  C   UNL     1      -2.871  12.732  21.190  0.00  0.00    +0.000 A 
ATOM     22  C   UNL     1      -3.799  12.832  22.240  0.00  0.00    +0.000 A 
ENDBRANCH   1  20
BRANCH  11  23
ATOM     23  C   UNL     1       2.271   4.756  19.310  0.00  0.00    +0.000 A 
ATOM     24  C   UNL     1       2.730   4.730  20.625  0.00  0.00    +0.000 A 
ATOM     25  C   UNL     1       2.176   3.807  21.511  0.00  0.00    +0.000 A 
ATOM     26  C   UNL     1       1.183   2.944  21.064  0.00  0.00    +0.000 A 
ATOM     27  C   UNL     1       0.786   3.032  19.743  0.00  0.00    +0.000 A 
ATOM     28  N   UNL     1       1.307   3.911  18.860  0.00  0.00    +0.000 NA
ENDBRANCH  11  23
TORSDOF 2
ENDMDL
MODEL 4
REMARK VINA RESULT:      -7.7      1.657      8.236
REMARK  Name = 
REMARK  3 active torsions:
REMARK  status: ('A' for Active; 'I' for Inactive)
REMARK    1  A    between atoms: C_1  and  C_2
REMARK    2  A    between atoms: C_5  and  C_6
REMARK    3  A    between atoms: C_16  and  C_18
REMARK                            x       y       z     vdW  Elec       q    Type
REMARK                         _______ _______ _______ _____ _____    ______ ____
ROOT
ATOM      1  C   UNL     1       2.386   7.871  18.454  0.00  0.00    +0.000 C 
ATOM      2  O   UNL     1       3.286   7.996  17.629  0.00  0.00    +0.000 OA
ATOM      3  N   UNL     1       1.586   8.895  18.939  0.00  0.00    +0.000 N 
ATOM      4  C   UNL     1       1.710  10.218  18.536  0.00  0.00    +0.000 A 
ATOM      5  N   UNL     1       2.586  10.663  17.620  0.00  0.00    +0.000 NA
ATOM      6  N   UNL     1       2.394  11.993  17.528  0.00  0.00    +0.000 N 
ATOM      7  C   UNL     1       1.421  12.398  18.360  0.00  0.00    +0.000 A 
ATOM      8  C   UNL     1       0.955  11.298  19.013  0.00  0.00    +0.000 A 
ATOM      9  C   UNL     1      -0.122  11.670  19.935  0.00  0.00    +0.000 C 
ATOM     10  N   UNL     1      -0.188  13.153  19.711  0.00  0.00    +0.000 N 
ATOM     11  C   UNL     1      -1.048  14.054  20.329  0.00  0.00    +0.000 C 
ATOM     12  O   UNL     1      -0.981  15.262  20.083  0.00  0.00    +0.000 OA
ATOM     13  C   UNL     1       0.783  13.659  18.711  0.00  0.00    +0.000 C 
ATOM     14  H   UNL     1       0.888   8.718  19.639  0.00  0.00    +0.000 HD
ATOM     15  H   UNL     1       2.970  12.521  16.881  0.00  0.00    +0.000 HD
ENDROOT
BRANCH   1  20
ATOM     16  C   UNL     1       1.508   2.374  20.194  0.00  0.00    +0.000 C 
ATOM     17  C   UNL     1       1.729   3.797  19.770  0.00  0.00    +0.000 A 
ATOM     18  C   UNL     1       1.926   4.115  18.428  0.00  0.00    +0.000 A 
ATOM     19  C   UNL     1       2.137   5.440  18.043  0.00  0.00    +0.000 A 
ATOM     20  C   UNL     1       2.158   6.484  18.986  0.00  0.00    +0.000 A 
ATOM     21  C   UNL     1       1.954   6.164  20.334  0.00  0.00    +0.000 A 
ATOM     22  C   UNL     1       1.743   4.830  20.719  0.00  0.00    +0.000 A 
ENDBRANCH   1  20
BRANCH  11  23
ATOM     23  C   UNL     1      -2.094  13.573  21.304  0.00  0.00    +0.000 A 
ATOM     24  C   UNL     1      -3.371  13.275  20.834  0.00  0.00    +0.000 A 
ATOM     25  C   UNL     1      -4.323  12.797  21.735  0.00  0.00    +0.000 A 
ATOM     26  C   UNL     1      -3.974  12.628  23.069  0.00  0.00    +0.000 A 
ATOM     27  C   UNL     1      -2.687  12.950  23.454  0.00  0.00    +0.000 A 
ATOM     28  N   UNL     1      -1.745  13.420  22.608  0.00  0.00    +0.000 NA
ENDBRANCH  11  23
TORSDOF 2
ENDMDL
MODEL 5
REMARK VINA RESULT:      -7.2      2.818      9.267
REMARK  Name = 
REMARK  3 active torsions:
REMARK  status: ('A' for Active; 'I' for Inactive)
REMARK    1  A    between atoms: C_1  and  C_2
REMARK    2  A    between atoms: C_5  and  C_6
REMARK    3  A    between atoms: C_16  and  C_18
REMARK                            x       y       z     vdW  Elec       q    Type
REMARK                         _______ _______ _______ _____ _____    ______ ____
ROOT
ATOM      1  C   UNL     1       1.903   7.059  19.976  0.00  0.00    +0.000 C 
ATOM      2  O   UNL     1       1.467   6.153  20.680  0.00  0.00    +0.000 OA
ATOM      3  N   UNL     1       1.612   8.407  20.119  0.00  0.00    +0.000 N 
ATOM      4  C   UNL     1       0.771   8.906  21.106  0.00  0.00    +0.000 A 
ATOM      5  N   UNL     1       0.167   8.164  22.048  0.00  0.00    +0.000 NA
ATOM      6  N   UNL     1      -0.560   9.018  22.793  0.00  0.00    +0.000 N 
ATOM      7  C   UNL     1      -0.431  10.278  22.347  0.00  0.00    +0.000 A 
ATOM      8  C   UNL     1       0.414  10.250  21.280  0.00  0.00    +0.000 A 
ATOM      9  C   UNL     1       0.610  11.602  20.748  0.00  0.00    +0.000 C 
ATOM     10  N   UNL     1      -0.264  12.399  21.672  0.00  0.00    +0.000 N 
ATOM     11  C   UNL     1      -0.474  13.774  21.646  0.00  0.00    +0.000 C 
ATOM     12  O   UNL     1      -1.248  14.310  22.444  0.00  0.00    +0.000 OA
ATOM     13  C   UNL     1      -0.947  11.589  22.710  0.00  0.00    +0.000 C 
ATOM     14  H   UNL     1       1.984   9.087  19.481  0.00  0.00    +0.000 HD
ATOM     15  H   UNL     1      -1.101   8.645  23.566  0.00  0.00    +0.000 HD
ENDROOT
BRANCH   1  20
ATOM     16  C   UNL     1       5.403   5.141  15.722  0.00  0.00    +0.000 C 
ATOM     17  C   UNL     1       4.509   5.659  16.812  0.00  0.00    +0.000 A 
ATOM     18  C   UNL     1       3.864   4.779  17.678  0.00  0.00    +0.000 A 
ATOM     19  C   UNL     1       3.030   5.269  18.684  0.00  0.00    +0.000 A 
ATOM     20  C   UNL     1       2.815   6.649  18.854  0.00  0.00    +0.000 A 
ATOM     21  C   UNL     1       3.469   7.532  17.986  0.00  0.00    +0.000 A 
ATOM     22  C   UNL     1       4.307   7.037  16.974  0.00  0.00    +0.000 A 
ENDBRANCH   1  20
BRANCH  11  23
ATOM     23  C   UNL     1       0.250  14.643  20.648  0.00  0.00    +0.000 A 
ATOM     24  C   UNL     1      -0.453  15.151  19.558  0.00  0.00    +0.000 A 
ATOM     25  C   UNL     1       0.214  15.983  18.659  0.00  0.00    +0.000 A 
ATOM     26  C   UNL     1       1.554  16.284  18.873  0.00  0.00    +0.000 A 
ATOM     27  C   UNL     1       2.179  15.735  19.977  0.00  0.00    +0.000 A 
ATOM     28  N   UNL     1       1.563  14.923  20.862  0.00  0.00    +0.000 NA
ENDBRANCH  11  23
TORSDOF 2
ENDMDL
MODEL 6
REMARK VINA RESULT:      -7.2      2.853      9.309
REMARK  Name = 
REMARK  3 active torsions:
REMARK  status: ('A' for Active; 'I' for Inactive)
REMARK    1  A    between atoms: C_1  and  C_2
REMARK    2  A    between atoms: C_5  and  C_6
REMARK    3  A    between atoms: C_16  and  C_18
REMARK                            x       y       z     vdW  Elec       q    Type
REMARK                         _______ _______ _______ _____ _____    ______ ____
ROOT
ATOM      1  C   UNL     1       2.437   6.495  19.188  0.00  0.00    +0.000 C 
ATOM      2  O   UNL     1       1.936   5.538  19.772  0.00  0.00    +0.000 OA
ATOM      3  N   UNL     1       2.176   7.831  19.452  0.00  0.00    +0.000 N 
ATOM      4  C   UNL     1       1.296   8.257  20.439  0.00  0.00    +0.000 A 
ATOM      5  N   UNL     1       0.620   7.445  21.267  0.00  0.00    +0.000 NA
ATOM      6  N   UNL     1      -0.124   8.244  22.056  0.00  0.00    +0.000 N 
ATOM      7  C   UNL     1       0.066   9.537  21.748  0.00  0.00    +0.000 A 
ATOM      8  C   UNL     1       0.968   9.589  20.730  0.00  0.00    +0.000 A 
ATOM      9  C   UNL     1       1.231  10.980  20.350  0.00  0.00    +0.000 C 
ATOM     10  N   UNL     1       0.329  11.709  21.303  0.00  0.00    +0.000 N 
ATOM     11  C   UNL     1       0.160  13.086  21.405  0.00  0.00    +0.000 C 
ATOM     12  O   UNL     1      -0.642  13.565  22.212  0.00  0.00    +0.000 OA
ATOM     13  C   UNL     1      -0.433  10.823  22.215  0.00  0.00    +0.000 C 
ATOM     14  H   UNL     1       2.602   8.559  18.907  0.00  0.00    +0.000 HD
ATOM     15  H   UNL     1      -0.718   7.814  22.757  0.00  0.00    +0.000 HD
ENDROOT
BRANCH   1  20
ATOM     16  C   UNL     1       6.104   4.897  14.943  0.00  0.00    +0.000 C 
ATOM     17  C   UNL     1       5.169   5.333  16.033  0.00  0.00    +0.000 A 
ATOM     18  C   UNL     1       4.416   4.396  16.739  0.00  0.00    +0.000 A 
ATOM     19  C   UNL     1       3.544   4.810  17.747  0.00  0.00    +0.000 A 
ATOM     20  C   UNL     1       3.399   6.170  18.080  0.00  0.00    +0.000 A 
ATOM     21  C   UNL     1       4.160   7.109  17.375  0.00  0.00    +0.000 A 
ATOM     22  C   UNL     1       5.036   6.690  16.359  0.00  0.00    +0.000 A 
ENDBRANCH   1  20
BRANCH  11  23
ATOM     23  C   UNL     1       0.964  14.025  20.541  0.00  0.00    +0.000 A 
ATOM     24  C   UNL     1       0.353  14.620  19.440  0.00  0.00    +0.000 A 
ATOM     25  C   UNL     1       1.091  15.515  18.666  0.00  0.00    +0.000 A 
ATOM     26  C   UNL     1       2.407  15.792  19.012  0.00  0.00    +0.000 A 
ATOM     27  C   UNL     1       2.940  15.156  20.118  0.00  0.00    +0.000 A 
ATOM     28  N   UNL     1       2.253  14.281  20.884  0.00  0.00    +0.000 NA
ENDBRANCH  11  23
TORSDOF 2
ENDMDL
MODEL 7
REMARK VINA RESULT:      -7.1      3.155      9.647
REMARK  Name = 
REMARK  3 active torsions:
REMARK  status: ('A' for Active; 'I' for Inactive)
REMARK    1  A    between atoms: C_1  and  C_2
REMARK    2  A    between atoms: C_5  and  C_6
REMARK    3  A    between atoms: C_16  and  C_18
REMARK                            x       y       z     vdW  Elec       q    Type
REMARK                         _______ _______ _______ _____ _____    ______ ____
ROOT
ATOM      1  C   UNL     1       4.476   4.909  17.899  0.00  0.00    +0.000 C 
ATOM      2  O   UNL     1       4.434   3.826  18.475  0.00  0.00    +0.000 OA
ATOM      3  N   UNL     1       3.785   6.052  18.274  0.00  0.00    +0.000 N 
ATOM      4  C   UNL     1       2.942   6.108  19.377  0.00  0.00    +0.000 A 
ATOM      5  N   UNL     1       2.716   5.090  20.223  0.00  0.00    +0.000 NA
ATOM      6  N   UNL     1       1.839   5.547  21.138  0.00  0.00    +0.000 N 
ATOM      7  C   UNL     1       1.508   6.825  20.892  0.00  0.00    +0.000 A 
ATOM      8  C   UNL     1       2.195   7.221  19.785  0.00  0.00    +0.000 A 
ATOM      9  C   UNL     1       1.886   8.618  19.465  0.00  0.00    +0.000 C 
ATOM     10  N   UNL     1       0.909   8.949  20.556  0.00  0.00    +0.000 N 
ATOM     11  C   UNL     1       0.268  10.166  20.762  0.00  0.00    +0.000 C 
ATOM     12  O   UNL     1      -0.544  10.304  21.682  0.00  0.00    +0.000 OA
ATOM     13  C   UNL     1       0.641   7.829  21.490  0.00  0.00    +0.000 C 
ATOM     14  H   UNL     1       3.846   6.894  17.731  0.00  0.00    +0.000 HD
ATOM     15  H   UNL     1       1.536   4.917  21.873  0.00  0.00    +0.000 HD
ENDROOT
BRANCH   1  20
ATOM     16  C   UNL     1       7.626   4.951  12.990  0.00  0.00    +0.000 C 
ATOM     17  C   UNL     1       6.834   4.954  14.266  0.00  0.00    +0.000 A 
ATOM     18  C   UNL     1       5.658   4.214  14.372  0.00  0.00    +0.000 A 
ATOM     19  C   UNL     1       4.924   4.227  15.559  0.00  0.00    +0.000 A 
ATOM     20  C   UNL     1       5.342   4.978  16.673  0.00  0.00    +0.000 A 
ATOM     21  C   UNL     1       6.527   5.717  16.567  0.00  0.00    +0.000 A 
ATOM     22  C   UNL     1       7.263   5.703  15.370  0.00  0.00    +0.000 A 
ENDBRANCH   1  20
BRANCH  11  23
ATOM     23  C   UNL     1       0.561  11.349  19.874  0.00  0.00    +0.000 A 
ATOM     24  C   UNL     1      -0.386  11.736  18.929  0.00  0.00    +0.000 A 
ATOM     25  C   UNL     1      -0.125  12.853  18.135  0.00  0.00    +0.000 A 
ATOM     26  C   UNL     1       1.065  13.549  18.309  0.00  0.00    +0.000 A 
ATOM     27  C   UNL     1       1.954  13.097  19.267  0.00  0.00    +0.000 A 
ATOM     28  N   UNL     1       1.732  12.017  20.047  0.00  0.00    +0.000 NA
ENDBRANCH  11  23
TORSDOF 2
ENDMDL
MODEL 8
REMARK VINA RESULT:      -7.1      2.843      9.183
REMARK  Name = 
REMARK  3 active torsions:
REMARK  status: ('A' for Active; 'I' for Inactive)
REMARK    1  A    between atoms: C_1  and  C_2
REMARK    2  A    between atoms: C_5  and  C_6
REMARK    3  A    between atoms: C_16  and  C_18
REMARK                            x       y       z     vdW  Elec       q    Type
REMARK                         _______ _______ _______ _____ _____    ______ ____
ROOT
ATOM      1  C   UNL     1       1.952   6.775  19.951  0.00  0.00    +0.000 C 
ATOM      2  O   UNL     1       1.435   5.885  20.620  0.00  0.00    +0.000 OA
ATOM      3  N   UNL     1       1.731   8.135  20.105  0.00  0.00    +0.000 N 
ATOM      4  C   UNL     1       0.876   8.667  21.062  0.00  0.00    +0.000 A 
ATOM      5  N   UNL     1       0.189   7.946  21.963  0.00  0.00    +0.000 NA
ATOM      6  N   UNL     1      -0.523   8.829  22.690  0.00  0.00    +0.000 N 
ATOM      7  C   UNL     1      -0.302  10.086  22.272  0.00  0.00    +0.000 A 
ATOM      8  C   UNL     1       0.587  10.026  21.243  0.00  0.00    +0.000 A 
ATOM      9  C   UNL     1       0.882  11.373  20.744  0.00  0.00    +0.000 C 
ATOM     10  N   UNL     1       0.013  12.204  21.642  0.00  0.00    +0.000 N 
ATOM     11  C   UNL     1      -0.118  13.589  21.630  0.00  0.00    +0.000 C 
ATOM     12  O   UNL     1      -0.896  14.156  22.403  0.00  0.00    +0.000 OA
ATOM     13  C   UNL     1      -0.761  11.419  22.634  0.00  0.00    +0.000 C 
ATOM     14  H   UNL     1       2.169   8.802  19.496  0.00  0.00    +0.000 HD
ATOM     15  H   UNL     1      -1.118   8.476  23.432  0.00  0.00    +0.000 HD
ENDROOT
BRANCH   1  20
ATOM     16  C   UNL     1       5.625   5.383  15.639  0.00  0.00    +0.000 C 
ATOM     17  C   UNL     1       4.674   5.716  16.752  0.00  0.00    +0.000 A 
ATOM     18  C   UNL     1       4.344   7.041  17.030  0.00  0.00    +0.000 A 
ATOM     19  C   UNL     1       3.465   7.342  18.072  0.00  0.00    +0.000 A 
ATOM     20  C   UNL     1       2.890   6.331  18.864  0.00  0.00    +0.000 A 
ATOM     21  C   UNL     1       3.219   5.000  18.580  0.00  0.00    +0.000 A 
ATOM     22  C   UNL     1       4.105   4.699  17.532  0.00  0.00    +0.000 A 
ENDBRANCH   1  20
BRANCH  11  23
ATOM     23  C   UNL     1       0.698  14.430  20.681  0.00  0.00    +0.000 A 
ATOM     24  C   UNL     1       0.098  14.915  19.521  0.00  0.00    +0.000 A 
ATOM     25  C   UNL     1       0.849  15.721  18.665  0.00  0.00    +0.000 A 
ATOM     26  C   UNL     1       2.165  16.021  18.990  0.00  0.00    +0.000 A 
ATOM     27  C   UNL     1       2.686  15.497  20.159  0.00  0.00    +0.000 A 
ATOM     28  N   UNL     1       1.987  14.709  21.005  0.00  0.00    +0.000 NA
ENDBRANCH  11  23
TORSDOF 2
ENDMDL
MODEL 9
REMARK VINA RESULT:      -7.1      2.853      9.292
REMARK  Name = 
REMARK  3 active torsions:
REMARK  status: ('A' for Active; 'I' for Inactive)
REMARK    1  A    between atoms: C_1  and  C_2
REMARK    2  A    between atoms: C_5  and  C_6
REMARK    3  A    between atoms: C_16  and  C_18
REMARK                            x       y       z     vdW  Elec       q    Type
REMARK                         _______ _______ _______ _____ _____    ______ ____
ROOT
ATOM      1  C   UNL     1       2.040   6.853  19.750  0.00  0.00    +0.000 C 
ATOM      2  O   UNL     1       1.541   5.923  20.377  0.00  0.00    +0.000 OA
ATOM      3  N   UNL     1       1.789   8.200  19.966  0.00  0.00    +0.000 N 
ATOM      4  C   UNL     1       0.923   8.669  20.945  0.00  0.00    +0.000 A 
ATOM      5  N   UNL     1       0.252   7.893  21.811  0.00  0.00    +0.000 NA
ATOM      6  N   UNL     1      -0.479   8.727  22.577  0.00  0.00    +0.000 N 
ATOM      7  C   UNL     1      -0.285  10.005  22.217  0.00  0.00    +0.000 A 
ATOM      8  C   UNL     1       0.605  10.012  21.188  0.00  0.00    +0.000 A 
ATOM      9  C   UNL     1       0.871  11.386  20.751  0.00  0.00    +0.000 C 
ATOM     10  N   UNL     1      -0.016  12.157  21.685  0.00  0.00    +0.000 N 
ATOM     11  C   UNL     1      -0.176  13.537  21.736  0.00  0.00    +0.000 C 
ATOM     12  O   UNL     1      -0.966  14.052  22.533  0.00  0.00    +0.000 OA
ATOM     13  C   UNL     1      -0.772  11.311  22.639  0.00  0.00    +0.000 C 
ATOM     14  H   UNL     1       2.213   8.904  19.388  0.00  0.00    +0.000 HD
ATOM     15  H   UNL     1      -1.066   8.327  23.301  0.00  0.00    +0.000 HD
ENDROOT
BRANCH   1  20
ATOM     16  C   UNL     1       5.670   5.072  15.546  0.00  0.00    +0.000 C 
ATOM     17  C   UNL     1       4.743   5.555  16.624  0.00  0.00    +0.000 A 
ATOM     18  C   UNL     1       4.062   4.647  17.433  0.00  0.00    +0.000 A 
ATOM     19  C   UNL     1       3.197   5.105  18.429  0.00  0.00    +0.000 A 
ATOM     20  C   UNL     1       2.987   6.480  18.645  0.00  0.00    +0.000 A 
ATOM     21  C   UNL     1       3.676   7.390  17.835  0.00  0.00    +0.000 A 
ATOM     22  C   UNL     1       4.546   6.927  16.832  0.00  0.00    +0.000 A 
ENDBRANCH   1  20
BRANCH  11  23
ATOM     23  C   UNL     1       0.622  14.438  20.827  0.00  0.00    +0.000 A 
ATOM     24  C   UNL     1       1.905  14.822  21.213  0.00  0.00    +0.000 A 
ATOM     25  C   UNL     1       2.651  15.626  20.351  0.00  0.00    +0.000 A 
ATOM     26  C   UNL     1       2.102  16.019  19.138  0.00  0.00    +0.000 A 
ATOM     27  C   UNL     1       0.821  15.597  18.832  0.00  0.00    +0.000 A 
ATOM     28  N   UNL     1       0.071  14.823  19.646  0.00  0.00    +0.000 NA
ENDBRANCH  11  23
TORSDOF 2
ENDMDL
