MODEL 1
REMARK VINA RESULT:      -6.6      0.000      0.000
REMARK  Name = 
REMARK  7 active torsions:
REMARK  status: ('A' for Active; 'I' for Inactive)
REMARK    1  A    between atoms: C_1  and  N_2
REMARK    2  A    between atoms: N_2  and  C_3
REMARK    3  A    between atoms: N_2  and  C_4
REMARK    4  A    between atoms: C_7  and  C_8
REMARK    5  A    between atoms: C_11  and  C_12
REMARK    6  A    between atoms: C_12  and  C_13
REMARK    7  A    between atoms: C_13  and  N_14
REMARK                            x       y       z     vdW  Elec       q    Type
REMARK                         _______ _______ _______ _____ _____    ______ ____
ROOT
ATOM      1  C   UNL     1       6.054   4.732  15.771  0.00  0.00    +0.000 A 
ATOM      2  N   UNL     1       7.147   5.512  15.694  0.00  0.00    +0.000 NA
ATOM      3  O   UNL     1       7.606   5.319  14.396  0.00  0.00    +0.000 OA
ATOM      4  C   UNL     1       6.746   4.441  13.810  0.00  0.00    +0.000 A 
ATOM      5  N   UNL     1       5.782   4.044  14.607  0.00  0.00    +0.000 NA
ENDROOT
BRANCH   1   9
ATOM      6  C   UNL     1       3.554   4.434  19.282  0.00  0.00    +0.000 A 
ATOM      7  C   UNL     1       4.682   5.268  19.240  0.00  0.00    +0.000 A 
ATOM      8  C   UNL     1       5.502   5.362  18.107  0.00  0.00    +0.000 A 
ATOM      9  C   UNL     1       5.213   4.629  16.955  0.00  0.00    +0.000 A 
ATOM     10  C   UNL     1       4.086   3.806  16.963  0.00  0.00    +0.000 A 
ATOM     11  C   UNL     1       3.275   3.715  18.105  0.00  0.00    +0.000 A 
BRANCH   6  13
ATOM     12  C   UNL     1       2.586   3.062  21.099  0.00  0.00    +0.000 C 
ATOM     13  N   UNL     1       2.746   4.339  20.413  0.00  0.00    +0.000 N 
ATOM     14  C   UNL     1       1.775   5.385  20.706  0.00  0.00    +0.000 C 
ENDBRANCH   6  13
ENDBRANCH   1   9
BRANCH   4  15
ATOM     15  C   UNL     1       6.998   4.108  12.391  0.00  0.00    +0.000 C 
BRANCH  15  16
ATOM     16  C   UNL     1       6.116   2.937  11.952  0.00  0.00    +0.000 C 
BRANCH  16  17
ATOM     17  N   UNL     1       4.727   3.355  11.759  0.00  0.00    +0.000 NA
ATOM     18  H   UNL     1       4.580   4.275  12.174  0.00  0.00    +0.000 HD
ATOM     19  H   UNL     1       4.114   2.717  12.270  0.00  0.00    +0.000 HD
ENDBRANCH  16  17
ENDBRANCH  15  16
ENDBRANCH   4  15
TORSDOF 5
ENDMDL
MODEL 2
REMARK VINA RESULT:      -6.6      0.525      1.268
REMARK  Name = 
REMARK  7 active torsions:
REMARK  status: ('A' for Active; 'I' for Inactive)
REMARK    1  A    between atoms: C_1  and  N_2
REMARK    2  A    between atoms: N_2  and  C_3
REMARK    3  A    between atoms: N_2  and  C_4
REMARK    4  A    between atoms: C_7  and  C_8
REMARK    5  A    between atoms: C_11  and  C_12
REMARK    6  A    between atoms: C_12  and  C_13
REMARK    7  A    between atoms: C_13  and  N_14
REMARK                            x       y       z     vdW  Elec       q    Type
REMARK                         _______ _______ _______ _____ _____    ______ ____
ROOT
ATOM      1  C   UNL     1       6.058   4.661  15.752  0.00  0.00    +0.000 A 
ATOM      2  N   UNL     1       7.129   5.470  15.664  0.00  0.00    +0.000 NA
ATOM      3  O   UNL     1       7.586   5.281  14.364  0.00  0.00    +0.000 OA
ATOM      4  C   UNL     1       6.747   4.376  13.789  0.00  0.00    +0.000 A 
ATOM      5  N   UNL     1       5.800   3.957  14.594  0.00  0.00    +0.000 NA
ENDROOT
BRANCH   1   9
ATOM      6  C   UNL     1       3.595   4.301  19.283  0.00  0.00    +0.000 A 
ATOM      7  C   UNL     1       3.238   3.707  18.062  0.00  0.00    +0.000 A 
ATOM      8  C   UNL     1       4.029   3.828  16.911  0.00  0.00    +0.000 A 
ATOM      9  C   UNL     1       5.228   4.542  16.941  0.00  0.00    +0.000 A 
ATOM     10  C   UNL     1       5.616   5.127  18.148  0.00  0.00    +0.000 A 
ATOM     11  C   UNL     1       4.814   5.005  19.293  0.00  0.00    +0.000 A 
BRANCH   6  13
ATOM     12  C   UNL     1       2.687   2.903  21.112  0.00  0.00    +0.000 C 
ATOM     13  N   UNL     1       2.803   4.183  20.423  0.00  0.00    +0.000 N 
ATOM     14  C   UNL     1       1.806   5.202  20.726  0.00  0.00    +0.000 C 
ENDBRANCH   6  13
ENDBRANCH   1   9
BRANCH   4  15
ATOM     15  C   UNL     1       7.001   4.040  12.370  0.00  0.00    +0.000 C 
BRANCH  15  16
ATOM     16  C   UNL     1       5.823   3.257  11.788  0.00  0.00    +0.000 C 
BRANCH  16  17
ATOM     17  N   UNL     1       6.055   1.813  11.853  0.00  0.00    +0.000 NA
ATOM     18  H   UNL     1       5.259   1.315  11.453  0.00  0.00    +0.000 HD
ATOM     19  H   UNL     1       6.100   1.528  12.832  0.00  0.00    +0.000 HD
ENDBRANCH  16  17
ENDBRANCH  15  16
ENDBRANCH   4  15
TORSDOF 5
ENDMDL
MODEL 3
REMARK VINA RESULT:      -6.5      1.325      1.661
REMARK  Name = 
REMARK  7 active torsions:
REMARK  status: ('A' for Active; 'I' for Inactive)
REMARK    1  A    between atoms: C_1  and  N_2
REMARK    2  A    between atoms: N_2  and  C_3
REMARK    3  A    between atoms: N_2  and  C_4
REMARK    4  A    between atoms: C_7  and  C_8
REMARK    5  A    between atoms: C_11  and  C_12
REMARK    6  A    between atoms: C_12  and  C_13
REMARK    7  A    between atoms: C_13  and  N_14
REMARK                            x       y       z     vdW  Elec       q    Type
REMARK                         _______ _______ _______ _____ _____    ______ ____
ROOT
ATOM      1  C   UNL     1       5.895   5.115  15.494  0.00  0.00    +0.000 A 
ATOM      2  N   UNL     1       7.151   5.585  15.403  0.00  0.00    +0.000 NA
ATOM      3  O   UNL     1       7.605   5.096  14.183  0.00  0.00    +0.000 OA
ATOM      4  C   UNL     1       6.578   4.378  13.650  0.00  0.00    +0.000 A 
ATOM      5  N   UNL     1       5.510   4.350  14.413  0.00  0.00    +0.000 NA
ENDROOT
BRANCH   1   9
ATOM      6  C   UNL     1       3.254   5.948  18.810  0.00  0.00    +0.000 A 
ATOM      7  C   UNL     1       3.762   4.663  18.568  0.00  0.00    +0.000 A 
ATOM      8  C   UNL     1       4.612   4.384  17.488  0.00  0.00    +0.000 A 
ATOM      9  C   UNL     1       5.003   5.396  16.610  0.00  0.00    +0.000 A 
ATOM     10  C   UNL     1       4.528   6.688  16.839  0.00  0.00    +0.000 A 
ATOM     11  C   UNL     1       3.672   6.954  17.919  0.00  0.00    +0.000 A 
BRANCH   6  13
ATOM     12  C   UNL     1       1.684   5.136  20.542  0.00  0.00    +0.000 C 
ATOM     13  N   UNL     1       2.404   6.218  19.881  0.00  0.00    +0.000 N 
ATOM     14  C   UNL     1       1.936   7.578  20.115  0.00  0.00    +0.000 C 
ENDBRANCH   6  13
ENDBRANCH   1   9
BRANCH   4  15
ATOM     15  C   UNL     1       6.802   3.789  12.312  0.00  0.00    +0.000 C 
BRANCH  15  16
ATOM     16  C   UNL     1       5.606   2.927  11.901  0.00  0.00    +0.000 C 
BRANCH  16  17
ATOM     17  N   UNL     1       6.016   1.561  11.574  0.00  0.00    +0.000 NA
ATOM     18  H   UNL     1       6.502   1.144  12.367  0.00  0.00    +0.000 HD
ATOM     19  H   UNL     1       6.698   1.592  10.814  0.00  0.00    +0.000 HD
ENDBRANCH  16  17
ENDBRANCH  15  16
ENDBRANCH   4  15
TORSDOF 5
ENDMDL
MODEL 4
REMARK VINA RESULT:      -6.5      0.161      1.448
REMARK  Name = 
REMARK  7 active torsions:
REMARK  status: ('A' for Active; 'I' for Inactive)
REMARK    1  A    between atoms: C_1  and  N_2
REMARK    2  A    between atoms: N_2  and  C_3
REMARK    3  A    between atoms: N_2  and  C_4
REMARK    4  A    between atoms: C_7  and  C_8
REMARK    5  A    between atoms: C_11  and  C_12
REMARK    6  A    between atoms: C_12  and  C_13
REMARK    7  A    between atoms: C_13  and  N_14
REMARK                            x       y       z     vdW  Elec       q    Type
REMARK                         _______ _______ _______ _____ _____    ______ ____
ROOT
ATOM      1  C   UNL     1       6.010   4.776  15.816  0.00  0.00    +0.000 A 
ATOM      2  N   UNL     1       7.096   5.568  15.805  0.00  0.00    +0.000 NA
ATOM      3  O   UNL     1       7.618   5.405  14.527  0.00  0.00    +0.000 OA
ATOM      4  C   UNL     1       6.796   4.530  13.884  0.00  0.00    +0.000 A 
ATOM      5  N   UNL     1       5.801   4.107  14.628  0.00  0.00    +0.000 NA
ENDROOT
BRANCH   1   9
ATOM      6  C   UNL     1       3.360   4.369  19.203  0.00  0.00    +0.000 A 
ATOM      7  C   UNL     1       3.148   3.671  18.005  0.00  0.00    +0.000 A 
ATOM      8  C   UNL     1       3.999   3.806  16.899  0.00  0.00    +0.000 A 
ATOM      9  C   UNL     1       5.116   4.641  16.957  0.00  0.00    +0.000 A 
ATOM     10  C   UNL     1       5.361   5.332  18.144  0.00  0.00    +0.000 A 
ATOM     11  C   UNL     1       4.498   5.195  19.243  0.00  0.00    +0.000 A 
BRANCH   6  13
ATOM     12  C   UNL     1       1.782   5.393  20.812  0.00  0.00    +0.000 C 
ATOM     13  N   UNL     1       2.507   4.237  20.298  0.00  0.00    +0.000 N 
ATOM     14  C   UNL     1       2.605   3.067  21.161  0.00  0.00    +0.000 C 
ENDBRANCH   6  13
ENDBRANCH   1   9
BRANCH   4  15
ATOM     15  C   UNL     1       7.118   4.227  12.473  0.00  0.00    +0.000 C 
BRANCH  15  16
ATOM     16  C   UNL     1       6.313   3.020  11.988  0.00  0.00    +0.000 C 
BRANCH  16  17
ATOM     17  N   UNL     1       4.894   3.347  11.840  0.00  0.00    +0.000 NA
ATOM     18  H   UNL     1       4.620   4.033  12.542  0.00  0.00    +0.000 HD
ATOM     19  H   UNL     1       4.339   2.512  12.034  0.00  0.00    +0.000 HD
ENDBRANCH  16  17
ENDBRANCH  15  16
ENDBRANCH   4  15
TORSDOF 5
ENDMDL
MODEL 5
REMARK VINA RESULT:      -6.4      0.596      1.041
REMARK  Name = 
REMARK  7 active torsions:
REMARK  status: ('A' for Active; 'I' for Inactive)
REMARK    1  A    between atoms: C_1  and  N_2
REMARK    2  A    between atoms: N_2  and  C_3
REMARK    3  A    between atoms: N_2  and  C_4
REMARK    4  A    between atoms: C_7  and  C_8
REMARK    5  A    between atoms: C_11  and  C_12
REMARK    6  A    between atoms: C_12  and  C_13
REMARK    7  A    between atoms: C_13  and  N_14
REMARK                            x       y       z     vdW  Elec       q    Type
REMARK                         _______ _______ _______ _____ _____    ______ ____
ROOT
ATOM      1  C   UNL     1       5.947   4.730  15.830  0.00  0.00    +0.000 A 
ATOM      2  N   UNL     1       7.045   5.504  15.786  0.00  0.00    +0.000 NA
ATOM      3  O   UNL     1       7.564   5.279  14.516  0.00  0.00    +0.000 OA
ATOM      4  C   UNL     1       6.729   4.391  13.910  0.00  0.00    +0.000 A 
ATOM      5  N   UNL     1       5.727   4.015  14.670  0.00  0.00    +0.000 NA
ENDROOT
BRANCH   1   9
ATOM      6  C   UNL     1       3.285   4.522  19.225  0.00  0.00    +0.000 A 
ATOM      7  C   UNL     1       4.472   5.269  19.255  0.00  0.00    +0.000 A 
ATOM      8  C   UNL     1       5.344   5.333  18.160  0.00  0.00    +0.000 A 
ATOM      9  C   UNL     1       5.051   4.657  16.974  0.00  0.00    +0.000 A 
ATOM     10  C   UNL     1       3.867   3.921  16.911  0.00  0.00    +0.000 A 
ATOM     11  C   UNL     1       3.004   3.859  18.016  0.00  0.00    +0.000 A 
BRANCH   6  13
ATOM     12  C   UNL     1       1.772   5.660  20.818  0.00  0.00    +0.000 C 
ATOM     13  N   UNL     1       2.424   4.455  20.319  0.00  0.00    +0.000 N 
ATOM     14  C   UNL     1       2.448   3.292  21.197  0.00  0.00    +0.000 C 
ENDBRANCH   6  13
ENDBRANCH   1   9
BRANCH   4  15
ATOM     15  C   UNL     1       7.046   4.024  12.512  0.00  0.00    +0.000 C 
BRANCH  15  16
ATOM     16  C   UNL     1       5.930   3.161  11.921  0.00  0.00    +0.000 C 
BRANCH  16  17
ATOM     17  N   UNL     1       6.395   1.802  11.640  0.00  0.00    +0.000 NA
ATOM     18  H   UNL     1       7.011   1.806  10.827  0.00  0.00    +0.000 HD
ATOM     19  H   UNL     1       5.594   1.224  11.380  0.00  0.00    +0.000 HD
ENDBRANCH  16  17
ENDBRANCH  15  16
ENDBRANCH   4  15
TORSDOF 5
ENDMDL
MODEL 6
REMARK VINA RESULT:      -6.2      1.480      1.615
REMARK  Name = 
REMARK  7 active torsions:
REMARK  status: ('A' for Active; 'I' for Inactive)
REMARK    1  A    between atoms: C_1  and  N_2
REMARK    2  A    between atoms: N_2  and  C_3
REMARK    3  A    between atoms: N_2  and  C_4
REMARK    4  A    between atoms: C_7  and  C_8
REMARK    5  A    between atoms: C_11  and  C_12
REMARK    6  A    between atoms: C_12  and  C_13
REMARK    7  A    between atoms: C_13  and  N_14
REMARK                            x       y       z     vdW  Elec       q    Type
REMARK                         _______ _______ _______ _____ _____    ______ ____
ROOT
ATOM      1  C   UNL     1       5.951   5.012  14.961  0.00  0.00    +0.000 A 
ATOM      2  N   UNL     1       7.129   5.599  14.688  0.00  0.00    +0.000 NA
ATOM      3  O   UNL     1       7.534   5.004  13.499  0.00  0.00    +0.000 OA
ATOM      4  C   UNL     1       6.560   4.113  13.163  0.00  0.00    +0.000 A 
ATOM      5  N   UNL     1       5.572   4.071  14.026  0.00  0.00    +0.000 NA
ENDROOT
BRANCH   1   9
ATOM      6  C   UNL     1       3.504   5.990  18.384  0.00  0.00    +0.000 A 
ATOM      7  C   UNL     1       4.245   6.964  17.696  0.00  0.00    +0.000 A 
ATOM      8  C   UNL     1       5.048   6.651  16.590  0.00  0.00    +0.000 A 
ATOM      9  C   UNL     1       5.129   5.341  16.116  0.00  0.00    +0.000 A 
ATOM     10  C   UNL     1       4.387   4.356  16.770  0.00  0.00    +0.000 A 
ATOM     11  C   UNL     1       3.591   4.679  17.881  0.00  0.00    +0.000 A 
BRANCH   6  13
ATOM     12  C   UNL     1       2.227   5.252  20.371  0.00  0.00    +0.000 C 
ATOM     13  N   UNL     1       2.713   6.305  19.487  0.00  0.00    +0.000 N 
ATOM     14  C   UNL     1       2.059   7.605  19.568  0.00  0.00    +0.000 C 
ENDBRANCH   6  13
ENDBRANCH   1   9
BRANCH   4  15
ATOM     15  C   UNL     1       6.740   3.377  11.893  0.00  0.00    +0.000 C 
BRANCH  15  16
ATOM     16  C   UNL     1       5.575   2.411  11.666  0.00  0.00    +0.000 C 
BRANCH  16  17
ATOM     17  N   UNL     1       6.050   1.074  11.303  0.00  0.00    +0.000 NA
ATOM     18  H   UNL     1       6.277   0.546  12.145  0.00  0.00    +0.000 HD
ATOM     19  H   UNL     1       6.925   1.163  10.785  0.00  0.00    +0.000 HD
ENDBRANCH  16  17
ENDBRANCH  15  16
ENDBRANCH   4  15
TORSDOF 5
ENDMDL
MODEL 7
REMARK VINA RESULT:      -6.2      1.040      1.040
REMARK  Name = 
REMARK  7 active torsions:
REMARK  status: ('A' for Active; 'I' for Inactive)
REMARK    1  A    between atoms: C_1  and  N_2
REMARK    2  A    between atoms: N_2  and  C_3
REMARK    3  A    between atoms: N_2  and  C_4
REMARK    4  A    between atoms: C_7  and  C_8
REMARK    5  A    between atoms: C_11  and  C_12
REMARK    6  A    between atoms: C_12  and  C_13
REMARK    7  A    between atoms: C_13  and  N_14
REMARK                            x       y       z     vdW  Elec       q    Type
REMARK                         _______ _______ _______ _____ _____    ______ ____
ROOT
ATOM      1  C   UNL     1       6.038   4.919  15.708  0.00  0.00    +0.000 A 
ATOM      2  N   UNL     1       7.235   5.489  15.928  0.00  0.00    +0.000 NA
ATOM      3  O   UNL     1       7.870   5.422  14.693  0.00  0.00    +0.000 OA
ATOM      4  C   UNL     1       6.995   4.819  13.842  0.00  0.00    +0.000 A 
ATOM      5  N   UNL     1       5.862   4.483  14.411  0.00  0.00    +0.000 NA
ENDROOT
BRANCH   1   9
ATOM      6  C   UNL     1       2.965   4.524  18.719  0.00  0.00    +0.000 A 
ATOM      7  C   UNL     1       3.442   5.776  18.302  0.00  0.00    +0.000 A 
ATOM      8  C   UNL     1       4.446   5.911  17.333  0.00  0.00    +0.000 A 
ATOM      9  C   UNL     1       5.004   4.785  16.725  0.00  0.00    +0.000 A 
ATOM     10  C   UNL     1       4.534   3.528  17.106  0.00  0.00    +0.000 A 
ATOM     11  C   UNL     1       3.533   3.405  18.083  0.00  0.00    +0.000 A 
BRANCH   6  13
ATOM     12  C   UNL     1       0.930   3.385  19.547  0.00  0.00    +0.000 C 
ATOM     13  N   UNL     1       1.972   4.396  19.688  0.00  0.00    +0.000 N 
ATOM     14  C   UNL     1       1.737   5.475  20.638  0.00  0.00    +0.000 C 
ENDBRANCH   6  13
ENDBRANCH   1   9
BRANCH   4  15
ATOM     15  C   UNL     1       7.427   4.673  12.434  0.00  0.00    +0.000 C 
BRANCH  15  16
ATOM     16  C   UNL     1       6.428   3.816  11.655  0.00  0.00    +0.000 C 
BRANCH  16  17
ATOM     17  N   UNL     1       6.424   2.432  12.129  0.00  0.00    +0.000 NA
ATOM     18  H   UNL     1       5.761   2.329  12.897  0.00  0.00    +0.000 HD
ATOM     19  H   UNL     1       7.341   2.213  12.522  0.00  0.00    +0.000 HD
ENDBRANCH  16  17
ENDBRANCH  15  16
ENDBRANCH   4  15
TORSDOF 5
ENDMDL
MODEL 8
REMARK VINA RESULT:      -6.1      3.693      5.153
REMARK  Name = 
REMARK  7 active torsions:
REMARK  status: ('A' for Active; 'I' for Inactive)
REMARK    1  A    between atoms: C_1  and  N_2
REMARK    2  A    between atoms: N_2  and  C_3
REMARK    3  A    between atoms: N_2  and  C_4
REMARK    4  A    between atoms: C_7  and  C_8
REMARK    5  A    between atoms: C_11  and  C_12
REMARK    6  A    between atoms: C_12  and  C_13
REMARK    7  A    between atoms: C_13  and  N_14
REMARK                            x       y       z     vdW  Elec       q    Type
REMARK                         _______ _______ _______ _____ _____    ______ ____
ROOT
ATOM      1  C   UNL     1       3.292   6.112  17.846  0.00  0.00    +0.000 A 
ATOM      2  N   UNL     1       2.930   4.817  17.842  0.00  0.00    +0.000 NA
ATOM      3  O   UNL     1       3.919   4.194  17.089  0.00  0.00    +0.000 OA
ATOM      4  C   UNL     1       4.788   5.172  16.710  0.00  0.00    +0.000 A 
ATOM      5  N   UNL     1       4.449   6.365  17.139  0.00  0.00    +0.000 NA
ENDROOT
BRANCH   1   9
ATOM      6  C   UNL     1       1.105   9.211  19.913  0.00  0.00    +0.000 A 
ATOM      7  C   UNL     1       1.439   9.316  18.554  0.00  0.00    +0.000 A 
ATOM      8  C   UNL     1       2.157   8.318  17.880  0.00  0.00    +0.000 A 
ATOM      9  C   UNL     1       2.557   7.157  18.543  0.00  0.00    +0.000 A 
ATOM     10  C   UNL     1       2.220   7.018  19.891  0.00  0.00    +0.000 A 
ATOM     11  C   UNL     1       1.507   8.027  20.557  0.00  0.00    +0.000 A 
BRANCH   6  13
ATOM     12  C   UNL     1       0.205  10.137  22.024  0.00  0.00    +0.000 C 
ATOM     13  N   UNL     1       0.397  10.209  20.580  0.00  0.00    +0.000 N 
ATOM     14  C   UNL     1      -0.462  11.118  19.832  0.00  0.00    +0.000 C 
ENDBRANCH   6  13
ENDBRANCH   1   9
BRANCH   4  15
ATOM     15  C   UNL     1       5.969   4.747  15.928  0.00  0.00    +0.000 C 
BRANCH  15  16
ATOM     16  C   UNL     1       7.172   4.536  16.849  0.00  0.00    +0.000 C 
BRANCH  16  17
ATOM     17  N   UNL     1       6.752   4.262  18.225  0.00  0.00    +0.000 NA
ATOM     18  H   UNL     1       6.979   5.057  18.822  0.00  0.00    +0.000 HD
ATOM     19  H   UNL     1       7.294   3.476  18.587  0.00  0.00    +0.000 HD
ENDBRANCH  16  17
ENDBRANCH  15  16
ENDBRANCH   4  15
TORSDOF 5
ENDMDL
MODEL 9
REMARK VINA RESULT:      -6.0      3.492      4.725
REMARK  Name = 
REMARK  7 active torsions:
REMARK  status: ('A' for Active; 'I' for Inactive)
REMARK    1  A    between atoms: C_1  and  N_2
REMARK    2  A    between atoms: N_2  and  C_3
REMARK    3  A    between atoms: N_2  and  C_4
REMARK    4  A    between atoms: C_7  and  C_8
REMARK    5  A    between atoms: C_11  and  C_12
REMARK    6  A    between atoms: C_12  and  C_13
REMARK    7  A    between atoms: C_13  and  N_14
REMARK                            x       y       z     vdW  Elec       q    Type
REMARK                         _______ _______ _______ _____ _____    ______ ____
ROOT
ATOM      1  C   UNL     1       4.036   5.902  18.098  0.00  0.00    +0.000 A 
ATOM      2  N   UNL     1       4.770   5.177  18.961  0.00  0.00    +0.000 NA
ATOM      3  O   UNL     1       5.510   4.331  18.144  0.00  0.00    +0.000 OA
ATOM      4  C   UNL     1       5.156   4.625  16.862  0.00  0.00    +0.000 A 
ATOM      5  N   UNL     1       4.252   5.573  16.776  0.00  0.00    +0.000 NA
ENDROOT
BRANCH   1   9
ATOM      6  C   UNL     1       1.303   9.024  19.299  0.00  0.00    +0.000 A 
ATOM      7  C   UNL     1       1.615   7.945  20.140  0.00  0.00    +0.000 A 
ATOM      8  C   UNL     1       2.494   6.924  19.752  0.00  0.00    +0.000 A 
ATOM      9  C   UNL     1       3.113   6.952  18.501  0.00  0.00    +0.000 A 
ATOM     10  C   UNL     1       2.835   8.025  17.653  0.00  0.00    +0.000 A 
ATOM     11  C   UNL     1       1.948   9.039  18.049  0.00  0.00    +0.000 A 
BRANCH   6  13
ATOM     12  C   UNL     1       0.270  10.377  21.095  0.00  0.00    +0.000 C 
ATOM     13  N   UNL     1       0.423  10.033  19.686  0.00  0.00    +0.000 N 
ATOM     14  C   UNL     1      -0.608  10.494  18.766  0.00  0.00    +0.000 C 
ENDBRANCH   6  13
ENDBRANCH   1   9
BRANCH   4  15
ATOM     15  C   UNL     1       5.852   3.880  15.791  0.00  0.00    +0.000 C 
BRANCH  15  16
ATOM     16  C   UNL     1       6.977   4.729  15.195  0.00  0.00    +0.000 C 
BRANCH  16  17
ATOM     17  N   UNL     1       7.334   5.842  16.076  0.00  0.00    +0.000 NA
ATOM     18  H   UNL     1       7.432   6.699  15.531  0.00  0.00    +0.000 HD
ATOM     19  H   UNL     1       8.253   5.663  16.482  0.00  0.00    +0.000 HD
ENDBRANCH  16  17
ENDBRANCH  15  16
ENDBRANCH   4  15
TORSDOF 5
ENDMDL
