MODEL 1
REMARK VINA RESULT:      -8.0      0.000      0.000
REMARK  Name = 
REMARK  8 active torsions:
REMARK  status: ('A' for Active; 'I' for Inactive)
REMARK    1  A    between atoms: C_1  and  C_2
REMARK    2  A    between atoms: C_2  and  C_3
REMARK    3  A    between atoms: C_7  and  C_8
REMARK    4  A    between atoms: C_11  and  C_12
REMARK    5  A    between atoms: N_20  and  C_21
REMARK    6  A    between atoms: C_24  and  C_25
REMARK    7  A    between atoms: C_27  and  C_28
REMARK    8  A    between atoms: C_29  and  C_30
REMARK                            x       y       z     vdW  Elec       q    Type
REMARK                         _______ _______ _______ _____ _____    ______ ____
ROOT
ATOM      1  C   UNL     1      -0.932  11.124  21.850  0.00  0.00    +0.000 A 
ATOM      2  N   UNL     1      -0.499  11.144  23.132  0.00  0.00    +0.000 NA
ATOM      3  C   UNL     1       0.400  10.214  23.475  0.00  0.00    +0.000 A 
ATOM      4  N   UNL     1       0.929   9.296  22.658  0.00  0.00    +0.000 NA
ATOM      5  C   UNL     1       0.493   9.297  21.372  0.00  0.00    +0.000 A 
ATOM      6  C   UNL     1      -0.487  10.186  20.924  0.00  0.00    +0.000 A 
ENDROOT
BRANCH   5   7
ATOM      7  C   UNL     1       1.119   8.258  20.520  0.00  0.00    +0.000 A 
ATOM      8  C   UNL     1       1.448   8.490  19.175  0.00  0.00    +0.000 A 
ATOM      9  C   UNL     1       1.854   7.456  18.336  0.00  0.00    +0.000 A 
ATOM     10  C   UNL     1       2.023   6.166  18.845  0.00  0.00    +0.000 A 
ATOM     11  C   UNL     1       1.794   5.908  20.207  0.00  0.00    +0.000 A 
ATOM     12  C   UNL     1       1.960   4.569  20.870  0.00  0.00    +0.000 C 
ATOM     13  C   UNL     1       1.364   6.970  21.028  0.00  0.00    +0.000 A 
BRANCH  10  14
ATOM     14  C   UNL     1       2.405   5.139  17.846  0.00  0.00    +0.000 C 
ATOM     15  O   UNL     1       1.535   4.388  17.416  0.00  0.00    +0.000 OA
ATOM     16  N   UNL     1       3.713   5.107  17.416  0.00  0.00    +0.000 N 
ATOM     17  C   UNL     1       4.160   4.160  16.426  0.00  0.00    +0.000 C 
ATOM     18  C   UNL     1       5.662   4.107  16.654  0.00  0.00    +0.000 C 
ATOM     19  C   UNL     1       6.043   5.475  17.282  0.00  0.00    +0.000 C 
ATOM     20  C   UNL     1       6.864   5.308  18.579  0.00  0.00    +0.000 C 
ATOM     21  C   UNL     1       8.153   6.084  18.348  0.00  0.00    +0.000 C 
ATOM     22  N   UNL     1       7.859   7.053  17.289  0.00  0.00    +0.000 NA
ATOM     23  C   UNL     1       7.305   8.295  17.823  0.00  0.00    +0.000 C 
ATOM     24  C   UNL     1       6.935   6.344  16.390  0.00  0.00    +0.000 C 
ATOM     25  C   UNL     1       4.692   6.165  17.542  0.00  0.00    +0.000 C 
ENDBRANCH  10  14
ENDBRANCH   5   7
BRANCH   1  27
ATOM     26  C   UNL     1      -2.929  12.447  22.521  0.00  0.00    +0.000 C 
ATOM     27  C   UNL     1      -1.859  12.248  21.458  0.00  0.00    +0.000 C 
ENDBRANCH   1  27
BRANCH   6  28
ATOM     28  C   UNL     1      -1.023  10.156  19.591  0.00  0.00    +0.000 C 
ATOM     29  C   UNL     1      -1.544  10.146  18.503  0.00  0.00    +0.000 C 
BRANCH  29  30
ATOM     30  C   UNL     1      -2.246  10.144  17.265  0.00  0.00    +0.000 A 
ATOM     31  C   UNL     1      -1.791   9.407  16.176  0.00  0.00    +0.000 A 
ATOM     32  C   UNL     1      -2.497   9.461  14.976  0.00  0.00    +0.000 A 
ATOM     33  C   UNL     1      -3.631  10.263  14.891  0.00  0.00    +0.000 A 
ATOM     34  N   UNL     1      -4.377  10.313  13.720  0.00  0.00    +0.000 N 
ATOM     35  N   UNL     1      -4.087  10.987  15.929  0.00  0.00    +0.000 NA
ATOM     36  C   UNL     1      -3.389  10.912  17.089  0.00  0.00    +0.000 A 
ATOM     37  H   UNL     1      -3.807  10.525  12.910  0.00  0.00    +0.000 HD
ATOM     38  H   UNL     1      -5.113  10.999  13.863  0.00  0.00    +0.000 HD
ENDBRANCH  29  30
ENDBRANCH   6  28
TORSDOF 5
ENDMDL
MODEL 2
REMARK VINA RESULT:      -7.9      2.602      8.987
REMARK  Name = 
REMARK  8 active torsions:
REMARK  status: ('A' for Active; 'I' for Inactive)
REMARK    1  A    between atoms: C_1  and  C_2
REMARK    2  A    between atoms: C_2  and  C_3
REMARK    3  A    between atoms: C_7  and  C_8
REMARK    4  A    between atoms: C_11  and  C_12
REMARK    5  A    between atoms: N_20  and  C_21
REMARK    6  A    between atoms: C_24  and  C_25
REMARK    7  A    between atoms: C_27  and  C_28
REMARK    8  A    between atoms: C_29  and  C_30
REMARK                            x       y       z     vdW  Elec       q    Type
REMARK                         _______ _______ _______ _____ _____    ______ ____
ROOT
ATOM      1  C   UNL     1       3.289   2.878  20.109  0.00  0.00    +0.000 A 
ATOM      2  N   UNL     1       2.586   2.510  21.205  0.00  0.00    +0.000 NA
ATOM      3  C   UNL     1       1.783   3.438  21.740  0.00  0.00    +0.000 A 
ATOM      4  N   UNL     1       1.591   4.675  21.268  0.00  0.00    +0.000 NA
ATOM      5  C   UNL     1       2.295   5.024  20.161  0.00  0.00    +0.000 A 
ATOM      6  C   UNL     1       3.206   4.152  19.557  0.00  0.00    +0.000 A 
ENDROOT
BRANCH   5   7
ATOM      7  C   UNL     1       2.037   6.405  19.689  0.00  0.00    +0.000 A 
ATOM      8  C   UNL     1       2.351   6.824  18.387  0.00  0.00    +0.000 A 
ATOM      9  C   UNL     1       2.284   8.164  18.016  0.00  0.00    +0.000 A 
ATOM     10  C   UNL     1       1.815   9.119  18.921  0.00  0.00    +0.000 A 
ATOM     11  C   UNL     1       1.402   8.730  20.207  0.00  0.00    +0.000 A 
ATOM     12  C   UNL     1       0.864   9.661  21.258  0.00  0.00    +0.000 C 
ATOM     13  C   UNL     1       1.500   7.369  20.561  0.00  0.00    +0.000 A 
BRANCH  10  14
ATOM     14  C   UNL     1       1.840  10.518  18.432  0.00  0.00    +0.000 C 
ATOM     15  O   UNL     1       2.927  11.038  18.200  0.00  0.00    +0.000 OA
ATOM     16  N   UNL     1       0.636  11.152  18.220  0.00  0.00    +0.000 N 
ATOM     17  C   UNL     1       0.571  12.501  17.718  0.00  0.00    +0.000 C 
ATOM     18  C   UNL     1      -0.814  12.961  18.144  0.00  0.00    +0.000 C 
ATOM     19  C   UNL     1      -1.668  11.671  18.268  0.00  0.00    +0.000 C 
ATOM     20  C   UNL     1      -2.388  11.581  19.630  0.00  0.00    +0.000 C 
ATOM     21  C   UNL     1      -3.868  11.439  19.301  0.00  0.00    +0.000 C 
ATOM     22  N   UNL     1      -3.930  10.925  17.929  0.00  0.00    +0.000 NA
ATOM     23  C   UNL     1      -3.867   9.466  17.889  0.00  0.00    +0.000 C 
ATOM     24  C   UNL     1      -2.803  11.574  17.243  0.00  0.00    +0.000 C 
ATOM     25  C   UNL     1      -0.659  10.525  18.074  0.00  0.00    +0.000 C 
ENDBRANCH  10  14
ENDBRANCH   5   7
BRANCH   1  27
ATOM     26  C   UNL     1       3.413   1.298  18.190  0.00  0.00    +0.000 C 
ATOM     27  C   UNL     1       4.100   1.784  19.458  0.00  0.00    +0.000 C 
ENDBRANCH   1  27
BRANCH   6  28
ATOM     28  C   UNL     1       4.021   4.523  18.434  0.00  0.00    +0.000 C 
ATOM     29  C   UNL     1       4.722   4.759  17.481  0.00  0.00    +0.000 C 
BRANCH  29  30
ATOM     30  C   UNL     1       5.575   4.941  16.356  0.00  0.00    +0.000 A 
ATOM     31  C   UNL     1       5.300   4.335  15.134  0.00  0.00    +0.000 A 
ATOM     32  C   UNL     1       6.182   4.520  14.071  0.00  0.00    +0.000 A 
ATOM     33  C   UNL     1       7.323   5.292  14.262  0.00  0.00    +0.000 A 
ATOM     34  N   UNL     1       8.205   5.523  13.214  0.00  0.00    +0.000 N 
ATOM     35  N   UNL     1       7.611   5.883  15.435  0.00  0.00    +0.000 NA
ATOM     36  C   UNL     1       6.735   5.696  16.452  0.00  0.00    +0.000 A 
ATOM     37  H   UNL     1       8.504   4.666  12.765  0.00  0.00    +0.000 HD
ATOM     38  H   UNL     1       8.987   6.053  13.591  0.00  0.00    +0.000 HD
ENDBRANCH  29  30
ENDBRANCH   6  28
TORSDOF 5
ENDMDL
MODEL 3
REMARK VINA RESULT:      -7.8      7.550     10.420
REMARK  Name = 
REMARK  8 active torsions:
REMARK  status: ('A' for Active; 'I' for Inactive)
REMARK    1  A    between atoms: C_1  and  C_2
REMARK    2  A    between atoms: C_2  and  C_3
REMARK    3  A    between atoms: C_7  and  C_8
REMARK    4  A    between atoms: C_11  and  C_12
REMARK    5  A    between atoms: N_20  and  C_21
REMARK    6  A    between atoms: C_24  and  C_25
REMARK    7  A    between atoms: C_27  and  C_28
REMARK    8  A    between atoms: C_29  and  C_30
REMARK                            x       y       z     vdW  Elec       q    Type
REMARK                         _______ _______ _______ _____ _____    ______ ____
ROOT
ATOM      1  C   UNL     1       2.168  15.634  20.644  0.00  0.00    +0.000 A 
ATOM      2  N   UNL     1       1.299  16.350  19.895  0.00  0.00    +0.000 NA
ATOM      3  C   UNL     1       1.809  16.992  18.836  0.00  0.00    +0.000 A 
ATOM      4  N   UNL     1       3.085  16.956  18.439  0.00  0.00    +0.000 NA
ATOM      5  C   UNL     1       3.942  16.223  19.194  0.00  0.00    +0.000 A 
ATOM      6  C   UNL     1       3.526  15.562  20.354  0.00  0.00    +0.000 A 
ENDROOT
BRANCH   5   7
ATOM      7  C   UNL     1       5.340  16.224  18.701  0.00  0.00    +0.000 A 
ATOM      8  C   UNL     1       5.821  15.251  17.811  0.00  0.00    +0.000 A 
ATOM      9  C   UNL     1       7.176  15.148  17.507  0.00  0.00    +0.000 A 
ATOM     10  C   UNL     1       8.082  16.078  18.023  0.00  0.00    +0.000 A 
ATOM     11  C   UNL     1       7.629  17.125  18.844  0.00  0.00    +0.000 A 
ATOM     12  C   UNL     1       8.505  18.191  19.441  0.00  0.00    +0.000 C 
ATOM     13  C   UNL     1       6.256  17.191  19.151  0.00  0.00    +0.000 A 
BRANCH  10  14
ATOM     14  C   UNL     1       9.503  15.835  17.674  0.00  0.00    +0.000 C 
ATOM     15  O   UNL     1      10.103  16.693  17.033  0.00  0.00    +0.000 OA
ATOM     16  N   UNL     1      10.092  14.675  18.125  0.00  0.00    +0.000 N 
ATOM     17  C   UNL     1      11.476  14.377  17.856  0.00  0.00    +0.000 C 
ATOM     18  C   UNL     1      11.543  12.868  18.031  0.00  0.00    +0.000 C 
ATOM     19  C   UNL     1      10.393  12.504  19.007  0.00  0.00    +0.000 C 
ATOM     20  C   UNL     1       9.493  11.381  18.449  0.00  0.00    +0.000 C 
ATOM     21  C   UNL     1       9.512  10.282  19.503  0.00  0.00    +0.000 C 
ATOM     22  N   UNL     1       9.896  10.932  20.759  0.00  0.00    +0.000 NA
ATOM     23  C   UNL     1       8.741  11.477  21.468  0.00  0.00    +0.000 C 
ATOM     24  C   UNL     1      10.869  11.959  20.358  0.00  0.00    +0.000 C 
ATOM     25  C   UNL     1       9.618  13.821  19.193  0.00  0.00    +0.000 C 
ENDBRANCH  10  14
ENDBRANCH   5   7
BRANCH   1  27
ATOM     26  C   UNL     1       0.597  15.697  22.572  0.00  0.00    +0.000 C 
ATOM     27  C   UNL     1       1.553  14.831  21.765  0.00  0.00    +0.000 C 
ENDBRANCH   1  27
BRANCH   6  28
ATOM     28  C   UNL     1       4.427  14.846  21.215  0.00  0.00    +0.000 C 
ATOM     29  C   UNL     1       5.184  14.309  21.985  0.00  0.00    +0.000 C 
BRANCH  29  30
ATOM     30  C   UNL     1       6.085  13.760  22.941  0.00  0.00    +0.000 A 
ATOM     31  C   UNL     1       5.855  12.518  23.523  0.00  0.00    +0.000 A 
ATOM     32  C   UNL     1       6.751  12.038  24.477  0.00  0.00    +0.000 A 
ATOM     33  C   UNL     1       7.844  12.820  24.835  0.00  0.00    +0.000 A 
ATOM     34  N   UNL     1       8.774  12.357  25.757  0.00  0.00    +0.000 N 
ATOM     35  N   UNL     1       8.084  14.025  24.288  0.00  0.00    +0.000 NA
ATOM     36  C   UNL     1       7.204  14.468  23.357  0.00  0.00    +0.000 A 
ATOM     37  H   UNL     1       8.341  12.048  26.619  0.00  0.00    +0.000 HD
ATOM     38  H   UNL     1       9.444  13.106  25.910  0.00  0.00    +0.000 HD
ENDBRANCH  29  30
ENDBRANCH   6  28
TORSDOF 5
ENDMDL
MODEL 4
REMARK VINA RESULT:      -7.8      0.983      1.044
REMARK  Name = 
REMARK  8 active torsions:
REMARK  status: ('A' for Active; 'I' for Inactive)
REMARK    1  A    between atoms: C_1  and  C_2
REMARK    2  A    between atoms: C_2  and  C_3
REMARK    3  A    between atoms: C_7  and  C_8
REMARK    4  A    between atoms: C_11  and  C_12
REMARK    5  A    between atoms: N_20  and  C_21
REMARK    6  A    between atoms: C_24  and  C_25
REMARK    7  A    between atoms: C_27  and  C_28
REMARK    8  A    between atoms: C_29  and  C_30
REMARK                            x       y       z     vdW  Elec       q    Type
REMARK                         _______ _______ _______ _____ _____    ______ ____
ROOT
ATOM      1  C   UNL     1      -1.037  12.175  20.635  0.00  0.00    +0.000 A 
ATOM      2  N   UNL     1      -0.529  12.519  21.842  0.00  0.00    +0.000 NA
ATOM      3  C   UNL     1       0.435  11.731  22.332  0.00  0.00    +0.000 A 
ATOM      4  N   UNL     1       0.960  10.663  21.722  0.00  0.00    +0.000 NA
ATOM      5  C   UNL     1       0.449  10.338  20.507  0.00  0.00    +0.000 A 
ATOM      6  C   UNL     1      -0.601  11.059  19.929  0.00  0.00    +0.000 A 
ENDROOT
BRANCH   5   7
ATOM      7  C   UNL     1       1.074   9.147  19.884  0.00  0.00    +0.000 A 
ATOM      8  C   UNL     1       1.407   9.101  18.521  0.00  0.00    +0.000 A 
ATOM      9  C   UNL     1       1.813   7.918  17.910  0.00  0.00    +0.000 A 
ATOM     10  C   UNL     1       1.978   6.758  18.669  0.00  0.00    +0.000 A 
ATOM     11  C   UNL     1       1.744   6.782  20.056  0.00  0.00    +0.000 A 
ATOM     12  C   UNL     1       1.905   5.604  20.976  0.00  0.00    +0.000 C 
ATOM     13  C   UNL     1       1.315   7.988  20.643  0.00  0.00    +0.000 A 
BRANCH  10  14
ATOM     14  C   UNL     1       2.360   5.549  17.900  0.00  0.00    +0.000 C 
ATOM     15  O   UNL     1       1.472   4.789  17.526  0.00  0.00    +0.000 OA
ATOM     16  N   UNL     1       3.693   5.362  17.607  0.00  0.00    +0.000 N 
ATOM     17  C   UNL     1       4.144   4.229  16.839  0.00  0.00    +0.000 C 
ATOM     18  C   UNL     1       5.614   4.125  17.212  0.00  0.00    +0.000 C 
ATOM     19  C   UNL     1       6.047   5.556  17.631  0.00  0.00    +0.000 C 
ATOM     20  C   UNL     1       6.743   5.571  19.008  0.00  0.00    +0.000 C 
ATOM     21  C   UNL     1       8.103   6.213  18.770  0.00  0.00    +0.000 C 
ATOM     22  N   UNL     1       7.972   6.997  17.538  0.00  0.00    +0.000 NA
ATOM     23  C   UNL     1       7.473   8.345  17.799  0.00  0.00    +0.000 C 
ATOM     24  C   UNL     1       7.072   6.199  16.691  0.00  0.00    +0.000 C 
ATOM     25  C   UNL     1       4.736   6.363  17.641  0.00  0.00    +0.000 C 
ENDBRANCH  10  14
ENDBRANCH   5   7
BRANCH   1  27
ATOM     26  C   UNL     1      -3.427  12.865  20.620  0.00  0.00    +0.000 C 
ATOM     27  C   UNL     1      -2.042  13.139  20.053  0.00  0.00    +0.000 C 
ENDBRANCH   1  27
BRANCH   6  28
ATOM     28  C   UNL     1      -1.214  10.690  18.683  0.00  0.00    +0.000 C 
ATOM     29  C   UNL     1      -1.746  10.456  17.626  0.00  0.00    +0.000 C 
BRANCH  29  30
ATOM     30  C   UNL     1      -2.403  10.275  16.377  0.00  0.00    +0.000 A 
ATOM     31  C   UNL     1      -2.020   9.267  15.497  0.00  0.00    +0.000 A 
ATOM     32  C   UNL     1      -2.674   9.150  14.272  0.00  0.00    +0.000 A 
ATOM     33  C   UNL     1      -3.683  10.052  13.952  0.00  0.00    +0.000 A 
ATOM     34  N   UNL     1      -4.378   9.943  12.755  0.00  0.00    +0.000 N 
ATOM     35  N   UNL     1      -4.067  11.037  14.785  0.00  0.00    +0.000 NA
ATOM     36  C   UNL     1      -3.423  11.126  15.974  0.00  0.00    +0.000 A 
ATOM     37  H   UNL     1      -3.760   9.899  11.953  0.00  0.00    +0.000 HD
ATOM     38  H   UNL     1      -5.017  10.732  12.705  0.00  0.00    +0.000 HD
ENDBRANCH  29  30
ENDBRANCH   6  28
TORSDOF 5
ENDMDL
MODEL 5
REMARK VINA RESULT:      -7.8      6.498     10.116
REMARK  Name = 
REMARK  8 active torsions:
REMARK  status: ('A' for Active; 'I' for Inactive)
REMARK    1  A    between atoms: C_1  and  C_2
REMARK    2  A    between atoms: C_2  and  C_3
REMARK    3  A    between atoms: C_7  and  C_8
REMARK    4  A    between atoms: C_11  and  C_12
REMARK    5  A    between atoms: N_20  and  C_21
REMARK    6  A    between atoms: C_24  and  C_25
REMARK    7  A    between atoms: C_27  and  C_28
REMARK    8  A    between atoms: C_29  and  C_30
REMARK                            x       y       z     vdW  Elec       q    Type
REMARK                         _______ _______ _______ _____ _____    ______ ____
ROOT
ATOM      1  C   UNL     1       1.845  14.309  19.917  0.00  0.00    +0.000 A 
ATOM      2  N   UNL     1       2.809  14.918  20.646  0.00  0.00    +0.000 NA
ATOM      3  C   UNL     1       2.540  15.124  21.941  0.00  0.00    +0.000 A 
ATOM      4  N   UNL     1       1.425  14.752  22.578  0.00  0.00    +0.000 NA
ATOM      5  C   UNL     1       0.472  14.131  21.836  0.00  0.00    +0.000 A 
ATOM      6  C   UNL     1       0.626  13.920  20.462  0.00  0.00    +0.000 A 
ENDROOT
BRANCH   5   7
ATOM      7  C   UNL     1      -0.737  13.744  22.601  0.00  0.00    +0.000 A 
ATOM      8  C   UNL     1      -1.227  12.429  22.613  0.00  0.00    +0.000 A 
ATOM      9  C   UNL     1      -2.463  12.117  23.173  0.00  0.00    +0.000 A 
ATOM     10  C   UNL     1      -3.210  13.106  23.817  0.00  0.00    +0.000 A 
ATOM     11  C   UNL     1      -2.714  14.419  23.909  0.00  0.00    +0.000 A 
ATOM     12  C   UNL     1      -3.417  15.559  24.591  0.00  0.00    +0.000 C 
ATOM     13  C   UNL     1      -1.470  14.709  23.315  0.00  0.00    +0.000 A 
BRANCH  10  14
ATOM     14  C   UNL     1      -4.532  12.668  24.326  0.00  0.00    +0.000 C 
ATOM     15  O   UNL     1      -4.606  12.249  25.477  0.00  0.00    +0.000 OA
ATOM     16  N   UNL     1      -5.621  12.794  23.493  0.00  0.00    +0.000 N 
ATOM     17  C   UNL     1      -6.945  12.420  23.920  0.00  0.00    +0.000 C 
ATOM     18  C   UNL     1      -7.683  12.205  22.609  0.00  0.00    +0.000 C 
ATOM     19  C   UNL     1      -6.951  13.088  21.563  0.00  0.00    +0.000 C 
ATOM     20  C   UNL     1      -6.558  12.289  20.302  0.00  0.00    +0.000 C 
ATOM     21  C   UNL     1      -7.197  13.029  19.135  0.00  0.00    +0.000 C 
ATOM     22  N   UNL     1      -7.433  14.398  19.603  0.00  0.00    +0.000 NA
ATOM     23  C   UNL     1      -6.266  15.254  19.398  0.00  0.00    +0.000 C 
ATOM     24  C   UNL     1      -7.799  14.243  21.019  0.00  0.00    +0.000 C 
ATOM     25  C   UNL     1      -5.717  13.623  22.311  0.00  0.00    +0.000 C 
ENDBRANCH  10  14
ENDBRANCH   5   7
BRANCH   1  27
ATOM     26  C   UNL     1       3.152  15.049  17.933  0.00  0.00    +0.000 C 
ATOM     27  C   UNL     1       2.213  13.988  18.489  0.00  0.00    +0.000 C 
ENDBRANCH   1  27
BRANCH   6  28
ATOM     28  C   UNL     1      -0.398  13.339  19.638  0.00  0.00    +0.000 C 
ATOM     29  C   UNL     1      -1.210  12.789  18.936  0.00  0.00    +0.000 C 
BRANCH  29  30
ATOM     30  C   UNL     1      -2.101  12.070  18.091  0.00  0.00    +0.000 A 
ATOM     31  C   UNL     1      -3.362  11.680  18.531  0.00  0.00    +0.000 A 
ATOM     32  C   UNL     1      -4.185  10.951  17.676  0.00  0.00    +0.000 A 
ATOM     33  C   UNL     1      -3.721  10.618  16.407  0.00  0.00    +0.000 A 
ATOM     34  N   UNL     1      -4.529   9.922  15.517  0.00  0.00    +0.000 N 
ATOM     35  N   UNL     1      -2.505  10.980  15.961  0.00  0.00    +0.000 NA
ATOM     36  C   UNL     1      -1.724  11.696  16.808  0.00  0.00    +0.000 A 
ATOM     37  H   UNL     1      -4.907   9.074  15.923  0.00  0.00    +0.000 HD
ATOM     38  H   UNL     1      -3.972   9.736  14.688  0.00  0.00    +0.000 HD
ENDBRANCH  29  30
ENDBRANCH   6  28
TORSDOF 5
ENDMDL
MODEL 6
REMARK VINA RESULT:      -7.3      4.961     10.878
REMARK  Name = 
REMARK  8 active torsions:
REMARK  status: ('A' for Active; 'I' for Inactive)
REMARK    1  A    between atoms: C_1  and  C_2
REMARK    2  A    between atoms: C_2  and  C_3
REMARK    3  A    between atoms: C_7  and  C_8
REMARK    4  A    between atoms: C_11  and  C_12
REMARK    5  A    between atoms: N_20  and  C_21
REMARK    6  A    between atoms: C_24  and  C_25
REMARK    7  A    between atoms: C_27  and  C_28
REMARK    8  A    between atoms: C_29  and  C_30
REMARK                            x       y       z     vdW  Elec       q    Type
REMARK                         _______ _______ _______ _____ _____    ______ ____
ROOT
ATOM      1  C   UNL     1       0.831  10.118  19.905  0.00  0.00    +0.000 A 
ATOM      2  N   UNL     1       0.854   8.872  20.435  0.00  0.00    +0.000 NA
ATOM      3  C   UNL     1       0.263   8.718  21.626  0.00  0.00    +0.000 A 
ATOM      4  N   UNL     1      -0.375   9.671  22.314  0.00  0.00    +0.000 NA
ATOM      5  C   UNL     1      -0.400  10.912  21.763  0.00  0.00    +0.000 A 
ATOM      6  C   UNL     1       0.238  11.197  20.552  0.00  0.00    +0.000 A 
ENDROOT
BRANCH   5   7
ATOM      7  C   UNL     1      -1.122  11.921  22.573  0.00  0.00    +0.000 A 
ATOM      8  C   UNL     1      -2.355  11.649  23.185  0.00  0.00    +0.000 A 
ATOM      9  C   UNL     1      -3.112  12.655  23.779  0.00  0.00    +0.000 A 
ATOM     10  C   UNL     1      -2.612  13.957  23.851  0.00  0.00    +0.000 A 
ATOM     11  C   UNL     1      -1.340  14.256  23.333  0.00  0.00    +0.000 A 
ATOM     12  C   UNL     1      -0.691  15.611  23.369  0.00  0.00    +0.000 C 
ATOM     13  C   UNL     1      -0.606  13.221  22.720  0.00  0.00    +0.000 A 
BRANCH  10  14
ATOM     14  C   UNL     1      -3.530  14.953  24.456  0.00  0.00    +0.000 C 
ATOM     15  O   UNL     1      -3.201  15.487  25.511  0.00  0.00    +0.000 OA
ATOM     16  N   UNL     1      -4.688  15.262  23.778  0.00  0.00    +0.000 N 
ATOM     17  C   UNL     1      -5.619  16.241  24.282  0.00  0.00    +0.000 C 
ATOM     18  C   UNL     1      -6.915  15.879  23.574  0.00  0.00    +0.000 C 
ATOM     19  C   UNL     1      -6.494  15.170  22.258  0.00  0.00    +0.000 C 
ATOM     20  C   UNL     1      -7.203  13.811  22.080  0.00  0.00    +0.000 C 
ATOM     21  C   UNL     1      -7.915  13.895  20.737  0.00  0.00    +0.000 C 
ATOM     22  N   UNL     1      -7.226  14.942  19.977  0.00  0.00    +0.000 NA
ATOM     23  C   UNL     1      -6.078  14.417  19.241  0.00  0.00    +0.000 C 
ATOM     24  C   UNL     1      -6.858  15.946  20.988  0.00  0.00    +0.000 C 
ATOM     25  C   UNL     1      -4.968  15.011  22.381  0.00  0.00    +0.000 C 
ENDBRANCH  10  14
ENDBRANCH   5   7
BRANCH   1  27
ATOM     26  C   UNL     1       2.025   8.925  18.076  0.00  0.00    +0.000 C 
ATOM     27  C   UNL     1       1.405  10.244  18.515  0.00  0.00    +0.000 C 
ENDBRANCH   1  27
BRANCH   6  28
ATOM     28  C   UNL     1       0.295  12.516  19.986  0.00  0.00    +0.000 C 
ATOM     29  C   UNL     1       0.417  13.609  19.490  0.00  0.00    +0.000 C 
BRANCH  29  30
ATOM     30  C   UNL     1       0.656  14.877  18.889  0.00  0.00    +0.000 A 
ATOM     31  C   UNL     1       1.935  15.265  18.502  0.00  0.00    +0.000 A 
ATOM     32  C   UNL     1       2.123  16.529  17.947  0.00  0.00    +0.000 A 
ATOM     33  C   UNL     1       1.029  17.378  17.807  0.00  0.00    +0.000 A 
ATOM     34  N   UNL     1       1.175  18.631  17.225  0.00  0.00    +0.000 N 
ATOM     35  N   UNL     1      -0.215  17.026  18.177  0.00  0.00    +0.000 NA
ATOM     36  C   UNL     1      -0.374  15.788  18.707  0.00  0.00    +0.000 A 
ATOM     37  H   UNL     1       1.913  19.173  17.660  0.00  0.00    +0.000 HD
ATOM     38  H   UNL     1       0.273  19.095  17.281  0.00  0.00    +0.000 HD
ENDBRANCH  29  30
ENDBRANCH   6  28
TORSDOF 5
ENDMDL
MODEL 7
REMARK VINA RESULT:      -7.2      6.099     10.240
REMARK  Name = 
REMARK  8 active torsions:
REMARK  status: ('A' for Active; 'I' for Inactive)
REMARK    1  A    between atoms: C_1  and  C_2
REMARK    2  A    between atoms: C_2  and  C_3
REMARK    3  A    between atoms: C_7  and  C_8
REMARK    4  A    between atoms: C_11  and  C_12
REMARK    5  A    between atoms: N_20  and  C_21
REMARK    6  A    between atoms: C_24  and  C_25
REMARK    7  A    between atoms: C_27  and  C_28
REMARK    8  A    between atoms: C_29  and  C_30
REMARK                            x       y       z     vdW  Elec       q    Type
REMARK                         _______ _______ _______ _____ _____    ______ ____
ROOT
ATOM      1  C   UNL     1       2.106  15.170  20.579  0.00  0.00    +0.000 A 
ATOM      2  N   UNL     1       2.792  16.058  21.335  0.00  0.00    +0.000 NA
ATOM      3  C   UNL     1       2.276  16.347  22.536  0.00  0.00    +0.000 A 
ATOM      4  N   UNL     1       1.169  15.811  23.063  0.00  0.00    +0.000 NA
ATOM      5  C   UNL     1       0.498  14.914  22.296  0.00  0.00    +0.000 A 
ATOM      6  C   UNL     1       0.917  14.585  21.003  0.00  0.00    +0.000 A 
ENDROOT
BRANCH   5   7
ATOM      7  C   UNL     1      -0.718  14.358  22.936  0.00  0.00    +0.000 A 
ATOM      8  C   UNL     1      -1.072  13.004  22.825  0.00  0.00    +0.000 A 
ATOM      9  C   UNL     1      -2.307  12.535  23.264  0.00  0.00    +0.000 A 
ATOM     10  C   UNL     1      -3.195  13.399  23.909  0.00  0.00    +0.000 A 
ATOM     11  C   UNL     1      -2.842  14.743  24.125  0.00  0.00    +0.000 A 
ATOM     12  C   UNL     1      -3.705  15.759  24.821  0.00  0.00    +0.000 C 
ATOM     13  C   UNL     1      -1.594  15.193  23.651  0.00  0.00    +0.000 A 
BRANCH  10  14
ATOM     14  C   UNL     1      -4.499  12.800  24.283  0.00  0.00    +0.000 C 
ATOM     15  O   UNL     1      -4.605  12.270  25.385  0.00  0.00    +0.000 OA
ATOM     16  N   UNL     1      -5.541  12.908  23.389  0.00  0.00    +0.000 N 
ATOM     17  C   UNL     1      -6.848  12.380  23.687  0.00  0.00    +0.000 C 
ATOM     18  C   UNL     1      -7.479  12.226  22.312  0.00  0.00    +0.000 C 
ATOM     19  C   UNL     1      -6.769  13.265  21.403  0.00  0.00    +0.000 C 
ATOM     20  C   UNL     1      -6.225  12.625  20.108  0.00  0.00    +0.000 C 
ATOM     21  C   UNL     1      -6.856  13.413  18.968  0.00  0.00    +0.000 C 
ATOM     22  N   UNL     1      -7.249  14.706  19.537  0.00  0.00    +0.000 NA
ATOM     23  C   UNL     1      -6.157  15.676  19.492  0.00  0.00    +0.000 C 
ATOM     24  C   UNL     1      -7.686  14.386  20.904  0.00  0.00    +0.000 C 
ATOM     25  C   UNL     1      -5.641  13.833  22.281  0.00  0.00    +0.000 C 
ENDBRANCH  10  14
ENDBRANCH   5   7
BRANCH   1  27
ATOM     26  C   UNL     1       3.021  16.008  18.423  0.00  0.00    +0.000 C 
ATOM     27  C   UNL     1       2.763  14.777  19.279  0.00  0.00    +0.000 C 
ENDBRANCH   1  27
BRANCH   6  28
ATOM     28  C   UNL     1       0.183  13.700  20.141  0.00  0.00    +0.000 C 
ATOM     29  C   UNL     1      -0.462  12.923  19.483  0.00  0.00    +0.000 C 
BRANCH  29  30
ATOM     30  C   UNL     1      -1.248  11.959  18.789  0.00  0.00    +0.000 A 
ATOM     31  C   UNL     1      -0.666  10.851  18.184  0.00  0.00    +0.000 A 
ATOM     32  C   UNL     1      -1.475   9.952  17.490  0.00  0.00    +0.000 A 
ATOM     33  C   UNL     1      -2.842  10.194  17.408  0.00  0.00    +0.000 A 
ATOM     34  N   UNL     1      -3.681   9.301  16.754  0.00  0.00    +0.000 N 
ATOM     35  N   UNL     1      -3.426  11.261  17.982  0.00  0.00    +0.000 NA
ATOM     36  C   UNL     1      -2.620  12.117  18.658  0.00  0.00    +0.000 A 
ATOM     37  H   UNL     1      -3.364   9.092  15.815  0.00  0.00    +0.000 HD
ATOM     38  H   UNL     1      -4.615   9.703  16.764  0.00  0.00    +0.000 HD
ENDBRANCH  29  30
ENDBRANCH   6  28
TORSDOF 5
ENDMDL
MODEL 8
REMARK VINA RESULT:      -7.2      7.183     10.269
REMARK  Name = 
REMARK  8 active torsions:
REMARK  status: ('A' for Active; 'I' for Inactive)
REMARK    1  A    between atoms: C_1  and  C_2
REMARK    2  A    between atoms: C_2  and  C_3
REMARK    3  A    between atoms: C_7  and  C_8
REMARK    4  A    between atoms: C_11  and  C_12
REMARK    5  A    between atoms: N_20  and  C_21
REMARK    6  A    between atoms: C_24  and  C_25
REMARK    7  A    between atoms: C_27  and  C_28
REMARK    8  A    between atoms: C_29  and  C_30
REMARK                            x       y       z     vdW  Elec       q    Type
REMARK                         _______ _______ _______ _____ _____    ______ ____
ROOT
ATOM      1  C   UNL     1       1.644  14.300  20.447  0.00  0.00    +0.000 A 
ATOM      2  N   UNL     1       0.700  14.781  19.605  0.00  0.00    +0.000 NA
ATOM      3  C   UNL     1       1.130  15.560  18.606  0.00  0.00    +0.000 A 
ATOM      4  N   UNL     1       2.405  15.872  18.348  0.00  0.00    +0.000 NA
ATOM      5  C   UNL     1       3.341  15.372  19.195  0.00  0.00    +0.000 A 
ATOM      6  C   UNL     1       2.996  14.597  20.306  0.00  0.00    +0.000 A 
ENDROOT
BRANCH   5   7
ATOM      7  C   UNL     1       4.733  15.754  18.854  0.00  0.00    +0.000 A 
ATOM      8  C   UNL     1       5.451  15.127  17.824  0.00  0.00    +0.000 A 
ATOM      9  C   UNL     1       6.812  15.358  17.640  0.00  0.00    +0.000 A 
ATOM     10  C   UNL     1       7.478  16.293  18.436  0.00  0.00    +0.000 A 
ATOM     11  C   UNL     1       6.776  17.011  19.420  0.00  0.00    +0.000 A 
ATOM     12  C   UNL     1       7.379  18.052  20.321  0.00  0.00    +0.000 C 
ATOM     13  C   UNL     1       5.404  16.742  19.596  0.00  0.00    +0.000 A 
BRANCH  10  14
ATOM     14  C   UNL     1       8.934  16.412  18.185  0.00  0.00    +0.000 C 
ATOM     15  O   UNL     1       9.365  17.467  17.728  0.00  0.00    +0.000 OA
ATOM     16  N   UNL     1       9.739  15.346  18.519  0.00  0.00    +0.000 N 
ATOM     17  C   UNL     1      11.167  15.391  18.335  0.00  0.00    +0.000 C 
ATOM     18  C   UNL     1      11.557  13.922  18.301  0.00  0.00    +0.000 C 
ATOM     19  C   UNL     1      10.462  13.175  19.109  0.00  0.00    +0.000 C 
ATOM     20  C   UNL     1       9.867  11.990  18.320  0.00  0.00    +0.000 C 
ATOM     21  C   UNL     1      10.069  10.768  19.205  0.00  0.00    +0.000 C 
ATOM     22  N   UNL     1      10.228  11.279  20.570  0.00  0.00    +0.000 NA
ATOM     23  C   UNL     1       8.942  11.450  21.243  0.00  0.00    +0.000 C 
ATOM     24  C   UNL     1      10.970  12.538  20.406  0.00  0.00    +0.000 C 
ATOM     25  C   UNL     1       9.407  14.255  19.409  0.00  0.00    +0.000 C 
ENDBRANCH  10  14
ENDBRANCH   5   7
BRANCH   1  27
ATOM     26  C   UNL     1      -0.340  13.534  21.738  0.00  0.00    +0.000 C 
ATOM     27  C   UNL     1       1.150  13.337  21.498  0.00  0.00    +0.000 C 
ENDBRANCH   1  27
BRANCH   6  28
ATOM     28  C   UNL     1       3.958  14.122  21.261  0.00  0.00    +0.000 C 
ATOM     29  C   UNL     1       4.795  13.797  22.067  0.00  0.00    +0.000 C 
BRANCH  29  30
ATOM     30  C   UNL     1       5.821  13.504  23.009  0.00  0.00    +0.000 A 
ATOM     31  C   UNL     1       6.721  14.480  23.427  0.00  0.00    +0.000 A 
ATOM     32  C   UNL     1       7.727  14.136  24.327  0.00  0.00    +0.000 A 
ATOM     33  C   UNL     1       7.817  12.822  24.775  0.00  0.00    +0.000 A 
ATOM     34  N   UNL     1       8.786  12.453  25.698  0.00  0.00    +0.000 N 
ATOM     35  N   UNL     1       6.961  11.861  24.381  0.00  0.00    +0.000 NA
ATOM     36  C   UNL     1       5.986  12.221  23.511  0.00  0.00    +0.000 A 
ATOM     37  H   UNL     1       9.718  12.728  25.410  0.00  0.00    +0.000 HD
ATOM     38  H   UNL     1       8.706  11.448  25.833  0.00  0.00    +0.000 HD
ENDBRANCH  29  30
ENDBRANCH   6  28
TORSDOF 5
ENDMDL
MODEL 9
REMARK VINA RESULT:      -7.2      5.352      9.371
REMARK  Name = 
REMARK  8 active torsions:
REMARK  status: ('A' for Active; 'I' for Inactive)
REMARK    1  A    between atoms: C_1  and  C_2
REMARK    2  A    between atoms: C_2  and  C_3
REMARK    3  A    between atoms: C_7  and  C_8
REMARK    4  A    between atoms: C_11  and  C_12
REMARK    5  A    between atoms: N_20  and  C_21
REMARK    6  A    between atoms: C_24  and  C_25
REMARK    7  A    between atoms: C_27  and  C_28
REMARK    8  A    between atoms: C_29  and  C_30
REMARK                            x       y       z     vdW  Elec       q    Type
REMARK                         _______ _______ _______ _____ _____    ______ ____
ROOT
ATOM      1  C   UNL     1       2.420  15.813  21.693  0.00  0.00    +0.000 A 
ATOM      2  N   UNL     1       3.519  16.134  20.971  0.00  0.00    +0.000 NA
ATOM      3  C   UNL     1       3.676  15.497  19.804  0.00  0.00    +0.000 A 
ATOM      4  N   UNL     1       2.829  14.604  19.279  0.00  0.00    +0.000 NA
ATOM      5  C   UNL     1       1.726  14.302  20.009  0.00  0.00    +0.000 A 
ATOM      6  C   UNL     1       1.495  14.865  21.268  0.00  0.00    +0.000 A 
ENDROOT
BRANCH   5   7
ATOM      7  C   UNL     1       0.829  13.309  19.372  0.00  0.00    +0.000 A 
ATOM      8  C   UNL     1       0.043  13.619  18.251  0.00  0.00    +0.000 A 
ATOM      9  C   UNL     1      -0.932  12.744  17.781  0.00  0.00    +0.000 A 
ATOM     10  C   UNL     1      -1.092  11.489  18.373  0.00  0.00    +0.000 A 
ATOM     11  C   UNL     1      -0.263  11.101  19.440  0.00  0.00    +0.000 A 
ATOM     12  C   UNL     1      -0.330   9.773  20.143  0.00  0.00    +0.000 C 
ATOM     13  C   UNL     1       0.701  12.015  19.907  0.00  0.00    +0.000 A 
BRANCH  10  14
ATOM     14  C   UNL     1      -2.198  10.668  17.823  0.00  0.00    +0.000 C 
ATOM     15  O   UNL     1      -1.916   9.703  17.119  0.00  0.00    +0.000 OA
ATOM     16  N   UNL     1      -3.488  11.005  18.167  0.00  0.00    +0.000 N 
ATOM     17  C   UNL     1      -4.617  10.241  17.699  0.00  0.00    +0.000 C 
ATOM     18  C   UNL     1      -5.774  11.218  17.837  0.00  0.00    +0.000 C 
ATOM     19  C   UNL     1      -5.361  12.207  18.959  0.00  0.00    +0.000 C 
ATOM     20  C   UNL     1      -5.499  13.679  18.514  0.00  0.00    +0.000 C 
ATOM     21  C   UNL     1      -6.422  14.328  19.536  0.00  0.00    +0.000 C 
ATOM     22  N   UNL     1      -6.352  13.490  20.736  0.00  0.00    +0.000 NA
ATOM     23  C   UNL     1      -5.248  13.880  21.611  0.00  0.00    +0.000 C 
ATOM     24  C   UNL     1      -6.228  12.119  20.219  0.00  0.00    +0.000 C 
ATOM     25  C   UNL     1      -3.900  11.837  19.275  0.00  0.00    +0.000 C 
ENDBRANCH  10  14
ENDBRANCH   5   7
BRANCH   1  27
ATOM     26  C   UNL     1       1.656  17.998  22.603  0.00  0.00    +0.000 C 
ATOM     27  C   UNL     1       2.206  16.622  22.948  0.00  0.00    +0.000 C 
ENDBRANCH   1  27
BRANCH   6  28
ATOM     28  C   UNL     1       0.378  14.503  22.097  0.00  0.00    +0.000 C 
ATOM     29  C   UNL     1      -0.589  14.159  22.731  0.00  0.00    +0.000 C 
BRANCH  29  30
ATOM     30  C   UNL     1      -1.766  13.714  23.396  0.00  0.00    +0.000 A 
ATOM     31  C   UNL     1      -2.448  14.536  24.288  0.00  0.00    +0.000 A 
ATOM     32  C   UNL     1      -3.578  14.043  24.937  0.00  0.00    +0.000 A 
ATOM     33  C   UNL     1      -3.988  12.738  24.689  0.00  0.00    +0.000 A 
ATOM     34  N   UNL     1      -5.130  12.227  25.293  0.00  0.00    +0.000 N 
ATOM     35  N   UNL     1      -3.343  11.924  23.834  0.00  0.00    +0.000 NA
ATOM     36  C   UNL     1      -2.251  12.428  23.208  0.00  0.00    +0.000 A 
ATOM     37  H   UNL     1      -5.118  12.343  26.300  0.00  0.00    +0.000 HD
ATOM     38  H   UNL     1      -5.203  11.250  25.020  0.00  0.00    +0.000 HD
ENDBRANCH  29  30
ENDBRANCH   6  28
TORSDOF 5
ENDMDL
