MODEL 1
REMARK VINA RESULT:      -8.4      0.000      0.000
REMARK  Name = 
REMARK  7 active torsions:
REMARK  status: ('A' for Active; 'I' for Inactive)
REMARK    1  A    between atoms: C_1  and  C_2
REMARK    2  A    between atoms: C_2  and  C_3
REMARK    3  A    between atoms: C_3  and  C_4
REMARK    4  A    between atoms: C_6  and  S_7
REMARK    5  A    between atoms: C_17  and  C_18
REMARK    6  A    between atoms: C_22  and  C_23
REMARK    7  A    between atoms: C_23  and  O_25
REMARK                            x       y       z     vdW  Elec       q    Type
REMARK                         _______ _______ _______ _____ _____    ______ ____
ROOT
ATOM      1  C   UNL     1       3.591   7.091  17.806  0.00  0.00    +0.000 A 
ATOM      2  C   UNL     1       2.896   8.311  17.850  0.00  0.00    +0.000 A 
ATOM      3  C   UNL     1       1.927   8.558  18.842  0.00  0.00    +0.000 A 
ATOM      4  C   UNL     1       1.711   7.593  19.842  0.00  0.00    +0.000 A 
ATOM      5  C   UNL     1       2.378   6.370  19.793  0.00  0.00    +0.000 A 
ATOM      6  C   UNL     1       3.287   6.107  18.765  0.00  0.00    +0.000 A 
ATOM      7  O   UNL     1       3.837   4.874  18.698  0.00  0.00    +0.000 OA
ATOM      8  C   UNL     1       3.195   3.742  19.189  0.00  0.00    +0.000 C 
ATOM      9  C   UNL     1       2.492   4.031  20.519  0.00  0.00    +0.000 C 
ATOM     10  C   UNL     1       2.100   5.301  20.775  0.00  0.00    +0.000 C 
ENDROOT
BRANCH   3  11
ATOM     11  S   UNL     1       0.871  10.040  18.755  0.00  0.00    +0.000 S 
ATOM     12  F   UNL     1      -0.118  11.430  18.637  0.00  0.00    +0.000 F 
ATOM     13  F   UNL     1      -0.310   9.305  19.755  0.00  0.00    +0.000 F 
ATOM     14  F   UNL     1       0.115   9.404  17.354  0.00  0.00    +0.000 F 
ATOM     15  F   UNL     1       2.021  10.810  17.745  0.00  0.00    +0.000 F 
ATOM     16  F   UNL     1       1.618  10.694  20.149  0.00  0.00    +0.000 F 
ENDBRANCH   3  11
BRANCH   8  17
ATOM     17  C   UNL     1       2.174   3.213  18.132  0.00  0.00    +0.000 C 
ATOM     18  F   UNL     1       2.602   3.496  16.844  0.00  0.00    +0.000 F 
ATOM     19  F   UNL     1       2.044   1.842  18.246  0.00  0.00    +0.000 F 
ATOM     20  F   UNL     1       0.919   3.783  18.289  0.00  0.00    +0.000 F 
ENDBRANCH   8  17
BRANCH   9  21
ATOM     21  C   UNL     1       2.107   2.922  21.447  0.00  0.00    +0.000 C 
ATOM     22  O   UNL     1       2.971   2.290  22.034  0.00  0.00    +0.000 OA
BRANCH  21  23
ATOM     23  O   UNL     1       0.813   2.606  21.679  0.00  0.00    +0.000 OA
ATOM     24  H   UNL     1       0.375   2.736  22.529  0.00  0.00    +0.000 HD
ENDBRANCH  21  23
ENDBRANCH   9  21
BRANCH   1  25
ATOM     25  C   UNL     1       4.575   6.822  16.686  0.00  0.00    +0.000 C 
BRANCH  25  27
ATOM     26  C   UNL     1       6.853   5.750  16.803  0.00  0.00    +0.000 C 
ATOM     27  C   UNL     1       6.033   6.993  17.136  0.00  0.00    +0.000 C 
ENDBRANCH  25  27
ENDBRANCH   1  25
TORSDOF 6
ENDMDL
MODEL 2
REMARK VINA RESULT:      -8.4      0.099      1.249
REMARK  Name = 
REMARK  7 active torsions:
REMARK  status: ('A' for Active; 'I' for Inactive)
REMARK    1  A    between atoms: C_1  and  C_2
REMARK    2  A    between atoms: C_2  and  C_3
REMARK    3  A    between atoms: C_3  and  C_4
REMARK    4  A    between atoms: C_6  and  S_7
REMARK    5  A    between atoms: C_17  and  C_18
REMARK    6  A    between atoms: C_22  and  C_23
REMARK    7  A    between atoms: C_23  and  O_25
REMARK                            x       y       z     vdW  Elec       q    Type
REMARK                         _______ _______ _______ _____ _____    ______ ____
ROOT
ATOM      1  C   UNL     1       3.652   7.041  17.766  0.00  0.00    +0.000 A 
ATOM      2  C   UNL     1       2.967   8.268  17.788  0.00  0.00    +0.000 A 
ATOM      3  C   UNL     1       1.988   8.535  18.765  0.00  0.00    +0.000 A 
ATOM      4  C   UNL     1       1.751   7.583  19.772  0.00  0.00    +0.000 A 
ATOM      5  C   UNL     1       2.408   6.352  19.744  0.00  0.00    +0.000 A 
ATOM      6  C   UNL     1       3.327   6.070  18.731  0.00  0.00    +0.000 A 
ATOM      7  O   UNL     1       3.867   4.833  18.684  0.00  0.00    +0.000 OA
ATOM      8  C   UNL     1       3.208   3.711  19.178  0.00  0.00    +0.000 C 
ATOM      9  C   UNL     1       2.492   4.020  20.496  0.00  0.00    +0.000 C 
ATOM     10  C   UNL     1       2.108   5.297  20.734  0.00  0.00    +0.000 C 
ENDROOT
BRANCH   3  11
ATOM     11  S   UNL     1       0.947  10.024  18.649  0.00  0.00    +0.000 S 
ATOM     12  F   UNL     1      -0.061  11.401  18.541  0.00  0.00    +0.000 F 
ATOM     13  F   UNL     1       1.763  10.745  19.971  0.00  0.00    +0.000 F 
ATOM     14  F   UNL     1      -0.186   9.300  19.712  0.00  0.00    +0.000 F 
ATOM     15  F   UNL     1       0.098   9.338  17.328  0.00  0.00    +0.000 F 
ATOM     16  F   UNL     1       2.063  10.762  17.582  0.00  0.00    +0.000 F 
ENDBRANCH   3  11
BRANCH   8  17
ATOM     17  C   UNL     1       2.196   3.180  18.114  0.00  0.00    +0.000 C 
ATOM     18  F   UNL     1       1.992   1.817  18.262  0.00  0.00    +0.000 F 
ATOM     19  F   UNL     1       0.977   3.813  18.264  0.00  0.00    +0.000 F 
ATOM     20  F   UNL     1       2.641   3.396  16.818  0.00  0.00    +0.000 F 
ENDBRANCH   8  17
BRANCH   9  21
ATOM     21  C   UNL     1       2.085   2.925  21.431  0.00  0.00    +0.000 C 
ATOM     22  O   UNL     1       2.935   2.299  22.044  0.00  0.00    +0.000 OA
BRANCH  21  23
ATOM     23  O   UNL     1       0.785   2.615  21.641  0.00  0.00    +0.000 OA
ATOM     24  H   UNL     1       0.305   2.841  22.447  0.00  0.00    +0.000 HD
ENDBRANCH  21  23
ENDBRANCH   9  21
BRANCH   1  25
ATOM     25  C   UNL     1       4.647   6.752  16.661  0.00  0.00    +0.000 C 
BRANCH  25  27
ATOM     26  C   UNL     1       6.979   5.807  16.814  0.00  0.00    +0.000 C 
ATOM     27  C   UNL     1       6.096   7.019  17.095  0.00  0.00    +0.000 C 
ENDBRANCH  25  27
ENDBRANCH   1  25
TORSDOF 6
ENDMDL
MODEL 3
REMARK VINA RESULT:      -8.3      0.095      1.346
REMARK  Name = 
REMARK  7 active torsions:
REMARK  status: ('A' for Active; 'I' for Inactive)
REMARK    1  A    between atoms: C_1  and  C_2
REMARK    2  A    between atoms: C_2  and  C_3
REMARK    3  A    between atoms: C_3  and  C_4
REMARK    4  A    between atoms: C_6  and  S_7
REMARK    5  A    between atoms: C_17  and  C_18
REMARK    6  A    between atoms: C_22  and  C_23
REMARK    7  A    between atoms: C_23  and  O_25
REMARK                            x       y       z     vdW  Elec       q    Type
REMARK                         _______ _______ _______ _____ _____    ______ ____
ROOT
ATOM      1  C   UNL     1       3.653   7.043  17.771  0.00  0.00    +0.000 A 
ATOM      2  C   UNL     1       2.960   8.265  17.792  0.00  0.00    +0.000 A 
ATOM      3  C   UNL     1       1.977   8.526  18.766  0.00  0.00    +0.000 A 
ATOM      4  C   UNL     1       1.743   7.572  19.772  0.00  0.00    +0.000 A 
ATOM      5  C   UNL     1       2.407   6.346  19.746  0.00  0.00    +0.000 A 
ATOM      6  C   UNL     1       3.331   6.070  18.735  0.00  0.00    +0.000 A 
ATOM      7  O   UNL     1       3.879   4.835  18.689  0.00  0.00    +0.000 OA
ATOM      8  C   UNL     1       3.225   3.710  19.181  0.00  0.00    +0.000 C 
ATOM      9  C   UNL     1       2.503   4.014  20.497  0.00  0.00    +0.000 C 
ATOM     10  C   UNL     1       2.111   5.288  20.734  0.00  0.00    +0.000 C 
ENDROOT
BRANCH   3  11
ATOM     11  S   UNL     1       0.927  10.009  18.648  0.00  0.00    +0.000 S 
ATOM     12  F   UNL     1      -0.061  11.403  18.574  0.00  0.00    +0.000 F 
ATOM     13  F   UNL     1       2.037  10.760  17.583  0.00  0.00    +0.000 F 
ATOM     14  F   UNL     1       1.737  10.676  20.003  0.00  0.00    +0.000 F 
ATOM     15  F   UNL     1      -0.209   9.299  19.718  0.00  0.00    +0.000 F 
ATOM     16  F   UNL     1       0.101   9.357  17.298  0.00  0.00    +0.000 F 
ENDBRANCH   3  11
BRANCH   8  17
ATOM     17  C   UNL     1       2.220   3.172  18.114  0.00  0.00    +0.000 C 
ATOM     18  F   UNL     1       2.687   3.407  16.830  0.00  0.00    +0.000 F 
ATOM     19  F   UNL     1       2.053   1.809  18.266  0.00  0.00    +0.000 F 
ATOM     20  F   UNL     1       0.975   3.776  18.221  0.00  0.00    +0.000 F 
ENDBRANCH   8  17
BRANCH   9  21
ATOM     21  C   UNL     1       2.100   2.916  21.431  0.00  0.00    +0.000 C 
ATOM     22  O   UNL     1       2.954   2.280  22.029  0.00  0.00    +0.000 OA
BRANCH  21  23
ATOM     23  O   UNL     1       0.801   2.614  21.655  0.00  0.00    +0.000 OA
ATOM     24  H   UNL     1       0.094   3.270  21.663  0.00  0.00    +0.000 HD
ENDBRANCH  21  23
ENDBRANCH   9  21
BRANCH   1  25
ATOM     25  C   UNL     1       4.653   6.760  16.669  0.00  0.00    +0.000 C 
BRANCH  25  27
ATOM     26  C   UNL     1       6.988   5.837  16.887  0.00  0.00    +0.000 C 
ATOM     27  C   UNL     1       6.096   7.057  17.101  0.00  0.00    +0.000 C 
ENDBRANCH  25  27
ENDBRANCH   1  25
TORSDOF 6
ENDMDL
MODEL 4
REMARK VINA RESULT:      -8.3      0.204      1.209
REMARK  Name = 
REMARK  7 active torsions:
REMARK  status: ('A' for Active; 'I' for Inactive)
REMARK    1  A    between atoms: C_1  and  C_2
REMARK    2  A    between atoms: C_2  and  C_3
REMARK    3  A    between atoms: C_3  and  C_4
REMARK    4  A    between atoms: C_6  and  S_7
REMARK    5  A    between atoms: C_17  and  C_18
REMARK    6  A    between atoms: C_22  and  C_23
REMARK    7  A    between atoms: C_23  and  O_25
REMARK                            x       y       z     vdW  Elec       q    Type
REMARK                         _______ _______ _______ _____ _____    ______ ____
ROOT
ATOM      1  C   UNL     1       3.677   7.035  17.767  0.00  0.00    +0.000 A 
ATOM      2  C   UNL     1       2.985   8.258  17.775  0.00  0.00    +0.000 A 
ATOM      3  C   UNL     1       1.992   8.524  18.737  0.00  0.00    +0.000 A 
ATOM      4  C   UNL     1       1.747   7.575  19.746  0.00  0.00    +0.000 A 
ATOM      5  C   UNL     1       2.411   6.349  19.733  0.00  0.00    +0.000 A 
ATOM      6  C   UNL     1       3.345   6.067  18.733  0.00  0.00    +0.000 A 
ATOM      7  O   UNL     1       3.892   4.832  18.699  0.00  0.00    +0.000 OA
ATOM      8  C   UNL     1       3.234   3.710  19.190  0.00  0.00    +0.000 C 
ATOM      9  C   UNL     1       2.498   4.021  20.497  0.00  0.00    +0.000 C 
ATOM     10  C   UNL     1       2.105   5.296  20.723  0.00  0.00    +0.000 C 
ENDROOT
BRANCH   3  11
ATOM     11  S   UNL     1       0.944  10.007  18.601  0.00  0.00    +0.000 S 
ATOM     12  F   UNL     1      -0.010  11.421  18.474  0.00  0.00    +0.000 F 
ATOM     13  F   UNL     1       0.100   9.338  17.271  0.00  0.00    +0.000 F 
ATOM     14  F   UNL     1       2.098  10.711  17.547  0.00  0.00    +0.000 F 
ATOM     15  F   UNL     1       1.767  10.720  19.926  0.00  0.00    +0.000 F 
ATOM     16  F   UNL     1      -0.217   9.324  19.658  0.00  0.00    +0.000 F 
ENDBRANCH   3  11
BRANCH   8  17
ATOM     17  C   UNL     1       2.238   3.167  18.115  0.00  0.00    +0.000 C 
ATOM     18  F   UNL     1       0.997   3.771  18.241  0.00  0.00    +0.000 F 
ATOM     19  F   UNL     1       2.718   3.437  16.848  0.00  0.00    +0.000 F 
ATOM     20  F   UNL     1       2.049   1.797  18.226  0.00  0.00    +0.000 F 
ENDBRANCH   8  17
BRANCH   9  21
ATOM     21  C   UNL     1       2.086   2.928  21.432  0.00  0.00    +0.000 C 
ATOM     22  O   UNL     1       2.933   2.287  22.033  0.00  0.00    +0.000 OA
BRANCH  21  23
ATOM     23  O   UNL     1       0.784   2.636  21.655  0.00  0.00    +0.000 OA
ATOM     24  H   UNL     1       0.054   3.068  21.197  0.00  0.00    +0.000 HD
ENDBRANCH  21  23
ENDBRANCH   9  21
BRANCH   1  25
ATOM     25  C   UNL     1       4.688   6.746  16.677  0.00  0.00    +0.000 C 
BRANCH  25  27
ATOM     26  C   UNL     1       6.943   6.040  17.554  0.00  0.00    +0.000 C 
ATOM     27  C   UNL     1       6.102   7.211  17.054  0.00  0.00    +0.000 C 
ENDBRANCH  25  27
ENDBRANCH   1  25
TORSDOF 6
ENDMDL
MODEL 5
REMARK VINA RESULT:      -8.0      0.262      1.698
REMARK  Name = 
REMARK  7 active torsions:
REMARK  status: ('A' for Active; 'I' for Inactive)
REMARK    1  A    between atoms: C_1  and  C_2
REMARK    2  A    between atoms: C_2  and  C_3
REMARK    3  A    between atoms: C_3  and  C_4
REMARK    4  A    between atoms: C_6  and  S_7
REMARK    5  A    between atoms: C_17  and  C_18
REMARK    6  A    between atoms: C_22  and  C_23
REMARK    7  A    between atoms: C_23  and  O_25
REMARK                            x       y       z     vdW  Elec       q    Type
REMARK                         _______ _______ _______ _____ _____    ______ ____
ROOT
ATOM      1  C   UNL     1       3.474   7.120  17.829  0.00  0.00    +0.000 A 
ATOM      2  C   UNL     1       2.767   8.332  17.915  0.00  0.00    +0.000 A 
ATOM      3  C   UNL     1       1.856   8.568  18.963  0.00  0.00    +0.000 A 
ATOM      4  C   UNL     1       1.712   7.601  19.974  0.00  0.00    +0.000 A 
ATOM      5  C   UNL     1       2.390   6.386  19.885  0.00  0.00    +0.000 A 
ATOM      6  C   UNL     1       3.240   6.133  18.804  0.00  0.00    +0.000 A 
ATOM      7  O   UNL     1       3.800   4.908  18.705  0.00  0.00    +0.000 OA
ATOM      8  C   UNL     1       3.202   3.768  19.232  0.00  0.00    +0.000 C 
ATOM      9  C   UNL     1       2.577   4.048  20.602  0.00  0.00    +0.000 C 
ATOM     10  C   UNL     1       2.185   5.314  20.881  0.00  0.00    +0.000 C 
ENDROOT
BRANCH   3  11
ATOM     11  S   UNL     1       0.778  10.036  18.940  0.00  0.00    +0.000 S 
ATOM     12  F   UNL     1      -0.237  11.412  18.955  0.00  0.00    +0.000 F 
ATOM     13  F   UNL     1       1.908  10.900  17.987  0.00  0.00    +0.000 F 
ATOM     14  F   UNL     1       1.527  10.593  20.377  0.00  0.00    +0.000 F 
ATOM     15  F   UNL     1      -0.378   9.211  19.901  0.00  0.00    +0.000 F 
ATOM     16  F   UNL     1       0.013   9.493  17.508  0.00  0.00    +0.000 F 
ENDBRANCH   3  11
BRANCH   8  17
ATOM     17  C   UNL     1       2.127   3.225  18.238  0.00  0.00    +0.000 C 
ATOM     18  F   UNL     1       0.848   3.528  18.679  0.00  0.00    +0.000 F 
ATOM     19  F   UNL     1       2.299   3.802  16.995  0.00  0.00    +0.000 F 
ATOM     20  F   UNL     1       2.202   1.848  18.092  0.00  0.00    +0.000 F 
ENDBRANCH   8  17
BRANCH   9  21
ATOM     21  C   UNL     1       2.262   2.936  21.552  0.00  0.00    +0.000 C 
ATOM     22  O   UNL     1       1.124   2.797  21.972  0.00  0.00    +0.000 OA
BRANCH  21  23
ATOM     23  O   UNL     1       3.204   2.052  21.951  0.00  0.00    +0.000 OA
ATOM     24  H   UNL     1       4.134   2.280  22.069  0.00  0.00    +0.000 HD
ENDBRANCH  21  23
ENDBRANCH   9  21
BRANCH   1  25
ATOM     25  C   UNL     1       4.391   6.863  16.652  0.00  0.00    +0.000 C 
BRANCH  25  27
ATOM     26  C   UNL     1       6.603   5.702  16.316  0.00  0.00    +0.000 C 
ATOM     27  C   UNL     1       5.870   6.811  17.066  0.00  0.00    +0.000 C 
ENDBRANCH  25  27
ENDBRANCH   1  25
TORSDOF 6
ENDMDL
MODEL 6
REMARK VINA RESULT:      -7.8      0.500      1.134
REMARK  Name = 
REMARK  7 active torsions:
REMARK  status: ('A' for Active; 'I' for Inactive)
REMARK    1  A    between atoms: C_1  and  C_2
REMARK    2  A    between atoms: C_2  and  C_3
REMARK    3  A    between atoms: C_3  and  C_4
REMARK    4  A    between atoms: C_6  and  S_7
REMARK    5  A    between atoms: C_17  and  C_18
REMARK    6  A    between atoms: C_22  and  C_23
REMARK    7  A    between atoms: C_23  and  O_25
REMARK                            x       y       z     vdW  Elec       q    Type
REMARK                         _______ _______ _______ _____ _____    ______ ____
ROOT
ATOM      1  C   UNL     1       3.248   7.226  17.934  0.00  0.00    +0.000 A 
ATOM      2  C   UNL     1       2.539   8.430  18.082  0.00  0.00    +0.000 A 
ATOM      3  C   UNL     1       1.675   8.633  19.176  0.00  0.00    +0.000 A 
ATOM      4  C   UNL     1       1.583   7.641  20.168  0.00  0.00    +0.000 A 
ATOM      5  C   UNL     1       2.264   6.433  20.017  0.00  0.00    +0.000 A 
ATOM      6  C   UNL     1       3.065   6.213  18.893  0.00  0.00    +0.000 A 
ATOM      7  O   UNL     1       3.627   4.995  18.738  0.00  0.00    +0.000 OA
ATOM      8  C   UNL     1       3.060   3.838  19.263  0.00  0.00    +0.000 C 
ATOM      9  C   UNL     1       2.496   4.080  20.667  0.00  0.00    +0.000 C 
ATOM     10  C   UNL     1       2.110   5.336  20.995  0.00  0.00    +0.000 C 
ENDROOT
BRANCH   3  11
ATOM     11  S   UNL     1       0.589  10.094  19.239  0.00  0.00    +0.000 S 
ATOM     12  F   UNL     1      -0.424  11.471  19.262  0.00  0.00    +0.000 F 
ATOM     13  F   UNL     1      -0.656   9.186  19.985  0.00  0.00    +0.000 F 
ATOM     14  F   UNL     1      -0.018   9.695  17.686  0.00  0.00    +0.000 F 
ATOM     15  F   UNL     1       1.804  11.040  18.485  0.00  0.00    +0.000 F 
ATOM     16  F   UNL     1       1.187  10.513  20.786  0.00  0.00    +0.000 F 
ENDBRANCH   3  11
BRANCH   8  17
ATOM     17  C   UNL     1       1.944   3.313  18.305  0.00  0.00    +0.000 C 
ATOM     18  F   UNL     1       0.694   3.418  18.896  0.00  0.00    +0.000 F 
ATOM     19  F   UNL     1       1.930   4.058  17.142  0.00  0.00    +0.000 F 
ATOM     20  F   UNL     1       2.134   1.981  17.966  0.00  0.00    +0.000 F 
ENDBRANCH   8  17
BRANCH   9  21
ATOM     21  C   UNL     1       2.231   2.942  21.601  0.00  0.00    +0.000 C 
ATOM     22  O   UNL     1       1.089   2.703  21.962  0.00  0.00    +0.000 OA
BRANCH  21  23
ATOM     23  O   UNL     1       3.225   2.143  22.050  0.00  0.00    +0.000 OA
ATOM     24  H   UNL     1       4.047   2.475  22.432  0.00  0.00    +0.000 HD
ENDBRANCH  21  23
ENDBRANCH   9  21
BRANCH   1  25
ATOM     25  C   UNL     1       4.113   7.005  16.711  0.00  0.00    +0.000 C 
BRANCH  25  27
ATOM     26  C   UNL     1       6.230   5.717  16.245  0.00  0.00    +0.000 C 
ATOM     27  C   UNL     1       5.597   6.836  17.068  0.00  0.00    +0.000 C 
ENDBRANCH  25  27
ENDBRANCH   1  25
TORSDOF 6
ENDMDL
MODEL 7
REMARK VINA RESULT:      -7.5      2.510      4.763
REMARK  Name = 
REMARK  7 active torsions:
REMARK  status: ('A' for Active; 'I' for Inactive)
REMARK    1  A    between atoms: C_1  and  C_2
REMARK    2  A    between atoms: C_2  and  C_3
REMARK    3  A    between atoms: C_3  and  C_4
REMARK    4  A    between atoms: C_6  and  S_7
REMARK    5  A    between atoms: C_17  and  C_18
REMARK    6  A    between atoms: C_22  and  C_23
REMARK    7  A    between atoms: C_23  and  O_25
REMARK                            x       y       z     vdW  Elec       q    Type
REMARK                         _______ _______ _______ _____ _____    ______ ____
ROOT
ATOM      1  C   UNL     1       2.743   5.914  19.610  0.00  0.00    +0.000 A 
ATOM      2  C   UNL     1       1.986   7.094  19.703  0.00  0.00    +0.000 A 
ATOM      3  C   UNL     1       2.066   8.088  18.708  0.00  0.00    +0.000 A 
ATOM      4  C   UNL     1       2.862   7.855  17.572  0.00  0.00    +0.000 A 
ATOM      5  C   UNL     1       3.636   6.698  17.483  0.00  0.00    +0.000 A 
ATOM      6  C   UNL     1       3.603   5.750  18.508  0.00  0.00    +0.000 A 
ATOM      7  O   UNL     1       4.441   4.693  18.429  0.00  0.00    +0.000 OA
ATOM      8  C   UNL     1       5.655   4.752  17.752  0.00  0.00    +0.000 C 
ATOM      9  C   UNL     1       5.526   5.535  16.441  0.00  0.00    +0.000 C 
ATOM     10  C   UNL     1       4.554   6.473  16.347  0.00  0.00    +0.000 C 
ENDROOT
BRANCH   3  11
ATOM     11  S   UNL     1       1.264   9.705  18.948  0.00  0.00    +0.000 S 
ATOM     12  F   UNL     1       0.513  11.230  19.137  0.00  0.00    +0.000 F 
ATOM     13  F   UNL     1       0.010   8.991  19.870  0.00  0.00    +0.000 F 
ATOM     14  F   UNL     1       0.373   9.465  17.504  0.00  0.00    +0.000 F 
ATOM     15  F   UNL     1       2.494  10.461  18.024  0.00  0.00    +0.000 F 
ATOM     16  F   UNL     1       2.149   9.967  20.389  0.00  0.00    +0.000 F 
ENDBRANCH   3  11
BRANCH   8  17
ATOM     17  C   UNL     1       6.743   5.393  18.670  0.00  0.00    +0.000 C 
ATOM     18  F   UNL     1       6.399   5.269  20.007  0.00  0.00    +0.000 F 
ATOM     19  F   UNL     1       7.956   4.758  18.480  0.00  0.00    +0.000 F 
ATOM     20  F   UNL     1       6.915   6.745  18.408  0.00  0.00    +0.000 F 
ENDBRANCH   8  17
BRANCH   9  21
ATOM     21  C   UNL     1       6.536   5.385  15.347  0.00  0.00    +0.000 C 
ATOM     22  O   UNL     1       7.629   5.919  15.450  0.00  0.00    +0.000 OA
BRANCH  21  23
ATOM     23  O   UNL     1       6.284   4.648  14.242  0.00  0.00    +0.000 OA
ATOM     24  H   UNL     1       6.482   4.945  13.345  0.00  0.00    +0.000 HD
ENDBRANCH  21  23
ENDBRANCH   9  21
BRANCH   1  25
ATOM     25  C   UNL     1       2.695   4.896  20.730  0.00  0.00    +0.000 C 
BRANCH  25  27
ATOM     26  C   UNL     1       1.598   2.787  21.569  0.00  0.00    +0.000 C 
ATOM     27  C   UNL     1       1.457   3.991  20.643  0.00  0.00    +0.000 C 
ENDBRANCH  25  27
ENDBRANCH   1  25
TORSDOF 6
ENDMDL
MODEL 8
REMARK VINA RESULT:      -7.4      2.496      4.934
REMARK  Name = 
REMARK  7 active torsions:
REMARK  status: ('A' for Active; 'I' for Inactive)
REMARK    1  A    between atoms: C_1  and  C_2
REMARK    2  A    between atoms: C_2  and  C_3
REMARK    3  A    between atoms: C_3  and  C_4
REMARK    4  A    between atoms: C_6  and  S_7
REMARK    5  A    between atoms: C_17  and  C_18
REMARK    6  A    between atoms: C_22  and  C_23
REMARK    7  A    between atoms: C_23  and  O_25
REMARK                            x       y       z     vdW  Elec       q    Type
REMARK                         _______ _______ _______ _____ _____    ______ ____
ROOT
ATOM      1  C   UNL     1       2.723   5.896  19.640  0.00  0.00    +0.000 A 
ATOM      2  C   UNL     1       1.965   7.077  19.725  0.00  0.00    +0.000 A 
ATOM      3  C   UNL     1       2.052   8.068  18.729  0.00  0.00    +0.000 A 
ATOM      4  C   UNL     1       2.856   7.833  17.599  0.00  0.00    +0.000 A 
ATOM      5  C   UNL     1       3.631   6.676  17.517  0.00  0.00    +0.000 A 
ATOM      6  C   UNL     1       3.590   5.730  18.544  0.00  0.00    +0.000 A 
ATOM      7  O   UNL     1       4.428   4.673  18.473  0.00  0.00    +0.000 OA
ATOM      8  C   UNL     1       5.647   4.730  17.804  0.00  0.00    +0.000 C 
ATOM      9  C   UNL     1       5.528   5.510  16.491  0.00  0.00    +0.000 C 
ATOM     10  C   UNL     1       4.557   6.448  16.389  0.00  0.00    +0.000 C 
ENDROOT
BRANCH   3  11
ATOM     11  S   UNL     1       1.249   9.686  18.960  0.00  0.00    +0.000 S 
ATOM     12  F   UNL     1       0.494  11.199  19.214  0.00  0.00    +0.000 F 
ATOM     13  F   UNL     1       2.458  10.464  18.029  0.00  0.00    +0.000 F 
ATOM     14  F   UNL     1       2.163   9.922  20.390  0.00  0.00    +0.000 F 
ATOM     15  F   UNL     1       0.022   8.951  19.905  0.00  0.00    +0.000 F 
ATOM     16  F   UNL     1       0.322   9.466  17.538  0.00  0.00    +0.000 F 
ENDBRANCH   3  11
BRANCH   8  17
ATOM     17  C   UNL     1       6.729   5.372  18.729  0.00  0.00    +0.000 C 
ATOM     18  F   UNL     1       6.864   6.727  18.466  0.00  0.00    +0.000 F 
ATOM     19  F   UNL     1       6.365   5.228  20.054  0.00  0.00    +0.000 F 
ATOM     20  F   UNL     1       7.976   4.788  18.555  0.00  0.00    +0.000 F 
ENDBRANCH   8  17
BRANCH   9  21
ATOM     21  C   UNL     1       6.546   5.357  15.405  0.00  0.00    +0.000 C 
ATOM     22  O   UNL     1       7.610   5.950  15.480  0.00  0.00    +0.000 OA
BRANCH  21  23
ATOM     23  O   UNL     1       6.332   4.556  14.337  0.00  0.00    +0.000 OA
ATOM     24  H   UNL     1       6.569   4.796  13.433  0.00  0.00    +0.000 HD
ENDBRANCH  21  23
ENDBRANCH   9  21
BRANCH   1  25
ATOM     25  C   UNL     1       2.666   4.880  20.761  0.00  0.00    +0.000 C 
BRANCH  25  27
ATOM     26  C   UNL     1       1.598   2.758  21.603  0.00  0.00    +0.000 C 
ATOM     27  C   UNL     1       1.481   3.915  20.615  0.00  0.00    +0.000 C 
ENDBRANCH  25  27
ENDBRANCH   1  25
TORSDOF 6
ENDMDL
