MODEL 1
REMARK VINA RESULT:      -8.0      0.000      0.000
REMARK  Name = 
REMARK  4 active torsions:
REMARK  status: ('A' for Active; 'I' for Inactive)
REMARK    1  A    between atoms: C_1  and  C_2
REMARK    2  A    between atoms: C_5  and  N_6
REMARK    3  A    between atoms: N_6  and  S_7
REMARK    4  A    between atoms: S_7  and  C_10
REMARK                            x       y       z     vdW  Elec       q    Type
REMARK                         _______ _______ _______ _____ _____    ______ ____
ROOT
ATOM      1  S   UNL     1       4.025   2.914  18.791  0.00  0.00    +0.000 S 
ATOM      2  O   UNL     1       3.109   1.910  18.286  0.00  0.00    +0.000 OA
ATOM      3  O   UNL     1       4.921   2.602  19.881  0.00  0.00    +0.000 OA
ENDROOT
BRANCH   1   4
ATOM      4  C   UNL     1       3.025   4.301  19.293  0.00  0.00    +0.000 A 
ATOM      5  C   UNL     1       3.116   5.471  18.519  0.00  0.00    +0.000 A 
ATOM      6  C   UNL     1       2.482   6.640  18.936  0.00  0.00    +0.000 A 
ATOM      7 BR   UNL     1       2.642   8.217  17.903  0.00  0.00    +0.000 Br
ATOM      8  C   UNL     1       1.758   6.670  20.123  0.00  0.00    +0.000 A 
ATOM      9  C   UNL     1       1.662   5.511  20.898  0.00  0.00    +0.000 A 
ATOM     10  C   UNL     1       2.294   4.323  20.492  0.00  0.00    +0.000 A 
ATOM     11 BR   UNL     1       2.079   2.827  21.637  0.00  0.00    +0.000 Br
ENDBRANCH   1   4
BRANCH   1  12
ATOM     12  N   UNL     1       4.953   3.432  17.472  0.00  0.00    +0.000 N 
ATOM     13  H   UNL     1       4.324   3.704  16.716  0.00  0.00    +0.000 HD
BRANCH  12  18
ATOM     14  C   UNL     1       7.766   7.580  17.743  0.00  0.00    +0.000 C 
ATOM     15  C   UNL     1       7.169   6.236  17.929  0.00  0.00    +0.000 A 
ATOM     16  N   UNL     1       7.496   5.486  18.995  0.00  0.00    +0.000 NA
ATOM     17  O   UNL     1       6.702   4.357  18.921  0.00  0.00    +0.000 OA
ATOM     18  C   UNL     1       5.946   4.394  17.789  0.00  0.00    +0.000 A 
ATOM     19  C   UNL     1       6.198   5.576  17.138  0.00  0.00    +0.000 A 
ATOM     20 BR   UNL     1       5.366   6.295  15.625  0.00  0.00    +0.000 Br
ENDBRANCH  12  18
ENDBRANCH   1  12
TORSDOF 3
ENDMDL
MODEL 2
REMARK VINA RESULT:      -7.8      1.208      1.492
REMARK  Name = 
REMARK  4 active torsions:
REMARK  status: ('A' for Active; 'I' for Inactive)
REMARK    1  A    between atoms: C_1  and  C_2
REMARK    2  A    between atoms: C_5  and  N_6
REMARK    3  A    between atoms: N_6  and  S_7
REMARK    4  A    between atoms: S_7  and  C_10
REMARK                            x       y       z     vdW  Elec       q    Type
REMARK                         _______ _______ _______ _____ _____    ______ ____
ROOT
ATOM      1  S   UNL     1       2.545   2.940  17.965  0.00  0.00    +0.000 S 
ATOM      2  O   UNL     1       2.481   3.278  16.556  0.00  0.00    +0.000 OA
ATOM      3  O   UNL     1       1.668   1.932  18.514  0.00  0.00    +0.000 OA
ENDROOT
BRANCH   1   4
ATOM      4  C   UNL     1       2.256   4.454  18.860  0.00  0.00    +0.000 A 
ATOM      5  C   UNL     1       2.348   5.655  18.136  0.00  0.00    +0.000 A 
ATOM      6  C   UNL     1       2.284   6.880  18.797  0.00  0.00    +0.000 A 
ATOM      7 BR   UNL     1       2.445   8.489  17.814  0.00  0.00    +0.000 Br
ATOM      8  C   UNL     1       2.137   6.934  20.179  0.00  0.00    +0.000 A 
ATOM      9  C   UNL     1       2.043   5.745  20.906  0.00  0.00    +0.000 A 
ATOM     10  C   UNL     1       2.104   4.499  20.255  0.00  0.00    +0.000 A 
ATOM     11 BR   UNL     1       1.963   2.968  21.364  0.00  0.00    +0.000 Br
ENDBRANCH   1   4
BRANCH   1  12
ATOM     12  N   UNL     1       4.145   2.482  18.282  0.00  0.00    +0.000 N 
ATOM     13  H   UNL     1       4.440   1.810  17.574  0.00  0.00    +0.000 HD
BRANCH  12  18
ATOM     14  C   UNL     1       7.084   6.507  17.686  0.00  0.00    +0.000 C 
ATOM     15  C   UNL     1       6.315   5.358  18.219  0.00  0.00    +0.000 A 
ATOM     16  N   UNL     1       6.121   5.223  19.542  0.00  0.00    +0.000 NA
ATOM     17  O   UNL     1       5.295   4.124  19.694  0.00  0.00    +0.000 OA
ATOM     18  C   UNL     1       5.041   3.564  18.480  0.00  0.00    +0.000 A 
ATOM     19  C   UNL     1       5.655   4.323  17.514  0.00  0.00    +0.000 A 
ATOM     20 BR   UNL     1       5.554   4.179  15.652  0.00  0.00    +0.000 Br
ENDBRANCH  12  18
ENDBRANCH   1  12
TORSDOF 3
ENDMDL
MODEL 3
REMARK VINA RESULT:      -7.2      2.469      4.070
REMARK  Name = 
REMARK  4 active torsions:
REMARK  status: ('A' for Active; 'I' for Inactive)
REMARK    1  A    between atoms: C_1  and  C_2
REMARK    2  A    between atoms: C_5  and  N_6
REMARK    3  A    between atoms: N_6  and  S_7
REMARK    4  A    between atoms: S_7  and  C_10
REMARK                            x       y       z     vdW  Elec       q    Type
REMARK                         _______ _______ _______ _____ _____    ______ ____
ROOT
ATOM      1  S   UNL     1       6.684   5.573  18.822  0.00  0.00    +0.000 S 
ATOM      2  O   UNL     1       7.192   5.416  20.171  0.00  0.00    +0.000 OA
ATOM      3  O   UNL     1       7.004   6.754  18.054  0.00  0.00    +0.000 OA
ENDROOT
BRANCH   1   4
ATOM      4  C   UNL     1       4.908   5.468  18.938  0.00  0.00    +0.000 A 
ATOM      5  C   UNL     1       4.379   4.603  19.912  0.00  0.00    +0.000 A 
ATOM      6  C   UNL     1       3.009   4.355  19.960  0.00  0.00    +0.000 A 
ATOM      7 BR   UNL     1       2.314   3.160  21.252  0.00  0.00    +0.000 Br
ATOM      8  C   UNL     1       2.147   4.951  19.045  0.00  0.00    +0.000 A 
ATOM      9  C   UNL     1       2.665   5.812  18.075  0.00  0.00    +0.000 A 
ATOM     10  C   UNL     1       4.045   6.075  18.013  0.00  0.00    +0.000 A 
ATOM     11 BR   UNL     1       4.609   7.265  16.648  0.00  0.00    +0.000 Br
ENDBRANCH   1   4
BRANCH   1  12
ATOM     12  N   UNL     1       7.198   4.216  17.948  0.00  0.00    +0.000 N 
ATOM     13  H   UNL     1       6.804   3.380  18.380  0.00  0.00    +0.000 HD
BRANCH  12  18
ATOM     14  C   UNL     1       5.271   4.142  13.314  0.00  0.00    +0.000 C 
ATOM     15  C   UNL     1       6.139   4.300  14.506  0.00  0.00    +0.000 A 
ATOM     16  N   UNL     1       7.268   5.025  14.435  0.00  0.00    +0.000 NA
ATOM     17  O   UNL     1       7.779   5.056  15.719  0.00  0.00    +0.000 OA
ATOM     18  C   UNL     1       7.001   4.306  16.547  0.00  0.00    +0.000 A 
ATOM     19  C   UNL     1       5.940   3.821  15.822  0.00  0.00    +0.000 A 
ATOM     20 BR   UNL     1       4.442   2.868  16.410  0.00  0.00    +0.000 Br
ENDBRANCH  12  18
ENDBRANCH   1  12
TORSDOF 3
ENDMDL
MODEL 4
REMARK VINA RESULT:      -7.0      2.122      4.766
REMARK  Name = 
REMARK  4 active torsions:
REMARK  status: ('A' for Active; 'I' for Inactive)
REMARK    1  A    between atoms: C_1  and  C_2
REMARK    2  A    between atoms: C_5  and  N_6
REMARK    3  A    between atoms: N_6  and  S_7
REMARK    4  A    between atoms: S_7  and  C_10
REMARK                            x       y       z     vdW  Elec       q    Type
REMARK                         _______ _______ _______ _____ _____    ______ ____
ROOT
ATOM      1  S   UNL     1       5.956   4.623  18.755  0.00  0.00    +0.000 S 
ATOM      2  O   UNL     1       6.857   5.181  19.745  0.00  0.00    +0.000 OA
ATOM      3  O   UNL     1       6.446   4.264  17.443  0.00  0.00    +0.000 OA
ENDROOT
BRANCH   1   4
ATOM      4  C   UNL     1       4.647   5.812  18.536  0.00  0.00    +0.000 A 
ATOM      5  C   UNL     1       3.760   5.994  19.612  0.00  0.00    +0.000 A 
ATOM      6  C   UNL     1       2.628   6.792  19.460  0.00  0.00    +0.000 A 
ATOM      7 BR   UNL     1       1.422   6.998  20.904  0.00  0.00    +0.000 Br
ATOM      8  C   UNL     1       2.354   7.413  18.246  0.00  0.00    +0.000 A 
ATOM      9  C   UNL     1       3.232   7.238  17.173  0.00  0.00    +0.000 A 
ATOM     10  C   UNL     1       4.380   6.438  17.309  0.00  0.00    +0.000 A 
ATOM     11 BR   UNL     1       5.484   6.291  15.774  0.00  0.00    +0.000 Br
ENDBRANCH   1   4
BRANCH   1  12
ATOM     12  N   UNL     1       5.257   3.248  19.455  0.00  0.00    +0.000 N 
ATOM     13  H   UNL     1       5.267   3.357  20.470  0.00  0.00    +0.000 HD
BRANCH  12  18
ATOM     14  C   UNL     1       0.373   2.343  18.732  0.00  0.00    +0.000 C 
ATOM     15  C   UNL     1       1.839   2.513  18.587  0.00  0.00    +0.000 A 
ATOM     16  N   UNL     1       2.404   2.536  17.368  0.00  0.00    +0.000 NA
ATOM     17  O   UNL     1       3.744   2.805  17.577  0.00  0.00    +0.000 OA
ATOM     18  C   UNL     1       3.998   2.884  18.912  0.00  0.00    +0.000 A 
ATOM     19  C   UNL     1       2.815   2.720  19.590  0.00  0.00    +0.000 A 
ATOM     20 BR   UNL     1       2.466   2.883  21.420  0.00  0.00    +0.000 Br
ENDBRANCH  12  18
ENDBRANCH   1  12
TORSDOF 3
ENDMDL
MODEL 5
REMARK VINA RESULT:      -7.0      1.900      2.013
REMARK  Name = 
REMARK  4 active torsions:
REMARK  status: ('A' for Active; 'I' for Inactive)
REMARK    1  A    between atoms: C_1  and  C_2
REMARK    2  A    between atoms: C_5  and  N_6
REMARK    3  A    between atoms: N_6  and  S_7
REMARK    4  A    between atoms: S_7  and  C_10
REMARK                            x       y       z     vdW  Elec       q    Type
REMARK                         _______ _______ _______ _____ _____    ______ ____
ROOT
ATOM      1  S   UNL     1       2.573   2.987  17.815  0.00  0.00    +0.000 S 
ATOM      2  O   UNL     1       2.190   3.302  16.452  0.00  0.00    +0.000 OA
ATOM      3  O   UNL     1       1.959   1.877  18.507  0.00  0.00    +0.000 OA
ENDROOT
BRANCH   1   4
ATOM      4  C   UNL     1       2.271   4.457  18.776  0.00  0.00    +0.000 A 
ATOM      5  C   UNL     1       2.273   5.684  18.089  0.00  0.00    +0.000 A 
ATOM      6  C   UNL     1       2.195   6.883  18.795  0.00  0.00    +0.000 A 
ATOM      7 BR   UNL     1       2.236   8.528  17.861  0.00  0.00    +0.000 Br
ATOM      8  C   UNL     1       2.121   6.886  20.183  0.00  0.00    +0.000 A 
ATOM      9  C   UNL     1       2.117   5.671  20.873  0.00  0.00    +0.000 A 
ATOM     10  C   UNL     1       2.193   4.451  20.177  0.00  0.00    +0.000 A 
ATOM     11 BR   UNL     1       2.176   2.880  21.238  0.00  0.00    +0.000 Br
ENDBRANCH   1   4
BRANCH   1  12
ATOM     12  N   UNL     1       4.249   2.745  17.804  0.00  0.00    +0.000 N 
ATOM     13  H   UNL     1       4.440   1.790  17.501  0.00  0.00    +0.000 HD
BRANCH  12  18
ATOM     14  C   UNL     1       7.322   6.523  16.587  0.00  0.00    +0.000 C 
ATOM     15  C   UNL     1       6.364   5.391  16.577  0.00  0.00    +0.000 A 
ATOM     16  N   UNL     1       6.072   4.756  15.430  0.00  0.00    +0.000 NA
ATOM     17  O   UNL     1       5.242   3.706  15.779  0.00  0.00    +0.000 OA
ATOM     18  C   UNL     1       4.986   3.742  17.115  0.00  0.00    +0.000 A 
ATOM     19  C   UNL     1       5.690   4.786  17.664  0.00  0.00    +0.000 A 
ATOM     20 BR   UNL     1       5.891   5.262  19.461  0.00  0.00    +0.000 Br
ENDBRANCH  12  18
ENDBRANCH   1  12
TORSDOF 3
ENDMDL
MODEL 6
REMARK VINA RESULT:      -6.9      3.399      5.315
REMARK  Name = 
REMARK  4 active torsions:
REMARK  status: ('A' for Active; 'I' for Inactive)
REMARK    1  A    between atoms: C_1  and  C_2
REMARK    2  A    between atoms: C_5  and  N_6
REMARK    3  A    between atoms: N_6  and  S_7
REMARK    4  A    between atoms: S_7  and  C_10
REMARK                            x       y       z     vdW  Elec       q    Type
REMARK                         _______ _______ _______ _____ _____    ______ ____
ROOT
ATOM      1  S   UNL     1       2.633   5.157  19.424  0.00  0.00    +0.000 S 
ATOM      2  O   UNL     1       2.725   4.227  20.533  0.00  0.00    +0.000 OA
ATOM      3  O   UNL     1       1.464   5.166  18.574  0.00  0.00    +0.000 OA
ENDROOT
BRANCH   1   4
ATOM      4  C   UNL     1       4.051   4.850  18.390  0.00  0.00    +0.000 A 
ATOM      5  C   UNL     1       5.062   5.827  18.382  0.00  0.00    +0.000 A 
ATOM      6  C   UNL     1       6.126   5.729  17.487  0.00  0.00    +0.000 A 
ATOM      7 BR   UNL     1       7.460   7.070  17.461  0.00  0.00    +0.000 Br
ATOM      8  C   UNL     1       6.200   4.672  16.586  0.00  0.00    +0.000 A 
ATOM      9  C   UNL     1       5.201   3.696  16.589  0.00  0.00    +0.000 A 
ATOM     10  C   UNL     1       4.121   3.778  17.487  0.00  0.00    +0.000 A 
ATOM     11 BR   UNL     1       2.838   2.386  17.382  0.00  0.00    +0.000 Br
ENDBRANCH   1   4
BRANCH   1  12
ATOM     12  N   UNL     1       2.828   6.709  20.075  0.00  0.00    +0.000 N 
ATOM     13  H   UNL     1       3.818   6.860  20.269  0.00  0.00    +0.000 HD
BRANCH  12  18
ATOM     14  C   UNL     1       0.274  10.790  18.658  0.00  0.00    +0.000 C 
ATOM     15  C   UNL     1       1.103   9.562  18.712  0.00  0.00    +0.000 A 
ATOM     16  N   UNL     1       1.853   9.200  17.658  0.00  0.00    +0.000 NA
ATOM     17  O   UNL     1       2.567   8.088  18.065  0.00  0.00    +0.000 OA
ATOM     18  C   UNL     1       2.207   7.744  19.332  0.00  0.00    +0.000 A 
ATOM     19  C   UNL     1       1.292   8.662  19.787  0.00  0.00    +0.000 A 
ATOM     20 BR   UNL     1       0.541   8.840  21.491  0.00  0.00    +0.000 Br
ENDBRANCH  12  18
ENDBRANCH   1  12
TORSDOF 3
ENDMDL
MODEL 7
REMARK VINA RESULT:      -6.9      2.889      5.960
REMARK  Name = 
REMARK  4 active torsions:
REMARK  status: ('A' for Active; 'I' for Inactive)
REMARK    1  A    between atoms: C_1  and  C_2
REMARK    2  A    between atoms: C_5  and  N_6
REMARK    3  A    between atoms: N_6  and  S_7
REMARK    4  A    between atoms: S_7  and  C_10
REMARK                            x       y       z     vdW  Elec       q    Type
REMARK                         _______ _______ _______ _____ _____    ______ ____
ROOT
ATOM      1  S   UNL     1       4.310   5.946  17.746  0.00  0.00    +0.000 S 
ATOM      2  O   UNL     1       3.850   7.303  17.525  0.00  0.00    +0.000 OA
ATOM      3  O   UNL     1       4.952   5.587  18.990  0.00  0.00    +0.000 OA
ENDROOT
BRANCH   1   4
ATOM      4  C   UNL     1       5.448   5.578  16.424  0.00  0.00    +0.000 A 
ATOM      5  C   UNL     1       4.939   4.877  15.317  0.00  0.00    +0.000 A 
ATOM      6  C   UNL     1       5.799   4.424  14.318  0.00  0.00    +0.000 A 
ATOM      7 BR   UNL     1       5.106   3.449  12.852  0.00  0.00    +0.000 Br
ATOM      8  C   UNL     1       7.168   4.650  14.404  0.00  0.00    +0.000 A 
ATOM      9  C   UNL     1       7.681   5.348  15.500  0.00  0.00    +0.000 A 
ATOM     10  C   UNL     1       6.828   5.814  16.517  0.00  0.00    +0.000 A 
ATOM     11 BR   UNL     1       7.658   6.746  17.944  0.00  0.00    +0.000 Br
ENDBRANCH   1   4
BRANCH   1  12
ATOM     12  N   UNL     1       2.967   4.937  17.530  0.00  0.00    +0.000 N 
ATOM     13  H   UNL     1       3.230   4.169  16.912  0.00  0.00    +0.000 HD
BRANCH  12  18
ATOM     14  C   UNL     1       1.523   2.472  21.658  0.00  0.00    +0.000 C 
ATOM     15  C   UNL     1       1.715   3.460  20.568  0.00  0.00    +0.000 A 
ATOM     16  N   UNL     1       1.276   4.722  20.708  0.00  0.00    +0.000 NA
ATOM     17  O   UNL     1       1.697   5.396  19.576  0.00  0.00    +0.000 OA
ATOM     18  C   UNL     1       2.330   4.536  18.732  0.00  0.00    +0.000 A 
ATOM     19  C   UNL     1       2.378   3.300  19.329  0.00  0.00    +0.000 A 
ATOM     20 BR   UNL     1       3.250   1.746  18.762  0.00  0.00    +0.000 Br
ENDBRANCH  12  18
ENDBRANCH   1  12
TORSDOF 3
ENDMDL
MODEL 8
REMARK VINA RESULT:      -6.9      3.193      4.602
REMARK  Name = 
REMARK  4 active torsions:
REMARK  status: ('A' for Active; 'I' for Inactive)
REMARK    1  A    between atoms: C_1  and  C_2
REMARK    2  A    between atoms: C_5  and  N_6
REMARK    3  A    between atoms: N_6  and  S_7
REMARK    4  A    between atoms: S_7  and  C_10
REMARK                            x       y       z     vdW  Elec       q    Type
REMARK                         _______ _______ _______ _____ _____    ______ ____
ROOT
ATOM      1  S   UNL     1       5.901   6.703  17.010  0.00  0.00    +0.000 S 
ATOM      2  O   UNL     1       6.554   7.757  17.761  0.00  0.00    +0.000 OA
ATOM      3  O   UNL     1       5.223   7.004  15.770  0.00  0.00    +0.000 OA
ENDROOT
BRANCH   1   4
ATOM      4  C   UNL     1       4.711   5.962  18.111  0.00  0.00    +0.000 A 
ATOM      5  C   UNL     1       5.016   4.689  18.622  0.00  0.00    +0.000 A 
ATOM      6  C   UNL     1       4.070   3.986  19.365  0.00  0.00    +0.000 A 
ATOM      7 BR   UNL     1       4.480   2.257  20.016  0.00  0.00    +0.000 Br
ATOM      8  C   UNL     1       2.811   4.526  19.605  0.00  0.00    +0.000 A 
ATOM      9  C   UNL     1       2.501   5.792  19.102  0.00  0.00    +0.000 A 
ATOM     10  C   UNL     1       3.444   6.517  18.351  0.00  0.00    +0.000 A 
ATOM     11 BR   UNL     1       2.890   8.221  17.732  0.00  0.00    +0.000 Br
ENDBRANCH   1   4
BRANCH   1  12
ATOM     12  N   UNL     1       7.079   5.526  16.699  0.00  0.00    +0.000 N 
ATOM     13  H   UNL     1       7.000   4.791  17.403  0.00  0.00    +0.000 HD
BRANCH  12  18
ATOM     14  C   UNL     1       6.018   3.358  12.298  0.00  0.00    +0.000 C 
ATOM     15  C   UNL     1       6.627   4.128  13.410  0.00  0.00    +0.000 A 
ATOM     16  N   UNL     1       7.602   5.019  13.168  0.00  0.00    +0.000 NA
ATOM     17  O   UNL     1       7.872   5.624  14.382  0.00  0.00    +0.000 OA
ATOM     18  C   UNL     1       7.111   5.061  15.360  0.00  0.00    +0.000 A 
ATOM     19  C   UNL     1       6.295   4.118  14.786  0.00  0.00    +0.000 A 
ATOM     20 BR   UNL     1       4.914   3.120  15.557  0.00  0.00    +0.000 Br
ENDBRANCH  12  18
ENDBRANCH   1  12
TORSDOF 3
ENDMDL
MODEL 9
REMARK VINA RESULT:      -6.8      2.690      5.250
REMARK  Name = 
REMARK  4 active torsions:
REMARK  status: ('A' for Active; 'I' for Inactive)
REMARK    1  A    between atoms: C_1  and  C_2
REMARK    2  A    between atoms: C_5  and  N_6
REMARK    3  A    between atoms: N_6  and  S_7
REMARK    4  A    between atoms: S_7  and  C_10
REMARK                            x       y       z     vdW  Elec       q    Type
REMARK                         _______ _______ _______ _____ _____    ______ ____
ROOT
ATOM      1  S   UNL     1       4.253   4.173  18.559  0.00  0.00    +0.000 S 
ATOM      2  O   UNL     1       4.960   3.264  19.440  0.00  0.00    +0.000 OA
ATOM      3  O   UNL     1       2.982   3.793  17.986  0.00  0.00    +0.000 OA
ENDROOT
BRANCH   1   4
ATOM      4  C   UNL     1       5.365   4.537  17.214  0.00  0.00    +0.000 A 
ATOM      5  C   UNL     1       4.969   4.133  15.927  0.00  0.00    +0.000 A 
ATOM      6  C   UNL     1       5.850   4.248  14.854  0.00  0.00    +0.000 A 
ATOM      7 BR   UNL     1       5.318   3.665  13.134  0.00  0.00    +0.000 Br
ATOM      8  C   UNL     1       7.131   4.756  15.038  0.00  0.00    +0.000 A 
ATOM      9  C   UNL     1       7.531   5.161  16.314  0.00  0.00    +0.000 A 
ATOM     10  C   UNL     1       6.655   5.054  17.409  0.00  0.00    +0.000 A 
ATOM     11 BR   UNL     1       7.328   5.643  19.080  0.00  0.00    +0.000 Br
ENDBRANCH   1   4
BRANCH   1  12
ATOM     12  N   UNL     1       4.038   5.616  19.420  0.00  0.00    +0.000 N 
ATOM     13  H   UNL     1       4.937   5.901  19.810  0.00  0.00    +0.000 HD
BRANCH  12  18
ATOM     14  C   UNL     1       1.171   9.524  18.118  0.00  0.00    +0.000 C 
ATOM     15  C   UNL     1       2.109   8.376  18.141  0.00  0.00    +0.000 A 
ATOM     16  N   UNL     1       2.931   8.147  17.103  0.00  0.00    +0.000 NA
ATOM     17  O   UNL     1       3.729   7.082  17.480  0.00  0.00    +0.000 OA
ATOM     18  C   UNL     1       3.352   6.632  18.708  0.00  0.00    +0.000 A 
ATOM     19  C   UNL     1       2.338   7.434  19.172  0.00  0.00    +0.000 A 
ATOM     20 BR   UNL     1       1.507   7.442  20.847  0.00  0.00    +0.000 Br
ENDBRANCH  12  18
ENDBRANCH   1  12
TORSDOF 3
ENDMDL
