MODEL 1
REMARK VINA RESULT:      -7.4      0.000      0.000
REMARK  Name = 
REMARK  11 active torsions:
REMARK  status: ('A' for Active; 'I' for Inactive)
REMARK    1  A    between atoms: C_1  and  C_2
REMARK    2  A    between atoms: C_2  and  C_3
REMARK    3  A    between atoms: C_2  and  C_4
REMARK    4  A    between atoms: C_4  and  S_5
REMARK    5  A    between atoms: C_4  and  C_6
REMARK    6  A    between atoms: N_8  and  CA_9
REMARK    7  A    between atoms: CA_9  and  C_10
REMARK    8  A    between atoms: CA_9  and  C_23
REMARK    9  A    between atoms: C_10  and  C_11
REMARK   10  A    between atoms: C_14  and  C_15
REMARK   11  A    between atoms: C_23  and  OXT_25
REMARK                            x       y       z     vdW  Elec       q    Type
REMARK                         _______ _______ _______ _____ _____    ______ ____
ROOT
ATOM      1  CA  UNL     1       4.366   3.523  19.359  0.00  0.00    +0.000 C 
ENDROOT
BRANCH   1   4
ATOM      2  C   UNL     1       6.375   4.795  18.590  0.00  0.00    +0.000 C 
ATOM      3  O   UNL     1       6.645   5.158  19.735  0.00  0.00    +0.000 OA
ATOM      4  N   UNL     1       5.304   3.976  18.315  0.00  0.00    +0.000 N 
ATOM      5  H   UNL     1       5.153   3.622  17.373  0.00  0.00    +0.000 HD
BRANCH   2   6
ATOM      6  C   UNL     1       7.281   5.117  17.398  0.00  0.00    +0.000 C 
BRANCH   6   8
ATOM      7  C   UNL     1       8.019   7.441  18.215  0.00  0.00    +0.000 C 
ATOM      8  C   UNL     1       7.235   6.646  17.167  0.00  0.00    +0.000 C 
ATOM      9  C   UNL     1       5.788   7.167  17.140  0.00  0.00    +0.000 C 
ENDBRANCH   6   8
BRANCH   6  10
ATOM     10  S   UNL     1       6.674   4.154  15.954  0.00  0.00    +0.000 S 
ATOM     11  H   UNL     1       6.074   3.187  16.672  0.00  0.00    +0.000 HD
ENDBRANCH   6  10
ENDBRANCH   2   6
ENDBRANCH   1   4
BRANCH   1  12
ATOM     12  C   UNL     1       4.629   2.035  19.680  0.00  0.00    +0.000 C 
ATOM     13  O   UNL     1       5.172   1.653  20.713  0.00  0.00    +0.000 OA
BRANCH  12  14
ATOM     14  OXT UNL     1       4.196   1.158  18.748  0.00  0.00    +0.000 OA
ATOM     15  HXT UNL     1       4.085   1.518  17.849  0.00  0.00    +0.000 HD
ENDBRANCH  12  14
ENDBRANCH   1  12
BRANCH   1  16
ATOM     16  C   UNL     1       2.881   3.776  19.000  0.00  0.00    +0.000 C 
BRANCH  16  17
ATOM     17  C   UNL     1       2.403   5.207  19.098  0.00  0.00    +0.000 A 
ATOM     18  C   UNL     1       2.432   6.077  18.006  0.00  0.00    +0.000 A 
ATOM     19  C   UNL     1       2.136   7.420  18.135  0.00  0.00    +0.000 A 
ATOM     20  C   UNL     1       1.761   7.957  19.365  0.00  0.00    +0.000 A 
ATOM     21  C   UNL     1       1.680   7.077  20.459  0.00  0.00    +0.000 A 
ATOM     22  C   UNL     1       1.986   5.717  20.329  0.00  0.00    +0.000 A 
BRANCH  20  23
ATOM     23  C   UNL     1       1.478   9.396  19.473  0.00  0.00    +0.000 A 
ATOM     24  C   UNL     1       1.833  10.282  18.436  0.00  0.00    +0.000 A 
ATOM     25  C   UNL     1       1.589  11.648  18.532  0.00  0.00    +0.000 A 
ATOM     26  C   UNL     1       0.972  12.158  19.669  0.00  0.00    +0.000 A 
ATOM     27  C   UNL     1       0.616  11.293  20.712  0.00  0.00    +0.000 A 
ATOM     28  C   UNL     1       0.868   9.933  20.623  0.00  0.00    +0.000 A 
ENDBRANCH  20  23
ENDBRANCH  16  17
ENDBRANCH   1  16
TORSDOF 9
ENDMDL
MODEL 2
REMARK VINA RESULT:      -7.4      2.525      4.232
REMARK  Name = 
REMARK  11 active torsions:
REMARK  status: ('A' for Active; 'I' for Inactive)
REMARK    1  A    between atoms: C_1  and  C_2
REMARK    2  A    between atoms: C_2  and  C_3
REMARK    3  A    between atoms: C_2  and  C_4
REMARK    4  A    between atoms: C_4  and  S_5
REMARK    5  A    between atoms: C_4  and  C_6
REMARK    6  A    between atoms: N_8  and  CA_9
REMARK    7  A    between atoms: CA_9  and  C_10
REMARK    8  A    between atoms: CA_9  and  C_23
REMARK    9  A    between atoms: C_10  and  C_11
REMARK   10  A    between atoms: C_14  and  C_15
REMARK   11  A    between atoms: C_23  and  OXT_25
REMARK                            x       y       z     vdW  Elec       q    Type
REMARK                         _______ _______ _______ _____ _____    ______ ____
ROOT
ATOM      1  CA  UNL     1       3.809   5.183  17.261  0.00  0.00    +0.000 C 
ENDROOT
BRANCH   1   4
ATOM      2  C   UNL     1       2.168   3.467  18.039  0.00  0.00    +0.000 C 
ATOM      3  O   UNL     1       1.277   3.921  17.322  0.00  0.00    +0.000 OA
ATOM      4  N   UNL     1       3.437   3.997  18.054  0.00  0.00    +0.000 N 
ATOM      5  H   UNL     1       4.177   3.551  18.592  0.00  0.00    +0.000 HD
BRANCH   2   6
ATOM      6  C   UNL     1       1.974   2.198  18.875  0.00  0.00    +0.000 C 
BRANCH   6   8
ATOM      7  C   UNL     1       0.806   3.962  20.336  0.00  0.00    +0.000 C 
ATOM      8  C   UNL     1       1.558   2.629  20.301  0.00  0.00    +0.000 C 
ATOM      9  C   UNL     1       2.775   2.729  21.236  0.00  0.00    +0.000 C 
ENDBRANCH   6   8
BRANCH   6  10
ATOM     10  S   UNL     1       3.553   1.255  18.841  0.00  0.00    +0.000 S 
ATOM     11  H   UNL     1       3.042   0.146  18.276  0.00  0.00    +0.000 HD
ENDBRANCH   6  10
ENDBRANCH   2   6
ENDBRANCH   1   4
BRANCH   1  12
ATOM     12  C   UNL     1       4.957   4.820  16.294  0.00  0.00    +0.000 C 
ATOM     13  O   UNL     1       5.352   5.568  15.404  0.00  0.00    +0.000 OA
BRANCH  12  14
ATOM     14  OXT UNL     1       5.530   3.615  16.505  0.00  0.00    +0.000 OA
ATOM     15  HXT UNL     1       5.760   3.111  15.702  0.00  0.00    +0.000 HD
ENDBRANCH  12  14
ENDBRANCH   1  12
BRANCH   1  16
ATOM     16  C   UNL     1       4.162   6.416  18.130  0.00  0.00    +0.000 C 
BRANCH  16  17
ATOM     17  C   UNL     1       3.023   7.355  18.453  0.00  0.00    +0.000 A 
ATOM     18  C   UNL     1       2.627   8.372  17.582  0.00  0.00    +0.000 A 
ATOM     19  C   UNL     1       1.687   9.318  17.945  0.00  0.00    +0.000 A 
ATOM     20  C   UNL     1       1.068   9.274  19.192  0.00  0.00    +0.000 A 
ATOM     21  C   UNL     1       1.424   8.223  20.055  0.00  0.00    +0.000 A 
ATOM     22  C   UNL     1       2.381   7.267  19.691  0.00  0.00    +0.000 A 
BRANCH  20  23
ATOM     23  C   UNL     1       0.092  10.311  19.556  0.00  0.00    +0.000 A 
ATOM     24  C   UNL     1      -1.070  10.511  18.784  0.00  0.00    +0.000 A 
ATOM     25  C   UNL     1      -1.993  11.501  19.104  0.00  0.00    +0.000 A 
ATOM     26  C   UNL     1      -1.778  12.309  20.215  0.00  0.00    +0.000 A 
ATOM     27  C   UNL     1      -0.626  12.128  20.991  0.00  0.00    +0.000 A 
ATOM     28  C   UNL     1       0.300  11.149  20.668  0.00  0.00    +0.000 A 
ENDBRANCH  20  23
ENDBRANCH  16  17
ENDBRANCH   1  16
TORSDOF 9
ENDMDL
MODEL 3
REMARK VINA RESULT:      -7.3      2.426      4.214
REMARK  Name = 
REMARK  11 active torsions:
REMARK  status: ('A' for Active; 'I' for Inactive)
REMARK    1  A    between atoms: C_1  and  C_2
REMARK    2  A    between atoms: C_2  and  C_3
REMARK    3  A    between atoms: C_2  and  C_4
REMARK    4  A    between atoms: C_4  and  S_5
REMARK    5  A    between atoms: C_4  and  C_6
REMARK    6  A    between atoms: N_8  and  CA_9
REMARK    7  A    between atoms: CA_9  and  C_10
REMARK    8  A    between atoms: CA_9  and  C_23
REMARK    9  A    between atoms: C_10  and  C_11
REMARK   10  A    between atoms: C_14  and  C_15
REMARK   11  A    between atoms: C_23  and  OXT_25
REMARK                            x       y       z     vdW  Elec       q    Type
REMARK                         _______ _______ _______ _____ _____    ______ ____
ROOT
ATOM      1  CA  UNL     1       4.098   4.833  16.858  0.00  0.00    +0.000 C 
ENDROOT
BRANCH   1   4
ATOM      2  C   UNL     1       2.827   3.027  18.028  0.00  0.00    +0.000 C 
ATOM      3  O   UNL     1       2.007   2.943  17.114  0.00  0.00    +0.000 OA
ATOM      4  N   UNL     1       3.893   3.896  17.978  0.00  0.00    +0.000 N 
ATOM      5  H   UNL     1       4.603   3.886  18.707  0.00  0.00    +0.000 HD
BRANCH   2   6
ATOM      6  C   UNL     1       2.804   2.083  19.234  0.00  0.00    +0.000 C 
BRANCH   6   8
ATOM      7  C   UNL     1       0.900   3.759  19.654  0.00  0.00    +0.000 C 
ATOM      8  C   UNL     1       1.616   2.494  20.134  0.00  0.00    +0.000 C 
ATOM      9  C   UNL     1       2.061   2.707  21.591  0.00  0.00    +0.000 C 
ENDBRANCH   6   8
BRANCH   6  10
ATOM     10  S   UNL     1       4.429   2.216  20.084  0.00  0.00    +0.000 S 
ATOM     11  H   UNL     1       3.959   2.815  21.194  0.00  0.00    +0.000 HD
ENDBRANCH   6  10
ENDBRANCH   2   6
ENDBRANCH   1   4
BRANCH   1  12
ATOM     12  C   UNL     1       5.182   4.276  15.909  0.00  0.00    +0.000 C 
ATOM     13  O   UNL     1       5.076   4.283  14.686  0.00  0.00    +0.000 OA
BRANCH  12  14
ATOM     14  OXT UNL     1       6.287   3.791  16.516  0.00  0.00    +0.000 OA
ATOM     15  HXT UNL     1       6.937   3.364  15.930  0.00  0.00    +0.000 HD
ENDBRANCH  12  14
ENDBRANCH   1  12
BRANCH   1  16
ATOM     16  C   UNL     1       4.427   6.275  17.317  0.00  0.00    +0.000 C 
BRANCH  16  17
ATOM     17  C   UNL     1       3.365   6.977  18.133  0.00  0.00    +0.000 A 
ATOM     18  C   UNL     1       2.727   8.135  17.685  0.00  0.00    +0.000 A 
ATOM     19  C   UNL     1       1.869   8.854  18.494  0.00  0.00    +0.000 A 
ATOM     20  C   UNL     1       1.576   8.428  19.788  0.00  0.00    +0.000 A 
ATOM     21  C   UNL     1       2.175   7.234  20.228  0.00  0.00    +0.000 A 
ATOM     22  C   UNL     1       3.050   6.509  19.411  0.00  0.00    +0.000 A 
BRANCH  20  23
ATOM     23  C   UNL     1       0.678   9.231  20.631  0.00  0.00    +0.000 A 
ATOM     24  C   UNL     1       0.195  10.479  20.188  0.00  0.00    +0.000 A 
ATOM     25  C   UNL     1      -0.639  11.258  20.982  0.00  0.00    +0.000 A 
ATOM     26  C   UNL     1      -1.019  10.798  22.239  0.00  0.00    +0.000 A 
ATOM     27  C   UNL     1      -0.545   9.563  22.697  0.00  0.00    +0.000 A 
ATOM     28  C   UNL     1       0.295   8.790  21.912  0.00  0.00    +0.000 A 
ENDBRANCH  20  23
ENDBRANCH  16  17
ENDBRANCH   1  16
TORSDOF 9
ENDMDL
MODEL 4
REMARK VINA RESULT:      -7.3      2.619      4.384
REMARK  Name = 
REMARK  11 active torsions:
REMARK  status: ('A' for Active; 'I' for Inactive)
REMARK    1  A    between atoms: C_1  and  C_2
REMARK    2  A    between atoms: C_2  and  C_3
REMARK    3  A    between atoms: C_2  and  C_4
REMARK    4  A    between atoms: C_4  and  S_5
REMARK    5  A    between atoms: C_4  and  C_6
REMARK    6  A    between atoms: N_8  and  CA_9
REMARK    7  A    between atoms: CA_9  and  C_10
REMARK    8  A    between atoms: CA_9  and  C_23
REMARK    9  A    between atoms: C_10  and  C_11
REMARK   10  A    between atoms: C_14  and  C_15
REMARK   11  A    between atoms: C_23  and  OXT_25
REMARK                            x       y       z     vdW  Elec       q    Type
REMARK                         _______ _______ _______ _____ _____    ______ ____
ROOT
ATOM      1  CA  UNL     1       3.743   5.489  17.261  0.00  0.00    +0.000 C 
ENDROOT
BRANCH   1   4
ATOM      2  C   UNL     1       2.118   3.725  17.966  0.00  0.00    +0.000 C 
ATOM      3  O   UNL     1       1.206   4.235  17.315  0.00  0.00    +0.000 OA
ATOM      4  N   UNL     1       3.391   4.248  17.977  0.00  0.00    +0.000 N 
ATOM      5  H   UNL     1       4.146   3.762  18.455  0.00  0.00    +0.000 HD
BRANCH   2   6
ATOM      6  C   UNL     1       1.945   2.400  18.713  0.00  0.00    +0.000 C 
BRANCH   6   8
ATOM      7  C   UNL     1       0.873   4.093  20.324  0.00  0.00    +0.000 C 
ATOM      8  C   UNL     1       1.544   2.726  20.171  0.00  0.00    +0.000 C 
ATOM      9  C   UNL     1       2.758   2.669  21.114  0.00  0.00    +0.000 C 
ENDBRANCH   6   8
BRANCH   6  10
ATOM     10  S   UNL     1       3.530   1.475  18.593  0.00  0.00    +0.000 S 
ATOM     11  H   UNL     1       3.975   1.799  19.821  0.00  0.00    +0.000 HD
ENDBRANCH   6  10
ENDBRANCH   2   6
ENDBRANCH   1   4
BRANCH   1  12
ATOM     12  C   UNL     1       4.936   5.219  16.317  0.00  0.00    +0.000 C 
ATOM     13  O   UNL     1       5.359   4.094  16.069  0.00  0.00    +0.000 OA
BRANCH  12  14
ATOM     14  OXT UNL     1       5.482   6.316  15.750  0.00  0.00    +0.000 OA
ATOM     15  HXT UNL     1       5.305   7.159  16.206  0.00  0.00    +0.000 HD
ENDBRANCH  12  14
ENDBRANCH   1  12
BRANCH   1  16
ATOM     16  C   UNL     1       4.020   6.685  18.204  0.00  0.00    +0.000 C 
BRANCH  16  17
ATOM     17  C   UNL     1       2.841   7.578  18.517  0.00  0.00    +0.000 A 
ATOM     18  C   UNL     1       2.373   8.534  17.614  0.00  0.00    +0.000 A 
ATOM     19  C   UNL     1       1.394   9.447  17.960  0.00  0.00    +0.000 A 
ATOM     20  C   UNL     1       0.807   9.424  19.223  0.00  0.00    +0.000 A 
ATOM     21  C   UNL     1       1.236   8.431  20.120  0.00  0.00    +0.000 A 
ATOM     22  C   UNL     1       2.233   7.511  19.772  0.00  0.00    +0.000 A 
BRANCH  20  23
ATOM     23  C   UNL     1      -0.214  10.425  19.567  0.00  0.00    +0.000 A 
ATOM     24  C   UNL     1      -0.183  11.090  20.809  0.00  0.00    +0.000 A 
ATOM     25  C   UNL     1      -1.152  12.025  21.157  0.00  0.00    +0.000 A 
ATOM     26  C   UNL     1      -2.172  12.324  20.261  0.00  0.00    +0.000 A 
ATOM     27  C   UNL     1      -2.221  11.670  19.023  0.00  0.00    +0.000 A 
ATOM     28  C   UNL     1      -1.263  10.731  18.679  0.00  0.00    +0.000 A 
ENDBRANCH  20  23
ENDBRANCH  16  17
ENDBRANCH   1  16
TORSDOF 9
ENDMDL
MODEL 5
REMARK VINA RESULT:      -7.2      3.741      7.320
REMARK  Name = 
REMARK  11 active torsions:
REMARK  status: ('A' for Active; 'I' for Inactive)
REMARK    1  A    between atoms: C_1  and  C_2
REMARK    2  A    between atoms: C_2  and  C_3
REMARK    3  A    between atoms: C_2  and  C_4
REMARK    4  A    between atoms: C_4  and  S_5
REMARK    5  A    between atoms: C_4  and  C_6
REMARK    6  A    between atoms: N_8  and  CA_9
REMARK    7  A    between atoms: CA_9  and  C_10
REMARK    8  A    between atoms: CA_9  and  C_23
REMARK    9  A    between atoms: C_10  and  C_11
REMARK   10  A    between atoms: C_14  and  C_15
REMARK   11  A    between atoms: C_23  and  OXT_25
REMARK                            x       y       z     vdW  Elec       q    Type
REMARK                         _______ _______ _______ _____ _____    ______ ____
ROOT
ATOM      1  CA  UNL     1       2.399   5.346  19.913  0.00  0.00    +0.000 C 
ENDROOT
BRANCH   1   4
ATOM      2  C   UNL     1       1.931   7.792  19.702  0.00  0.00    +0.000 C 
ATOM      3  O   UNL     1       2.065   7.763  18.479  0.00  0.00    +0.000 OA
ATOM      4  N   UNL     1       2.047   6.661  20.479  0.00  0.00    +0.000 N 
ATOM      5  H   UNL     1       1.849   6.696  21.476  0.00  0.00    +0.000 HD
BRANCH   2   6
ATOM      6  C   UNL     1       1.499   9.059  20.446  0.00  0.00    +0.000 C 
BRANCH   6   8
ATOM      7  C   UNL     1      -0.710   8.548  21.659  0.00  0.00    +0.000 C 
ATOM      8  C   UNL     1       0.816   8.625  21.764  0.00  0.00    +0.000 C 
ATOM      9  C   UNL     1       1.179   9.570  22.922  0.00  0.00    +0.000 C 
ENDBRANCH   6   8
BRANCH   6  10
ATOM     10  S   UNL     1       0.382  10.009  19.336  0.00  0.00    +0.000 S 
ATOM     11  H   UNL     1      -0.374   8.960  18.966  0.00  0.00    +0.000 HD
ENDBRANCH   6  10
ENDBRANCH   2   6
ENDBRANCH   1   4
BRANCH   1  12
ATOM     12  C   UNL     1       1.793   4.227  20.790  0.00  0.00    +0.000 C 
ATOM     13  O   UNL     1       2.424   3.636  21.661  0.00  0.00    +0.000 OA
BRANCH  12  14
ATOM     14  OXT UNL     1       0.493   3.949  20.552  0.00  0.00    +0.000 OA
ATOM     15  HXT UNL     1      -0.078   3.894  21.340  0.00  0.00    +0.000 HD
ENDBRANCH  12  14
ENDBRANCH   1  12
BRANCH   1  16
ATOM     16  C   UNL     1       3.922   5.152  19.714  0.00  0.00    +0.000 C 
BRANCH  16  17
ATOM     17  C   UNL     1       4.403   5.053  18.283  0.00  0.00    +0.000 A 
ATOM     18  C   UNL     1       4.114   3.951  17.476  0.00  0.00    +0.000 A 
ATOM     19  C   UNL     1       4.678   3.797  16.224  0.00  0.00    +0.000 A 
ATOM     20  C   UNL     1       5.536   4.760  15.699  0.00  0.00    +0.000 A 
ATOM     21  C   UNL     1       5.790   5.898  16.485  0.00  0.00    +0.000 A 
ATOM     22  C   UNL     1       5.225   6.052  17.757  0.00  0.00    +0.000 A 
BRANCH  20  23
ATOM     23  C   UNL     1       6.138   4.553  14.374  0.00  0.00    +0.000 A 
ATOM     24  C   UNL     1       5.594   3.615  13.473  0.00  0.00    +0.000 A 
ATOM     25  C   UNL     1       6.164   3.394  12.224  0.00  0.00    +0.000 A 
ATOM     26  C   UNL     1       7.290   4.117  11.843  0.00  0.00    +0.000 A 
ATOM     27  C   UNL     1       7.846   5.049  12.728  0.00  0.00    +0.000 A 
ATOM     28  C   UNL     1       7.287   5.264  13.977  0.00  0.00    +0.000 A 
ENDBRANCH  20  23
ENDBRANCH  16  17
ENDBRANCH   1  16
TORSDOF 9
ENDMDL
MODEL 6
REMARK VINA RESULT:      -7.1      2.504      4.230
REMARK  Name = 
REMARK  11 active torsions:
REMARK  status: ('A' for Active; 'I' for Inactive)
REMARK    1  A    between atoms: C_1  and  C_2
REMARK    2  A    between atoms: C_2  and  C_3
REMARK    3  A    between atoms: C_2  and  C_4
REMARK    4  A    between atoms: C_4  and  S_5
REMARK    5  A    between atoms: C_4  and  C_6
REMARK    6  A    between atoms: N_8  and  CA_9
REMARK    7  A    between atoms: CA_9  and  C_10
REMARK    8  A    between atoms: CA_9  and  C_23
REMARK    9  A    between atoms: C_10  and  C_11
REMARK   10  A    between atoms: C_14  and  C_15
REMARK   11  A    between atoms: C_23  and  OXT_25
REMARK                            x       y       z     vdW  Elec       q    Type
REMARK                         _______ _______ _______ _____ _____    ______ ____
ROOT
ATOM      1  CA  UNL     1       4.092   5.009  16.894  0.00  0.00    +0.000 C 
ENDROOT
BRANCH   1   4
ATOM      2  C   UNL     1       2.424   3.476  17.950  0.00  0.00    +0.000 C 
ATOM      3  O   UNL     1       1.595   3.688  17.066  0.00  0.00    +0.000 OA
ATOM      4  N   UNL     1       3.674   4.051  17.935  0.00  0.00    +0.000 N 
ATOM      5  H   UNL     1       4.370   3.794  18.631  0.00  0.00    +0.000 HD
BRANCH   2   6
ATOM      6  C   UNL     1       2.182   2.458  19.068  0.00  0.00    +0.000 C 
BRANCH   6   8
ATOM      7  C   UNL     1       1.943   2.329  21.625  0.00  0.00    +0.000 C 
ATOM      8  C   UNL     1       2.037   3.237  20.396  0.00  0.00    +0.000 C 
ATOM      9  C   UNL     1       0.807   4.160  20.375  0.00  0.00    +0.000 C 
ENDBRANCH   6   8
BRANCH   6  10
ATOM     10  S   UNL     1       3.596   1.282  19.075  0.00  0.00    +0.000 S 
ATOM     11  H   UNL     1       3.728   1.213  17.738  0.00  0.00    +0.000 HD
ENDBRANCH   6  10
ENDBRANCH   2   6
ENDBRANCH   1   4
BRANCH   1  12
ATOM     12  C   UNL     1       5.222   4.389  16.044  0.00  0.00    +0.000 C 
ATOM     13  O   UNL     1       5.216   4.380  14.816  0.00  0.00    +0.000 OA
BRANCH  12  14
ATOM     14  OXT UNL     1       6.252   3.866  16.745  0.00  0.00    +0.000 OA
ATOM     15  HXT UNL     1       6.933   4.502  17.031  0.00  0.00    +0.000 HD
ENDBRANCH  12  14
ENDBRANCH   1  12
BRANCH   1  16
ATOM     16  C   UNL     1       4.497   6.392  17.461  0.00  0.00    +0.000 C 
BRANCH  16  17
ATOM     17  C   UNL     1       3.384   7.222  18.060  0.00  0.00    +0.000 A 
ATOM     18  C   UNL     1       2.867   8.348  17.416  0.00  0.00    +0.000 A 
ATOM     19  C   UNL     1       1.958   9.187  18.031  0.00  0.00    +0.000 A 
ATOM     20  C   UNL     1       1.490   8.920  19.316  0.00  0.00    +0.000 A 
ATOM     21  C   UNL     1       1.967   7.759  19.951  0.00  0.00    +0.000 A 
ATOM     22  C   UNL     1       2.894   6.913  19.330  0.00  0.00    +0.000 A 
BRANCH  20  23
ATOM     23  C   UNL     1       0.542   9.846  19.951  0.00  0.00    +0.000 A 
ATOM     24  C   UNL     1       0.604  10.107  21.335  0.00  0.00    +0.000 A 
ATOM     25  C   UNL     1      -0.298  10.966  21.954  0.00  0.00    +0.000 A 
ATOM     26  C   UNL     1      -1.280  11.594  21.196  0.00  0.00    +0.000 A 
ATOM     27  C   UNL     1      -1.360  11.343  19.820  0.00  0.00    +0.000 A 
ATOM     28  C   UNL     1      -0.469  10.480  19.203  0.00  0.00    +0.000 A 
ENDBRANCH  20  23
ENDBRANCH  16  17
ENDBRANCH   1  16
TORSDOF 9
ENDMDL
MODEL 7
REMARK VINA RESULT:      -7.1      0.831      1.718
REMARK  Name = 
REMARK  11 active torsions:
REMARK  status: ('A' for Active; 'I' for Inactive)
REMARK    1  A    between atoms: C_1  and  C_2
REMARK    2  A    between atoms: C_2  and  C_3
REMARK    3  A    between atoms: C_2  and  C_4
REMARK    4  A    between atoms: C_4  and  S_5
REMARK    5  A    between atoms: C_4  and  C_6
REMARK    6  A    between atoms: N_8  and  CA_9
REMARK    7  A    between atoms: CA_9  and  C_10
REMARK    8  A    between atoms: CA_9  and  C_23
REMARK    9  A    between atoms: C_10  and  C_11
REMARK   10  A    between atoms: C_14  and  C_15
REMARK   11  A    between atoms: C_23  and  OXT_25
REMARK                            x       y       z     vdW  Elec       q    Type
REMARK                         _______ _______ _______ _____ _____    ______ ____
ROOT
ATOM      1  CA  UNL     1       3.989   4.323  19.446  0.00  0.00    +0.000 C 
ENDROOT
BRANCH   1   4
ATOM      2  C   UNL     1       6.274   5.054  18.746  0.00  0.00    +0.000 C 
ATOM      3  O   UNL     1       6.638   5.202  19.913  0.00  0.00    +0.000 OA
ATOM      4  N   UNL     1       5.014   4.604  18.424  0.00  0.00    +0.000 N 
ATOM      5  H   UNL     1       4.767   4.410  17.456  0.00  0.00    +0.000 HD
BRANCH   2   6
ATOM      6  C   UNL     1       7.231   5.236  17.564  0.00  0.00    +0.000 C 
BRANCH   6   8
ATOM      7  C   UNL     1       8.147   7.502  18.362  0.00  0.00    +0.000 C 
ATOM      8  C   UNL     1       7.358   6.751  17.286  0.00  0.00    +0.000 C 
ATOM      9  C   UNL     1       5.978   7.414  17.140  0.00  0.00    +0.000 C 
ENDBRANCH   6   8
BRANCH   6  10
ATOM     10  S   UNL     1       6.547   4.298  16.138  0.00  0.00    +0.000 S 
ATOM     11  H   UNL     1       5.314   4.833  16.195  0.00  0.00    +0.000 HD
ENDBRANCH   6  10
ENDBRANCH   2   6
ENDBRANCH   1   4
BRANCH   1  12
ATOM     12  C   UNL     1       4.000   2.817  19.789  0.00  0.00    +0.000 C 
ATOM     13  O   UNL     1       2.979   2.156  19.956  0.00  0.00    +0.000 OA
BRANCH  12  14
ATOM     14  OXT UNL     1       5.224   2.253  19.873  0.00  0.00    +0.000 OA
ATOM     15  HXT UNL     1       5.960   2.867  20.052  0.00  0.00    +0.000 HD
ENDBRANCH  12  14
ENDBRANCH   1  12
BRANCH   1  16
ATOM     16  C   UNL     1       2.574   4.806  19.044  0.00  0.00    +0.000 C 
BRANCH  16  17
ATOM     17  C   UNL     1       2.299   6.284  19.212  0.00  0.00    +0.000 A 
ATOM     18  C   UNL     1       1.820   6.820  20.408  0.00  0.00    +0.000 A 
ATOM     19  C   UNL     1       1.429   8.142  20.511  0.00  0.00    +0.000 A 
ATOM     20  C   UNL     1       1.532   9.007  19.424  0.00  0.00    +0.000 A 
ATOM     21  C   UNL     1       2.062   8.487  18.230  0.00  0.00    +0.000 A 
ATOM     22  C   UNL     1       2.451   7.146  18.123  0.00  0.00    +0.000 A 
BRANCH  20  23
ATOM     23  C   UNL     1       1.084  10.400  19.560  0.00  0.00    +0.000 A 
ATOM     24  C   UNL     1       0.202  10.778  20.592  0.00  0.00    +0.000 A 
ATOM     25  C   UNL     1      -0.246  12.088  20.722  0.00  0.00    +0.000 A 
ATOM     26  C   UNL     1       0.190  13.056  19.824  0.00  0.00    +0.000 A 
ATOM     27  C   UNL     1       1.064  12.698  18.790  0.00  0.00    +0.000 A 
ATOM     28  C   UNL     1       1.503  11.392  18.652  0.00  0.00    +0.000 A 
ENDBRANCH  20  23
ENDBRANCH  16  17
ENDBRANCH   1  16
TORSDOF 9
ENDMDL
MODEL 8
REMARK VINA RESULT:      -7.1      2.058      4.286
REMARK  Name = 
REMARK  11 active torsions:
REMARK  status: ('A' for Active; 'I' for Inactive)
REMARK    1  A    between atoms: C_1  and  C_2
REMARK    2  A    between atoms: C_2  and  C_3
REMARK    3  A    between atoms: C_2  and  C_4
REMARK    4  A    between atoms: C_4  and  S_5
REMARK    5  A    between atoms: C_4  and  C_6
REMARK    6  A    between atoms: N_8  and  CA_9
REMARK    7  A    between atoms: CA_9  and  C_10
REMARK    8  A    between atoms: CA_9  and  C_23
REMARK    9  A    between atoms: C_10  and  C_11
REMARK   10  A    between atoms: C_14  and  C_15
REMARK   11  A    between atoms: C_23  and  OXT_25
REMARK                            x       y       z     vdW  Elec       q    Type
REMARK                         _______ _______ _______ _____ _____    ______ ____
ROOT
ATOM      1  CA  UNL     1       4.692   5.298  17.638  0.00  0.00    +0.000 C 
ENDROOT
BRANCH   1   4
ATOM      2  C   UNL     1       3.385   3.297  18.372  0.00  0.00    +0.000 C 
ATOM      3  O   UNL     1       3.096   2.999  17.214  0.00  0.00    +0.000 OA
ATOM      4  N   UNL     1       4.179   4.380  18.673  0.00  0.00    +0.000 N 
ATOM      5  H   UNL     1       4.472   4.556  19.631  0.00  0.00    +0.000 HD
BRANCH   2   6
ATOM      6  C   UNL     1       2.993   2.418  19.563  0.00  0.00    +0.000 C 
BRANCH   6   8
ATOM      7  C   UNL     1       1.746   2.566  21.807  0.00  0.00    +0.000 C 
ATOM      8  C   UNL     1       2.033   3.234  20.459  0.00  0.00    +0.000 C 
ATOM      9  C   UNL     1       0.694   3.501  19.751  0.00  0.00    +0.000 C 
ENDBRANCH   6   8
BRANCH   6  10
ATOM     10  S   UNL     1       4.538   1.922  20.429  0.00  0.00    +0.000 S 
ATOM     11  H   UNL     1       5.022   1.163  19.430  0.00  0.00    +0.000 HD
ENDBRANCH   6  10
ENDBRANCH   2   6
ENDBRANCH   1   4
BRANCH   1  12
ATOM     12  C   UNL     1       5.941   6.033  18.173  0.00  0.00    +0.000 C 
ATOM     13  O   UNL     1       6.474   6.971  17.586  0.00  0.00    +0.000 OA
BRANCH  12  14
ATOM     14  OXT UNL     1       6.408   5.590  19.360  0.00  0.00    +0.000 OA
ATOM     15  HXT UNL     1       6.012   6.003  20.149  0.00  0.00    +0.000 HD
ENDBRANCH  12  14
ENDBRANCH   1  12
BRANCH   1  16
ATOM     16  C   UNL     1       3.625   6.290  17.115  0.00  0.00    +0.000 C 
BRANCH  16  17
ATOM     17  C   UNL     1       2.941   7.148  18.156  0.00  0.00    +0.000 A 
ATOM     18  C   UNL     1       2.677   6.684  19.445  0.00  0.00    +0.000 A 
ATOM     19  C   UNL     1       1.922   7.415  20.343  0.00  0.00    +0.000 A 
ATOM     20  C   UNL     1       1.421   8.669  20.005  0.00  0.00    +0.000 A 
ATOM     21  C   UNL     1       1.727   9.166  18.725  0.00  0.00    +0.000 A 
ATOM     22  C   UNL     1       2.486   8.423  17.813  0.00  0.00    +0.000 A 
BRANCH  20  23
ATOM     23  C   UNL     1       0.600   9.409  20.974  0.00  0.00    +0.000 A 
ATOM     24  C   UNL     1      -0.073  10.590  20.599  0.00  0.00    +0.000 A 
ATOM     25  C   UNL     1      -0.837  11.311  21.510  0.00  0.00    +0.000 A 
ATOM     26  C   UNL     1      -0.954  10.859  22.820  0.00  0.00    +0.000 A 
ATOM     27  C   UNL     1      -0.289   9.690  23.212  0.00  0.00    +0.000 A 
ATOM     28  C   UNL     1       0.482   8.976  22.309  0.00  0.00    +0.000 A 
ENDBRANCH  20  23
ENDBRANCH  16  17
ENDBRANCH   1  16
TORSDOF 9
ENDMDL
MODEL 9
REMARK VINA RESULT:      -7.1      0.501      1.433
REMARK  Name = 
REMARK  11 active torsions:
REMARK  status: ('A' for Active; 'I' for Inactive)
REMARK    1  A    between atoms: C_1  and  C_2
REMARK    2  A    between atoms: C_2  and  C_3
REMARK    3  A    between atoms: C_2  and  C_4
REMARK    4  A    between atoms: C_4  and  S_5
REMARK    5  A    between atoms: C_4  and  C_6
REMARK    6  A    between atoms: N_8  and  CA_9
REMARK    7  A    between atoms: CA_9  and  C_10
REMARK    8  A    between atoms: CA_9  and  C_23
REMARK    9  A    between atoms: C_10  and  C_11
REMARK   10  A    between atoms: C_14  and  C_15
REMARK   11  A    between atoms: C_23  and  OXT_25
REMARK                            x       y       z     vdW  Elec       q    Type
REMARK                         _______ _______ _______ _____ _____    ______ ____
ROOT
ATOM      1  CA  UNL     1       4.081   3.514  19.484  0.00  0.00    +0.000 C 
ENDROOT
BRANCH   1   4
ATOM      2  C   UNL     1       6.109   4.827  18.841  0.00  0.00    +0.000 C 
ATOM      3  O   UNL     1       6.548   4.806  19.991  0.00  0.00    +0.000 OA
ATOM      4  N   UNL     1       4.932   4.202  18.495  0.00  0.00    +0.000 N 
ATOM      5  H   UNL     1       4.635   4.162  17.524  0.00  0.00    +0.000 HD
BRANCH   2   6
ATOM      6  C   UNL     1       6.896   5.437  17.678  0.00  0.00    +0.000 C 
BRANCH   6   8
ATOM      7  C   UNL     1       5.455   7.033  16.269  0.00  0.00    +0.000 C 
ATOM      8  C   UNL     1       6.390   6.884  17.472  0.00  0.00    +0.000 C 
ATOM      9  C   UNL     1       7.559   7.870  17.307  0.00  0.00    +0.000 C 
ENDBRANCH   6   8
BRANCH   6  10
ATOM     10  S   UNL     1       6.641   4.369  16.204  0.00  0.00    +0.000 S 
ATOM     11  H   UNL     1       7.764   3.644  16.359  0.00  0.00    +0.000 HD
ENDBRANCH   6  10
ENDBRANCH   2   6
ENDBRANCH   1   4
BRANCH   1  12
ATOM     12  C   UNL     1       4.340   1.993  19.420  0.00  0.00    +0.000 C 
ATOM     13  O   UNL     1       3.730   1.236  18.670  0.00  0.00    +0.000 OA
BRANCH  12  14
ATOM     14  OXT UNL     1       5.314   1.538  20.237  0.00  0.00    +0.000 OA
ATOM     15  HXT UNL     1       6.223   1.613  19.893  0.00  0.00    +0.000 HD
ENDBRANCH  12  14
ENDBRANCH   1  12
BRANCH   1  16
ATOM     16  C   UNL     1       2.576   3.844  19.333  0.00  0.00    +0.000 C 
BRANCH  16  17
ATOM     17  C   UNL     1       2.214   5.312  19.289  0.00  0.00    +0.000 A 
ATOM     18  C   UNL     1       2.333   6.073  18.125  0.00  0.00    +0.000 A 
ATOM     19  C   UNL     1       2.144   7.442  18.125  0.00  0.00    +0.000 A 
ATOM     20  C   UNL     1       1.791   8.117  19.291  0.00  0.00    +0.000 A 
ATOM     21  C   UNL     1       1.618   7.350  20.457  0.00  0.00    +0.000 A 
ATOM     22  C   UNL     1       1.816   5.964  20.458  0.00  0.00    +0.000 A 
BRANCH  20  23
ATOM     23  C   UNL     1       1.622   9.577  19.262  0.00  0.00    +0.000 A 
ATOM     24  C   UNL     1       0.940  10.245  20.299  0.00  0.00    +0.000 A 
ATOM     25  C   UNL     1       0.756  11.624  20.276  0.00  0.00    +0.000 A 
ATOM     26  C   UNL     1       1.262  12.368  19.216  0.00  0.00    +0.000 A 
ATOM     27  C   UNL     1       1.939  11.720  18.175  0.00  0.00    +0.000 A 
ATOM     28  C   UNL     1       2.114  10.346  18.190  0.00  0.00    +0.000 A 
ENDBRANCH  20  23
ENDBRANCH  16  17
ENDBRANCH   1  16
TORSDOF 9
ENDMDL
