MODEL 1
REMARK VINA RESULT:      -6.9      0.000      0.000
REMARK  Name = 
REMARK  9 active torsions:
REMARK  status: ('A' for Active; 'I' for Inactive)
REMARK    1  A    between atoms: C_2  and  C_3
REMARK    2  A    between atoms: C_2  and  C_11
REMARK    3  A    between atoms: C_3  and  C_4
REMARK    4  A    between atoms: C_4  and  C_5
REMARK    5  A    between atoms: C_11  and  C_12
REMARK    6  A    between atoms: C_12  and  O_13
REMARK    7  A    between atoms: C_12  and  C_14
REMARK    8  A    between atoms: C_14  and  C_15
REMARK    9  A    between atoms: C_15  and  C_16
REMARK                            x       y       z     vdW  Elec       q    Type
REMARK                         _______ _______ _______ _____ _____    ______ ____
ROOT
ATOM      1  C   UNL     1       1.420   3.862  18.668  0.00  0.00    +0.000 C 
ENDROOT
BRANCH   1   3
ATOM      2  O   UNL     1       1.825   1.534  18.991  0.00  0.00    +0.000 OA
ATOM      3  C   UNL     1       2.291   2.622  18.650  0.00  0.00    +0.000 C 
BRANCH   3   4
ATOM      4  C   UNL     1       3.754   2.755  18.278  0.00  0.00    +0.000 C 
BRANCH   4   5
ATOM      5  C   UNL     1       3.956   3.636  17.049  0.00  0.00    +0.000 C 
BRANCH   5   6
ATOM      6  C   UNL     1       4.988   4.702  17.305  0.00  0.00    +0.000 A 
ATOM      7  C   UNL     1       4.976   5.892  16.564  0.00  0.00    +0.000 A 
ATOM      8  C   UNL     1       5.973   6.851  16.751  0.00  0.00    +0.000 A 
ATOM      9  C   UNL     1       6.988   6.630  17.679  0.00  0.00    +0.000 A 
ATOM     10  C   UNL     1       7.002   5.457  18.431  0.00  0.00    +0.000 A 
ATOM     11  C   UNL     1       6.006   4.496  18.246  0.00  0.00    +0.000 A 
ENDBRANCH   5   6
ENDBRANCH   4   5
ENDBRANCH   3   4
ENDBRANCH   1   3
BRANCH   1  12
ATOM     12  C   UNL     1       0.995   4.301  20.066  0.00  0.00    +0.000 C 
BRANCH  12  13
ATOM     13  O   UNL     1       0.790   3.156  20.894  0.00  0.00    +0.000 OA
ATOM     14  H   UNL     1       1.568   2.573  20.818  0.00  0.00    +0.000 HD
ENDBRANCH  12  13
BRANCH  12  15
ATOM     15  C   UNL     1       2.046   5.196  20.737  0.00  0.00    +0.000 C 
BRANCH  15  16
ATOM     16  C   UNL     1       2.854   6.008  19.724  0.00  0.00    +0.000 C 
BRANCH  16  17
ATOM     17  C   UNL     1       2.238   7.349  19.440  0.00  0.00    +0.000 A 
ATOM     18  C   UNL     1       2.327   7.911  18.158  0.00  0.00    +0.000 A 
ATOM     19  C   UNL     1       1.732   9.142  17.884  0.00  0.00    +0.000 A 
ATOM     20  C   UNL     1       1.053   9.824  18.892  0.00  0.00    +0.000 A 
ATOM     21  C   UNL     1       0.974   9.280  20.173  0.00  0.00    +0.000 A 
ATOM     22  C   UNL     1       1.565   8.049  20.449  0.00  0.00    +0.000 A 
ENDBRANCH  16  17
ENDBRANCH  15  16
ENDBRANCH  12  15
ENDBRANCH   1  12
TORSDOF 9
ENDMDL
MODEL 2
REMARK VINA RESULT:      -6.9      0.942      1.064
REMARK  Name = 
REMARK  9 active torsions:
REMARK  status: ('A' for Active; 'I' for Inactive)
REMARK    1  A    between atoms: C_2  and  C_3
REMARK    2  A    between atoms: C_2  and  C_11
REMARK    3  A    between atoms: C_3  and  C_4
REMARK    4  A    between atoms: C_4  and  C_5
REMARK    5  A    between atoms: C_11  and  C_12
REMARK    6  A    between atoms: C_12  and  O_13
REMARK    7  A    between atoms: C_12  and  C_14
REMARK    8  A    between atoms: C_14  and  C_15
REMARK    9  A    between atoms: C_15  and  C_16
REMARK                            x       y       z     vdW  Elec       q    Type
REMARK                         _______ _______ _______ _____ _____    ______ ____
ROOT
ATOM      1  C   UNL     1       2.471   2.868  19.919  0.00  0.00    +0.000 C 
ENDROOT
BRANCH   1   3
ATOM      2  O   UNL     1       0.664   2.305  18.469  0.00  0.00    +0.000 OA
ATOM      3  C   UNL     1       1.814   2.739  18.560  0.00  0.00    +0.000 C 
BRANCH   3   4
ATOM      4  C   UNL     1       2.614   3.079  17.319  0.00  0.00    +0.000 C 
BRANCH   4   5
ATOM      5  C   UNL     1       4.114   2.913  17.540  0.00  0.00    +0.000 C 
BRANCH   5   6
ATOM      6  C   UNL     1       4.839   4.222  17.365  0.00  0.00    +0.000 A 
ATOM      7  C   UNL     1       4.768   4.913  16.148  0.00  0.00    +0.000 A 
ATOM      8  C   UNL     1       5.495   6.090  15.960  0.00  0.00    +0.000 A 
ATOM      9  C   UNL     1       6.297   6.585  16.986  0.00  0.00    +0.000 A 
ATOM     10  C   UNL     1       6.363   5.914  18.205  0.00  0.00    +0.000 A 
ATOM     11  C   UNL     1       5.638   4.736  18.395  0.00  0.00    +0.000 A 
ENDBRANCH   5   6
ENDBRANCH   4   5
ENDBRANCH   3   4
ENDBRANCH   1   3
BRANCH   1  12
ATOM     12  C   UNL     1       1.562   3.454  20.995  0.00  0.00    +0.000 C 
BRANCH  12  13
ATOM     13  O   UNL     1       2.047   3.096  22.289  0.00  0.00    +0.000 OA
ATOM     14  H   UNL     1       1.364   2.573  22.746  0.00  0.00    +0.000 HD
ENDBRANCH  12  13
BRANCH  12  15
ATOM     15  C   UNL     1       1.486   4.986  20.919  0.00  0.00    +0.000 C 
BRANCH  15  16
ATOM     16  C   UNL     1       2.688   5.594  20.195  0.00  0.00    +0.000 C 
BRANCH  16  17
ATOM     17  C   UNL     1       2.365   6.914  19.553  0.00  0.00    +0.000 A 
ATOM     18  C   UNL     1       2.782   7.183  18.241  0.00  0.00    +0.000 A 
ATOM     19  C   UNL     1       2.459   8.395  17.633  0.00  0.00    +0.000 A 
ATOM     20  C   UNL     1       1.726   9.351  18.335  0.00  0.00    +0.000 A 
ATOM     21  C   UNL     1       1.322   9.097  19.645  0.00  0.00    +0.000 A 
ATOM     22  C   UNL     1       1.641   7.885  20.254  0.00  0.00    +0.000 A 
ENDBRANCH  16  17
ENDBRANCH  15  16
ENDBRANCH  12  15
ENDBRANCH   1  12
TORSDOF 9
ENDMDL
MODEL 3
REMARK VINA RESULT:      -6.7      4.111      6.378
REMARK  Name = 
REMARK  9 active torsions:
REMARK  status: ('A' for Active; 'I' for Inactive)
REMARK    1  A    between atoms: C_2  and  C_3
REMARK    2  A    between atoms: C_2  and  C_11
REMARK    3  A    between atoms: C_3  and  C_4
REMARK    4  A    between atoms: C_4  and  C_5
REMARK    5  A    between atoms: C_11  and  C_12
REMARK    6  A    between atoms: C_12  and  O_13
REMARK    7  A    between atoms: C_12  and  C_14
REMARK    8  A    between atoms: C_14  and  C_15
REMARK    9  A    between atoms: C_15  and  C_16
REMARK                            x       y       z     vdW  Elec       q    Type
REMARK                         _______ _______ _______ _____ _____    ______ ____
ROOT
ATOM      1  C   UNL     1       7.146   5.986  18.626  0.00  0.00    +0.000 C 
ENDROOT
BRANCH   1   3
ATOM      2  O   UNL     1       7.794   7.163  16.656  0.00  0.00    +0.000 OA
ATOM      3  C   UNL     1       7.766   7.154  17.888  0.00  0.00    +0.000 C 
BRANCH   3   4
ATOM      4  C   UNL     1       8.411   8.270  18.685  0.00  0.00    +0.000 C 
BRANCH   4   5
ATOM      5  C   UNL     1       8.432   9.587  17.915  0.00  0.00    +0.000 C 
BRANCH   5   6
ATOM      6  C   UNL     1       9.365  10.580  18.557  0.00  0.00    +0.000 A 
ATOM      7  C   UNL     1      10.225  11.356  17.769  0.00  0.00    +0.000 A 
ATOM      8  C   UNL     1      11.139  12.226  18.365  0.00  0.00    +0.000 A 
ATOM      9  C   UNL     1      11.201  12.327  19.754  0.00  0.00    +0.000 A 
ATOM     10  C   UNL     1      10.340  11.571  20.547  0.00  0.00    +0.000 A 
ATOM     11  C   UNL     1       9.426  10.699  19.952  0.00  0.00    +0.000 A 
ENDBRANCH   5   6
ENDBRANCH   4   5
ENDBRANCH   3   4
ENDBRANCH   1   3
BRANCH   1  12
ATOM     12  C   UNL     1       6.159   5.176  17.789  0.00  0.00    +0.000 C 
BRANCH  12  13
ATOM     13  O   UNL     1       6.101   3.834  18.272  0.00  0.00    +0.000 OA
ATOM     14  H   UNL     1       5.365   3.762  18.907  0.00  0.00    +0.000 HD
ENDBRANCH  12  13
BRANCH  12  15
ATOM     15  C   UNL     1       4.742   5.764  17.834  0.00  0.00    +0.000 C 
BRANCH  15  16
ATOM     16  C   UNL     1       4.152   5.756  19.245  0.00  0.00    +0.000 C 
BRANCH  16  17
ATOM     17  C   UNL     1       2.976   4.827  19.372  0.00  0.00    +0.000 A 
ATOM     18  C   UNL     1       2.405   4.577  20.628  0.00  0.00    +0.000 A 
ATOM     19  C   UNL     1       1.297   3.739  20.744  0.00  0.00    +0.000 A 
ATOM     20  C   UNL     1       0.758   3.138  19.608  0.00  0.00    +0.000 A 
ATOM     21  C   UNL     1       1.330   3.369  18.358  0.00  0.00    +0.000 A 
ATOM     22  C   UNL     1       2.436   4.209  18.238  0.00  0.00    +0.000 A 
ENDBRANCH  16  17
ENDBRANCH  15  16
ENDBRANCH  12  15
ENDBRANCH   1  12
TORSDOF 9
ENDMDL
MODEL 4
REMARK VINA RESULT:      -6.6      3.229      6.889
REMARK  Name = 
REMARK  9 active torsions:
REMARK  status: ('A' for Active; 'I' for Inactive)
REMARK    1  A    between atoms: C_2  and  C_3
REMARK    2  A    between atoms: C_2  and  C_11
REMARK    3  A    between atoms: C_3  and  C_4
REMARK    4  A    between atoms: C_4  and  C_5
REMARK    5  A    between atoms: C_11  and  C_12
REMARK    6  A    between atoms: C_12  and  O_13
REMARK    7  A    between atoms: C_12  and  C_14
REMARK    8  A    between atoms: C_14  and  C_15
REMARK    9  A    between atoms: C_15  and  C_16
REMARK                            x       y       z     vdW  Elec       q    Type
REMARK                         _______ _______ _______ _____ _____    ______ ____
ROOT
ATOM      1  C   UNL     1       6.976   5.833  18.760  0.00  0.00    +0.000 C 
ENDROOT
BRANCH   1   3
ATOM      2  O   UNL     1       5.764   3.862  19.335  0.00  0.00    +0.000 OA
ATOM      3  C   UNL     1       5.746   5.090  19.239  0.00  0.00    +0.000 C 
BRANCH   3   4
ATOM      4  C   UNL     1       4.480   5.871  19.527  0.00  0.00    +0.000 C 
BRANCH   4   5
ATOM      5  C   UNL     1       3.454   5.734  18.406  0.00  0.00    +0.000 C 
BRANCH   5   6
ATOM      6  C   UNL     1       2.523   4.578  18.656  0.00  0.00    +0.000 A 
ATOM      7  C   UNL     1       1.676   4.580  19.773  0.00  0.00    +0.000 A 
ATOM      8  C   UNL     1       0.862   3.479  20.045  0.00  0.00    +0.000 A 
ATOM      9  C   UNL     1       0.887   2.368  19.204  0.00  0.00    +0.000 A 
ATOM     10  C   UNL     1       1.715   2.362  18.082  0.00  0.00    +0.000 A 
ATOM     11  C   UNL     1       2.530   3.462  17.809  0.00  0.00    +0.000 A 
ENDBRANCH   5   6
ENDBRANCH   4   5
ENDBRANCH   3   4
ENDBRANCH   1   3
BRANCH   1  12
ATOM     12  C   UNL     1       7.394   5.487  17.333  0.00  0.00    +0.000 C 
BRANCH  12  13
ATOM     13  O   UNL     1       7.958   4.176  17.298  0.00  0.00    +0.000 OA
ATOM     14  H   UNL     1       8.826   4.221  16.856  0.00  0.00    +0.000 HD
ENDBRANCH  12  13
BRANCH  12  15
ATOM     15  C   UNL     1       6.210   5.526  16.357  0.00  0.00    +0.000 C 
BRANCH  15  16
ATOM     16  C   UNL     1       5.999   4.191  15.642  0.00  0.00    +0.000 C 
BRANCH  16  17
ATOM     17  C   UNL     1       6.418   4.238  14.199  0.00  0.00    +0.000 A 
ATOM     18  C   UNL     1       7.436   5.108  13.787  0.00  0.00    +0.000 A 
ATOM     19  C   UNL     1       7.845   5.133  12.454  0.00  0.00    +0.000 A 
ATOM     20  C   UNL     1       7.234   4.294  11.524  0.00  0.00    +0.000 A 
ATOM     21  C   UNL     1       6.209   3.437  11.923  0.00  0.00    +0.000 A 
ATOM     22  C   UNL     1       5.800   3.408  13.255  0.00  0.00    +0.000 A 
ENDBRANCH  16  17
ENDBRANCH  15  16
ENDBRANCH  12  15
ENDBRANCH   1  12
TORSDOF 9
ENDMDL
MODEL 5
REMARK VINA RESULT:      -6.5      4.138      6.544
REMARK  Name = 
REMARK  9 active torsions:
REMARK  status: ('A' for Active; 'I' for Inactive)
REMARK    1  A    between atoms: C_2  and  C_3
REMARK    2  A    between atoms: C_2  and  C_11
REMARK    3  A    between atoms: C_3  and  C_4
REMARK    4  A    between atoms: C_4  and  C_5
REMARK    5  A    between atoms: C_11  and  C_12
REMARK    6  A    between atoms: C_12  and  O_13
REMARK    7  A    between atoms: C_12  and  C_14
REMARK    8  A    between atoms: C_14  and  C_15
REMARK    9  A    between atoms: C_15  and  C_16
REMARK                            x       y       z     vdW  Elec       q    Type
REMARK                         _______ _______ _______ _____ _____    ______ ____
ROOT
ATOM      1  C   UNL     1       7.647   6.364  18.249  0.00  0.00    +0.000 C 
ENDROOT
BRANCH   1   3
ATOM      2  O   UNL     1       6.357   7.437  16.555  0.00  0.00    +0.000 OA
ATOM      3  C   UNL     1       7.233   7.558  17.412  0.00  0.00    +0.000 C 
BRANCH   3   4
ATOM      4  C   UNL     1       7.959   8.874  17.597  0.00  0.00    +0.000 C 
BRANCH   4   5
ATOM      5  C   UNL     1       8.758   8.912  18.896  0.00  0.00    +0.000 C 
BRANCH   5   6
ATOM      6  C   UNL     1       9.346  10.278  19.135  0.00  0.00    +0.000 A 
ATOM      7  C   UNL     1       9.491  10.768  20.440  0.00  0.00    +0.000 A 
ATOM      8  C   UNL     1       9.971  12.060  20.661  0.00  0.00    +0.000 A 
ATOM      9  C   UNL     1      10.311  12.872  19.581  0.00  0.00    +0.000 A 
ATOM     10  C   UNL     1      10.185  12.389  18.280  0.00  0.00    +0.000 A 
ATOM     11  C   UNL     1       9.704  11.097  18.056  0.00  0.00    +0.000 A 
ENDBRANCH   5   6
ENDBRANCH   4   5
ENDBRANCH   3   4
ENDBRANCH   1   3
BRANCH   1  12
ATOM     12  C   UNL     1       7.180   5.023  17.691  0.00  0.00    +0.000 C 
BRANCH  12  13
ATOM     13  O   UNL     1       8.241   4.071  17.763  0.00  0.00    +0.000 OA
ATOM     14  H   UNL     1       9.090   4.543  17.685  0.00  0.00    +0.000 HD
ENDBRANCH  12  13
BRANCH  12  15
ATOM     15  C   UNL     1       5.978   4.461  18.465  0.00  0.00    +0.000 C 
BRANCH  15  16
ATOM     16  C   UNL     1       4.712   4.400  17.612  0.00  0.00    +0.000 C 
BRANCH  16  17
ATOM     17  C   UNL     1       3.466   4.252  18.440  0.00  0.00    +0.000 A 
ATOM     18  C   UNL     1       3.414   4.777  19.739  0.00  0.00    +0.000 A 
ATOM     19  C   UNL     1       2.250   4.666  20.498  0.00  0.00    +0.000 A 
ATOM     20  C   UNL     1       1.133   4.022  19.968  0.00  0.00    +0.000 A 
ATOM     21  C   UNL     1       1.183   3.483  18.684  0.00  0.00    +0.000 A 
ATOM     22  C   UNL     1       2.344   3.595  17.921  0.00  0.00    +0.000 A 
ENDBRANCH  16  17
ENDBRANCH  15  16
ENDBRANCH  12  15
ENDBRANCH   1  12
TORSDOF 9
ENDMDL
MODEL 6
REMARK VINA RESULT:      -6.5      2.130      5.611
REMARK  Name = 
REMARK  9 active torsions:
REMARK  status: ('A' for Active; 'I' for Inactive)
REMARK    1  A    between atoms: C_2  and  C_3
REMARK    2  A    between atoms: C_2  and  C_11
REMARK    3  A    between atoms: C_3  and  C_4
REMARK    4  A    between atoms: C_4  and  C_5
REMARK    5  A    between atoms: C_11  and  C_12
REMARK    6  A    between atoms: C_12  and  O_13
REMARK    7  A    between atoms: C_12  and  C_14
REMARK    8  A    between atoms: C_14  and  C_15
REMARK    9  A    between atoms: C_15  and  C_16
REMARK                            x       y       z     vdW  Elec       q    Type
REMARK                         _______ _______ _______ _____ _____    ______ ____
ROOT
ATOM      1  C   UNL     1       5.515   5.075  16.116  0.00  0.00    +0.000 C 
ENDROOT
BRANCH   1   3
ATOM      2  O   UNL     1       6.589   6.441  17.748  0.00  0.00    +0.000 OA
ATOM      3  C   UNL     1       5.581   6.254  17.065  0.00  0.00    +0.000 C 
BRANCH   3   4
ATOM      4  C   UNL     1       4.368   7.149  17.212  0.00  0.00    +0.000 C 
BRANCH   4   5
ATOM      5  C   UNL     1       3.246   6.472  17.993  0.00  0.00    +0.000 C 
BRANCH   5   6
ATOM      6  C   UNL     1       2.443   7.477  18.778  0.00  0.00    +0.000 A 
ATOM      7  C   UNL     1       2.120   7.233  20.119  0.00  0.00    +0.000 A 
ATOM      8  C   UNL     1       1.318   8.128  20.828  0.00  0.00    +0.000 A 
ATOM      9  C   UNL     1       0.833   9.275  20.202  0.00  0.00    +0.000 A 
ATOM     10  C   UNL     1       1.160   9.535  18.873  0.00  0.00    +0.000 A 
ATOM     11  C   UNL     1       1.962   8.640  18.162  0.00  0.00    +0.000 A 
ENDBRANCH   5   6
ENDBRANCH   4   5
ENDBRANCH   3   4
ENDBRANCH   1   3
BRANCH   1  12
ATOM     12  C   UNL     1       5.376   3.724  16.813  0.00  0.00    +0.000 C 
BRANCH  12  13
ATOM     13  O   UNL     1       5.926   3.797  18.127  0.00  0.00    +0.000 OA
ATOM     14  H   UNL     1       6.030   2.892  18.474  0.00  0.00    +0.000 HD
ENDBRANCH  12  13
BRANCH  12  15
ATOM     15  C   UNL     1       3.910   3.281  16.930  0.00  0.00    +0.000 C 
BRANCH  15  16
ATOM     16  C   UNL     1       3.712   2.193  17.985  0.00  0.00    +0.000 C 
BRANCH  16  17
ATOM     17  C   UNL     1       2.848   2.649  19.128  0.00  0.00    +0.000 A 
ATOM     18  C   UNL     1       3.305   2.538  20.449  0.00  0.00    +0.000 A 
ATOM     19  C   UNL     1       2.516   2.986  21.507  0.00  0.00    +0.000 A 
ATOM     20  C   UNL     1       1.263   3.541  21.254  0.00  0.00    +0.000 A 
ATOM     21  C   UNL     1       0.795   3.640  19.944  0.00  0.00    +0.000 A 
ATOM     22  C   UNL     1       1.582   3.195  18.884  0.00  0.00    +0.000 A 
ENDBRANCH  16  17
ENDBRANCH  15  16
ENDBRANCH  12  15
ENDBRANCH   1  12
TORSDOF 9
ENDMDL
MODEL 7
REMARK VINA RESULT:      -6.5      2.317      4.719
REMARK  Name = 
REMARK  9 active torsions:
REMARK  status: ('A' for Active; 'I' for Inactive)
REMARK    1  A    between atoms: C_2  and  C_3
REMARK    2  A    between atoms: C_2  and  C_11
REMARK    3  A    between atoms: C_3  and  C_4
REMARK    4  A    between atoms: C_4  and  C_5
REMARK    5  A    between atoms: C_11  and  C_12
REMARK    6  A    between atoms: C_12  and  O_13
REMARK    7  A    between atoms: C_12  and  C_14
REMARK    8  A    between atoms: C_14  and  C_15
REMARK    9  A    between atoms: C_15  and  C_16
REMARK                            x       y       z     vdW  Elec       q    Type
REMARK                         _______ _______ _______ _____ _____    ______ ____
ROOT
ATOM      1  C   UNL     1       6.337   4.578  17.373  0.00  0.00    +0.000 C 
ENDROOT
BRANCH   1   3
ATOM      2  O   UNL     1       5.894   3.195  15.481  0.00  0.00    +0.000 OA
ATOM      3  C   UNL     1       5.444   3.717  16.503  0.00  0.00    +0.000 C 
BRANCH   3   4
ATOM      4  C   UNL     1       3.981   3.568  16.867  0.00  0.00    +0.000 C 
BRANCH   4   5
ATOM      5  C   UNL     1       3.710   2.281  17.640  0.00  0.00    +0.000 C 
BRANCH   5   6
ATOM      6  C   UNL     1       2.869   2.545  18.861  0.00  0.00    +0.000 A 
ATOM      7  C   UNL     1       1.490   2.766  18.737  0.00  0.00    +0.000 A 
ATOM      8  C   UNL     1       0.721   3.079  19.858  0.00  0.00    +0.000 A 
ATOM      9  C   UNL     1       1.321   3.173  21.112  0.00  0.00    +0.000 A 
ATOM     10  C   UNL     1       2.688   2.941  21.249  0.00  0.00    +0.000 A 
ATOM     11  C   UNL     1       3.460   2.628  20.128  0.00  0.00    +0.000 A 
ENDBRANCH   5   6
ENDBRANCH   4   5
ENDBRANCH   3   4
ENDBRANCH   1   3
BRANCH   1  12
ATOM     12  C   UNL     1       6.733   5.906  16.734  0.00  0.00    +0.000 C 
BRANCH  12  13
ATOM     13  O   UNL     1       6.538   5.842  15.322  0.00  0.00    +0.000 OA
ATOM     14  H   UNL     1       7.117   5.148  14.957  0.00  0.00    +0.000 HD
ENDBRANCH  12  13
BRANCH  12  15
ATOM     15  C   UNL     1       5.907   7.080  17.280  0.00  0.00    +0.000 C 
BRANCH  15  16
ATOM     16  C   UNL     1       4.468   7.070  16.764  0.00  0.00    +0.000 C 
BRANCH  16  17
ATOM     17  C   UNL     1       3.462   7.267  17.863  0.00  0.00    +0.000 A 
ATOM     18  C   UNL     1       3.308   6.297  18.864  0.00  0.00    +0.000 A 
ATOM     19  C   UNL     1       2.395   6.492  19.900  0.00  0.00    +0.000 A 
ATOM     20  C   UNL     1       1.624   7.652  19.938  0.00  0.00    +0.000 A 
ATOM     21  C   UNL     1       1.759   8.613  18.938  0.00  0.00    +0.000 A 
ATOM     22  C   UNL     1       2.673   8.423  17.903  0.00  0.00    +0.000 A 
ENDBRANCH  16  17
ENDBRANCH  15  16
ENDBRANCH  12  15
ENDBRANCH   1  12
TORSDOF 9
ENDMDL
MODEL 8
REMARK VINA RESULT:      -6.5      2.288      4.361
REMARK  Name = 
REMARK  9 active torsions:
REMARK  status: ('A' for Active; 'I' for Inactive)
REMARK    1  A    between atoms: C_2  and  C_3
REMARK    2  A    between atoms: C_2  and  C_11
REMARK    3  A    between atoms: C_3  and  C_4
REMARK    4  A    between atoms: C_4  and  C_5
REMARK    5  A    between atoms: C_11  and  C_12
REMARK    6  A    between atoms: C_12  and  O_13
REMARK    7  A    between atoms: C_12  and  C_14
REMARK    8  A    between atoms: C_14  and  C_15
REMARK    9  A    between atoms: C_15  and  C_16
REMARK                            x       y       z     vdW  Elec       q    Type
REMARK                         _______ _______ _______ _____ _____    ______ ____
ROOT
ATOM      1  C   UNL     1       6.198   5.004  17.106  0.00  0.00    +0.000 C 
ENDROOT
BRANCH   1   3
ATOM      2  O   UNL     1       5.382   4.104  15.054  0.00  0.00    +0.000 OA
ATOM      3  C   UNL     1       5.362   4.044  16.284  0.00  0.00    +0.000 C 
BRANCH   3   4
ATOM      4  C   UNL     1       4.453   3.064  16.997  0.00  0.00    +0.000 C 
BRANCH   4   5
ATOM      5  C   UNL     1       3.036   3.607  17.156  0.00  0.00    +0.000 C 
BRANCH   5   6
ATOM      6  C   UNL     1       2.583   3.536  18.591  0.00  0.00    +0.000 A 
ATOM      7  C   UNL     1       3.390   2.923  19.559  0.00  0.00    +0.000 A 
ATOM      8  C   UNL     1       2.942   2.793  20.874  0.00  0.00    +0.000 A 
ATOM      9  C   UNL     1       1.685   3.275  21.233  0.00  0.00    +0.000 A 
ATOM     10  C   UNL     1       0.880   3.899  20.282  0.00  0.00    +0.000 A 
ATOM     11  C   UNL     1       1.326   4.029  18.966  0.00  0.00    +0.000 A 
ENDBRANCH   5   6
ENDBRANCH   4   5
ENDBRANCH   3   4
ENDBRANCH   1   3
BRANCH   1  12
ATOM     12  C   UNL     1       5.681   6.440  17.098  0.00  0.00    +0.000 C 
BRANCH  12  13
ATOM     13  O   UNL     1       5.230   6.786  15.789  0.00  0.00    +0.000 OA
ATOM     14  H   UNL     1       4.443   6.251  15.578  0.00  0.00    +0.000 HD
ENDBRANCH  12  13
BRANCH  12  15
ATOM     15  C   UNL     1       4.515   6.642  18.076  0.00  0.00    +0.000 C 
BRANCH  15  16
ATOM     16  C   UNL     1       3.314   7.323  17.419  0.00  0.00    +0.000 C 
BRANCH  16  17
ATOM     17  C   UNL     1       2.416   7.997  18.418  0.00  0.00    +0.000 A 
ATOM     18  C   UNL     1       1.702   9.150  18.062  0.00  0.00    +0.000 A 
ATOM     19  C   UNL     1       0.847   9.760  18.979  0.00  0.00    +0.000 A 
ATOM     20  C   UNL     1       0.707   9.229  20.260  0.00  0.00    +0.000 A 
ATOM     21  C   UNL     1       1.427   8.093  20.627  0.00  0.00    +0.000 A 
ATOM     22  C   UNL     1       2.280   7.478  19.712  0.00  0.00    +0.000 A 
ENDBRANCH  16  17
ENDBRANCH  15  16
ENDBRANCH  12  15
ENDBRANCH   1  12
TORSDOF 9
ENDMDL
MODEL 9
REMARK VINA RESULT:      -6.4      0.670      4.816
REMARK  Name = 
REMARK  9 active torsions:
REMARK  status: ('A' for Active; 'I' for Inactive)
REMARK    1  A    between atoms: C_2  and  C_3
REMARK    2  A    between atoms: C_2  and  C_11
REMARK    3  A    between atoms: C_3  and  C_4
REMARK    4  A    between atoms: C_4  and  C_5
REMARK    5  A    between atoms: C_11  and  C_12
REMARK    6  A    between atoms: C_12  and  O_13
REMARK    7  A    between atoms: C_12  and  C_14
REMARK    8  A    between atoms: C_14  and  C_15
REMARK    9  A    between atoms: C_15  and  C_16
REMARK                            x       y       z     vdW  Elec       q    Type
REMARK                         _______ _______ _______ _____ _____    ______ ____
ROOT
ATOM      1  C   UNL     1       1.314   3.732  19.098  0.00  0.00    +0.000 C 
ENDROOT
BRANCH   1   3
ATOM      2  O   UNL     1       1.444   3.331  21.445  0.00  0.00    +0.000 OA
ATOM      3  C   UNL     1       1.486   4.165  20.540  0.00  0.00    +0.000 C 
BRANCH   3   4
ATOM      4  C   UNL     1       1.635   5.640  20.853  0.00  0.00    +0.000 C 
BRANCH   4   5
ATOM      5  C   UNL     1       2.633   6.325  19.924  0.00  0.00    +0.000 C 
BRANCH   5   6
ATOM      6  C   UNL     1       2.101   7.645  19.430  0.00  0.00    +0.000 A 
ATOM      7  C   UNL     1       2.415   8.097  18.141  0.00  0.00    +0.000 A 
ATOM      8  C   UNL     1       1.981   9.351  17.707  0.00  0.00    +0.000 A 
ATOM      9  C   UNL     1       1.231  10.162  18.556  0.00  0.00    +0.000 A 
ATOM     10  C   UNL     1       0.902   9.716  19.834  0.00  0.00    +0.000 A 
ATOM     11  C   UNL     1       1.335   8.463  20.271  0.00  0.00    +0.000 A 
ENDBRANCH   5   6
ENDBRANCH   4   5
ENDBRANCH   3   4
ENDBRANCH   1   3
BRANCH   1  12
ATOM     12  C   UNL     1       1.969   2.393  18.770  0.00  0.00    +0.000 C 
BRANCH  12  13
ATOM     13  O   UNL     1       1.081   1.598  17.985  0.00  0.00    +0.000 OA
ATOM     14  H   UNL     1       1.125   1.902  17.060  0.00  0.00    +0.000 HD
ENDBRANCH  12  13
BRANCH  12  15
ATOM     15  C   UNL     1       3.279   2.564  17.988  0.00  0.00    +0.000 C 
BRANCH  15  16
ATOM     16  C   UNL     1       4.381   3.208  18.829  0.00  0.00    +0.000 C 
BRANCH  16  17
ATOM     17  C   UNL     1       4.986   4.412  18.162  0.00  0.00    +0.000 A 
ATOM     18  C   UNL     1       6.117   5.031  18.712  0.00  0.00    +0.000 A 
ATOM     19  C   UNL     1       6.697   6.130  18.079  0.00  0.00    +0.000 A 
ATOM     20  C   UNL     1       6.144   6.623  16.898  0.00  0.00    +0.000 A 
ATOM     21  C   UNL     1       5.009   6.023  16.355  0.00  0.00    +0.000 A 
ATOM     22  C   UNL     1       4.429   4.923  16.983  0.00  0.00    +0.000 A 
ENDBRANCH  16  17
ENDBRANCH  15  16
ENDBRANCH  12  15
ENDBRANCH   1  12
TORSDOF 9
ENDMDL
