MODEL 1
REMARK VINA RESULT:      -8.3      0.000      0.000
REMARK  Name = 
REMARK  7 active torsions:
REMARK  status: ('A' for Active; 'I' for Inactive)
REMARK    1  A    between atoms: C_1  and  C_2
REMARK    2  A    between atoms: N_4  and  C_5
REMARK    3  A    between atoms: C_9  and  C_10
REMARK    4  A    between atoms: C_13  and  N_14
REMARK    5  A    between atoms: C_15  and  O_16
REMARK    6  A    between atoms: O_16  and  C_17
REMARK    7  A    between atoms: C_17  and  C_18
REMARK                            x       y       z     vdW  Elec       q    Type
REMARK                         _______ _______ _______ _____ _____    ______ ____
ROOT
ATOM      1  C   UNL     1       3.000   5.755  19.429  0.00  0.00    +0.000 A 
ATOM      2  C   UNL     1       2.302   4.595  19.761  0.00  0.00    +0.000 A 
ATOM      3  N   UNL     1       2.876   3.369  19.841  0.00  0.00    +0.000 NA
ATOM      4  C   UNL     1       4.195   3.324  19.580  0.00  0.00    +0.000 A 
ATOM      5  C   UNL     1       4.900   4.490  19.222  0.00  0.00    +0.000 A 
ATOM      6  N   UNL     1       4.322   5.712  19.139  0.00  0.00    +0.000 NA
ENDROOT
BRANCH   1  11
ATOM      7  C   UNL     1      -0.102  10.586  20.875  0.00  0.00    +0.000 A 
ATOM      8  C   UNL     1       0.442   9.480  21.493  0.00  0.00    +0.000 A 
ATOM      9  N   UNL     1       1.095   8.794  20.494  0.00  0.00    +0.000 N 
ATOM     10  C   UNL     1       1.767   7.572  20.530  0.00  0.00    +0.000 A 
ATOM     11  C   UNL     1       2.340   7.080  19.405  0.00  0.00    +0.000 A 
ATOM     12  C   UNL     1       2.262   7.918  18.196  0.00  0.00    +0.000 A 
ATOM     13  C   UNL     1       1.596   9.087  18.169  0.00  0.00    +0.000 A 
ATOM     14  C   UNL     1       0.958   9.555  19.344  0.00  0.00    +0.000 A 
ATOM     15  N   UNL     1       0.232  10.623  19.557  0.00  0.00    +0.000 NA
BRANCH   7  19
ATOM     16  C   UNL     1      -1.341  13.568  22.707  0.00  0.00    +0.000 C 
ATOM     17  C   UNL     1      -0.335  12.757  21.934  0.00  0.00    +0.000 C 
ATOM     18  O   UNL     1       0.802  13.188  21.769  0.00  0.00    +0.000 OA
ATOM     19  N   UNL     1      -0.857  11.556  21.488  0.00  0.00    +0.000 N 
ATOM     20  H   UNL     1      -1.847  11.383  21.573  0.00  0.00    +0.000 HD
ENDBRANCH   7  19
ENDBRANCH   1  11
BRANCH   4  21
ATOM     21  N   UNL     1       4.797   2.075  19.737  0.00  0.00    +0.000 N 
ATOM     22  H   UNL     1       4.178   1.500  20.301  0.00  0.00    +0.000 HD
ATOM     23  H   UNL     1       5.040   1.655  18.849  0.00  0.00    +0.000 HD
ENDBRANCH   4  21
BRANCH   5  24
ATOM     24  O   UNL     1       6.247   4.388  18.935  0.00  0.00    +0.000 OA
BRANCH  24  25
ATOM     25  C   UNL     1       6.987   5.553  19.337  0.00  0.00    +0.000 C 
BRANCH  25  26
ATOM     26  C   UNL     1       7.489   6.440  18.198  0.00  0.00    +0.000 C 
ATOM     27  F   UNL     1       8.535   7.221  18.539  0.00  0.00    +0.000 F 
ATOM     28  F   UNL     1       7.896   5.669  17.157  0.00  0.00    +0.000 F 
ATOM     29  F   UNL     1       6.510   7.244  17.719  0.00  0.00    +0.000 F 
ENDBRANCH  25  26
ENDBRANCH  24  25
ENDBRANCH   5  24
TORSDOF 6
ENDMDL
MODEL 2
REMARK VINA RESULT:      -8.2      1.236      1.513
REMARK  Name = 
REMARK  7 active torsions:
REMARK  status: ('A' for Active; 'I' for Inactive)
REMARK    1  A    between atoms: C_1  and  C_2
REMARK    2  A    between atoms: N_4  and  C_5
REMARK    3  A    between atoms: C_9  and  C_10
REMARK    4  A    between atoms: C_13  and  N_14
REMARK    5  A    between atoms: C_15  and  O_16
REMARK    6  A    between atoms: O_16  and  C_17
REMARK    7  A    between atoms: C_17  and  C_18
REMARK                            x       y       z     vdW  Elec       q    Type
REMARK                         _______ _______ _______ _____ _____    ______ ____
ROOT
ATOM      1  C   UNL     1       3.171   5.729  19.256  0.00  0.00    +0.000 A 
ATOM      2  C   UNL     1       2.525   4.594  19.745  0.00  0.00    +0.000 A 
ATOM      3  N   UNL     1       3.117   3.380  19.854  0.00  0.00    +0.000 NA
ATOM      4  C   UNL     1       4.401   3.319  19.458  0.00  0.00    +0.000 A 
ATOM      5  C   UNL     1       5.052   4.457  18.942  0.00  0.00    +0.000 A 
ATOM      6  N   UNL     1       4.456   5.668  18.831  0.00  0.00    +0.000 NA
ENDROOT
BRANCH   1  11
ATOM      7  C   UNL     1      -0.019  10.536  20.583  0.00  0.00    +0.000 A 
ATOM      8  C   UNL     1       0.521   9.442  21.224  0.00  0.00    +0.000 A 
ATOM      9  N   UNL     1       1.207   8.754  20.248  0.00  0.00    +0.000 N 
ATOM     10  C   UNL     1       1.890   7.540  20.311  0.00  0.00    +0.000 A 
ATOM     11  C   UNL     1       2.498   7.046  19.204  0.00  0.00    +0.000 A 
ATOM     12  C   UNL     1       2.442   7.874  17.987  0.00  0.00    +0.000 A 
ATOM     13  C   UNL     1       1.764   9.036  17.934  0.00  0.00    +0.000 A 
ATOM     14  C   UNL     1       1.092   9.506  19.088  0.00  0.00    +0.000 A 
ATOM     15  N   UNL     1       0.349  10.567  19.274  0.00  0.00    +0.000 NA
BRANCH   7  19
ATOM     16  C   UNL     1      -1.339  13.460  22.454  0.00  0.00    +0.000 C 
ATOM     17  C   UNL     1      -0.283  12.649  21.747  0.00  0.00    +0.000 C 
ATOM     18  O   UNL     1       0.881  13.034  21.740  0.00  0.00    +0.000 OA
ATOM     19  N   UNL     1      -0.799  11.503  21.169  0.00  0.00    +0.000 N 
ATOM     20  H   UNL     1      -1.799  11.373  21.130  0.00  0.00    +0.000 HD
ENDBRANCH   7  19
ENDBRANCH   1  11
BRANCH   4  21
ATOM     21  N   UNL     1       5.030   2.087  19.642  0.00  0.00    +0.000 N 
ATOM     22  H   UNL     1       5.521   1.857  18.782  0.00  0.00    +0.000 HD
ATOM     23  H   UNL     1       5.625   2.080  20.460  0.00  0.00    +0.000 HD
ENDBRANCH   4  21
BRANCH   5  24
ATOM     24  O   UNL     1       6.362   4.338  18.522  0.00  0.00    +0.000 OA
BRANCH  24  25
ATOM     25  C   UNL     1       6.688   5.252  17.461  0.00  0.00    +0.000 C 
BRANCH  25  26
ATOM     26  C   UNL     1       6.290   4.799  16.057  0.00  0.00    +0.000 C 
ATOM     27  F   UNL     1       5.176   5.398  15.588  0.00  0.00    +0.000 F 
ATOM     28  F   UNL     1       7.287   5.082  15.180  0.00  0.00    +0.000 F 
ATOM     29  F   UNL     1       6.097   3.459  15.997  0.00  0.00    +0.000 F 
ENDBRANCH  25  26
ENDBRANCH  24  25
ENDBRANCH   5  24
TORSDOF 6
ENDMDL
MODEL 3
REMARK VINA RESULT:      -8.1      1.779      2.028
REMARK  Name = 
REMARK  7 active torsions:
REMARK  status: ('A' for Active; 'I' for Inactive)
REMARK    1  A    between atoms: C_1  and  C_2
REMARK    2  A    between atoms: N_4  and  C_5
REMARK    3  A    between atoms: C_9  and  C_10
REMARK    4  A    between atoms: C_13  and  N_14
REMARK    5  A    between atoms: C_15  and  O_16
REMARK    6  A    between atoms: O_16  and  C_17
REMARK    7  A    between atoms: C_17  and  C_18
REMARK                            x       y       z     vdW  Elec       q    Type
REMARK                         _______ _______ _______ _____ _____    ______ ____
ROOT
ATOM      1  C   UNL     1       3.237   5.779  19.236  0.00  0.00    +0.000 A 
ATOM      2  C   UNL     1       2.593   4.720  19.873  0.00  0.00    +0.000 A 
ATOM      3  N   UNL     1       3.153   3.498  20.054  0.00  0.00    +0.000 NA
ATOM      4  C   UNL     1       4.402   3.353  19.578  0.00  0.00    +0.000 A 
ATOM      5  C   UNL     1       5.048   4.414  18.912  0.00  0.00    +0.000 A 
ATOM      6  N   UNL     1       4.484   5.631  18.730  0.00  0.00    +0.000 NA
ENDROOT
BRANCH   1  11
ATOM      7  C   UNL     1       0.004  10.648  20.178  0.00  0.00    +0.000 A 
ATOM      8  C   UNL     1       0.435   9.540  20.875  0.00  0.00    +0.000 A 
ATOM      9  N   UNL     1       1.225   8.842  19.989  0.00  0.00    +0.000 N 
ATOM     10  C   UNL     1       1.870   7.614  20.131  0.00  0.00    +0.000 A 
ATOM     11  C   UNL     1       2.603   7.111  19.108  0.00  0.00    +0.000 A 
ATOM     12  C   UNL     1       2.720   7.945  17.899  0.00  0.00    +0.000 A 
ATOM     13  C   UNL     1       2.079   9.121  17.768  0.00  0.00    +0.000 A 
ATOM     14  C   UNL     1       1.274   9.600  18.830  0.00  0.00    +0.000 A 
ATOM     15  N   UNL     1       0.536  10.677  18.926  0.00  0.00    +0.000 NA
BRANCH   7  19
ATOM     16  C   UNL     1      -2.609  13.238  20.685  0.00  0.00    +0.000 C 
ATOM     17  C   UNL     1      -1.975  12.045  20.019  0.00  0.00    +0.000 C 
ATOM     18  O   UNL     1      -2.487  11.561  19.014  0.00  0.00    +0.000 OA
ATOM     19  N   UNL     1      -0.825  11.630  20.666  0.00  0.00    +0.000 N 
ATOM     20  H   UNL     1      -0.587  12.028  21.562  0.00  0.00    +0.000 HD
ENDBRANCH   7  19
ENDBRANCH   1  11
BRANCH   4  21
ATOM     21  N   UNL     1       5.004   2.120  19.832  0.00  0.00    +0.000 N 
ATOM     22  H   UNL     1       4.538   1.423  19.259  0.00  0.00    +0.000 HD
ATOM     23  H   UNL     1       6.006   2.149  19.697  0.00  0.00    +0.000 HD
ENDBRANCH   4  21
BRANCH   5  24
ATOM     24  O   UNL     1       6.321   4.207  18.415  0.00  0.00    +0.000 OA
BRANCH  24  25
ATOM     25  C   UNL     1       6.637   5.089  17.325  0.00  0.00    +0.000 C 
BRANCH  25  26
ATOM     26  C   UNL     1       6.342   4.541  15.929  0.00  0.00    +0.000 C 
ATOM     27  F   UNL     1       5.843   3.288  15.932  0.00  0.00    +0.000 F 
ATOM     28  F   UNL     1       5.425   5.328  15.308  0.00  0.00    +0.000 F 
ATOM     29  F   UNL     1       7.445   4.547  15.143  0.00  0.00    +0.000 F 
ENDBRANCH  25  26
ENDBRANCH  24  25
ENDBRANCH   5  24
TORSDOF 6
ENDMDL
MODEL 4
REMARK VINA RESULT:      -8.0      1.964      2.198
REMARK  Name = 
REMARK  7 active torsions:
REMARK  status: ('A' for Active; 'I' for Inactive)
REMARK    1  A    between atoms: C_1  and  C_2
REMARK    2  A    between atoms: N_4  and  C_5
REMARK    3  A    between atoms: C_9  and  C_10
REMARK    4  A    between atoms: C_13  and  N_14
REMARK    5  A    between atoms: C_15  and  O_16
REMARK    6  A    between atoms: O_16  and  C_17
REMARK    7  A    between atoms: C_17  and  C_18
REMARK                            x       y       z     vdW  Elec       q    Type
REMARK                         _______ _______ _______ _____ _____    ______ ____
ROOT
ATOM      1  C   UNL     1       3.087   6.084  19.134  0.00  0.00    +0.000 A 
ATOM      2  C   UNL     1       2.687   5.125  20.064  0.00  0.00    +0.000 A 
ATOM      3  N   UNL     1       3.279   3.913  20.197  0.00  0.00    +0.000 NA
ATOM      4  C   UNL     1       4.307   3.671  19.364  0.00  0.00    +0.000 A 
ATOM      5  C   UNL     1       4.700   4.627  18.407  0.00  0.00    +0.000 A 
ATOM      6  N   UNL     1       4.104   5.836  18.275  0.00  0.00    +0.000 NA
ENDROOT
BRANCH   1  11
ATOM      7  C   UNL     1      -0.167  10.892  20.291  0.00  0.00    +0.000 A 
ATOM      8  C   UNL     1       0.281   9.762  20.943  0.00  0.00    +0.000 A 
ATOM      9  N   UNL     1       1.064   9.103  20.022  0.00  0.00    +0.000 N 
ATOM     10  C   UNL     1       1.719   7.875  20.112  0.00  0.00    +0.000 A 
ATOM     11  C   UNL     1       2.442   7.414  19.062  0.00  0.00    +0.000 A 
ATOM     12  C   UNL     1       2.538   8.292  17.882  0.00  0.00    +0.000 A 
ATOM     13  C   UNL     1       1.887   9.467  17.802  0.00  0.00    +0.000 A 
ATOM     14  C   UNL     1       1.093   9.902  18.890  0.00  0.00    +0.000 A 
ATOM     15  N   UNL     1       0.349  10.969  19.035  0.00  0.00    +0.000 NA
BRANCH   7  19
ATOM     16  C   UNL     1      -2.793  13.439  20.926  0.00  0.00    +0.000 C 
ATOM     17  C   UNL     1      -2.160  12.274  20.210  0.00  0.00    +0.000 C 
ATOM     18  O   UNL     1      -2.685  11.818  19.199  0.00  0.00    +0.000 OA
ATOM     19  N   UNL     1      -0.996  11.849  20.824  0.00  0.00    +0.000 N 
ATOM     20  H   UNL     1      -0.747  12.221  21.729  0.00  0.00    +0.000 HD
ENDBRANCH   7  19
ENDBRANCH   1  11
BRANCH   4  21
ATOM     21  N   UNL     1       4.961   2.454  19.553  0.00  0.00    +0.000 N 
ATOM     22  H   UNL     1       4.264   1.762  19.813  0.00  0.00    +0.000 HD
ATOM     23  H   UNL     1       5.513   2.187  18.748  0.00  0.00    +0.000 HD
ENDBRANCH   4  21
BRANCH   5  24
ATOM     24  O   UNL     1       5.743   4.321  17.554  0.00  0.00    +0.000 OA
BRANCH  24  25
ATOM     25  C   UNL     1       5.291   3.923  16.249  0.00  0.00    +0.000 C 
BRANCH  25  26
ATOM     26  C   UNL     1       5.664   4.868  15.107  0.00  0.00    +0.000 C 
ATOM     27  F   UNL     1       5.129   6.101  15.225  0.00  0.00    +0.000 F 
ATOM     28  F   UNL     1       7.012   5.028  15.060  0.00  0.00    +0.000 F 
ATOM     29  F   UNL     1       5.295   4.370  13.902  0.00  0.00    +0.000 F 
ENDBRANCH  25  26
ENDBRANCH  24  25
ENDBRANCH   5  24
TORSDOF 6
ENDMDL
MODEL 5
REMARK VINA RESULT:      -8.0      1.439      1.930
REMARK  Name = 
REMARK  7 active torsions:
REMARK  status: ('A' for Active; 'I' for Inactive)
REMARK    1  A    between atoms: C_1  and  C_2
REMARK    2  A    between atoms: N_4  and  C_5
REMARK    3  A    between atoms: C_9  and  C_10
REMARK    4  A    between atoms: C_13  and  N_14
REMARK    5  A    between atoms: C_15  and  O_16
REMARK    6  A    between atoms: O_16  and  C_17
REMARK    7  A    between atoms: C_17  and  C_18
REMARK                            x       y       z     vdW  Elec       q    Type
REMARK                         _______ _______ _______ _____ _____    ______ ____
ROOT
ATOM      1  C   UNL     1       2.920   5.485  19.752  0.00  0.00    +0.000 A 
ATOM      2  C   UNL     1       2.325   4.266  20.075  0.00  0.00    +0.000 A 
ATOM      3  N   UNL     1       2.968   3.074  20.006  0.00  0.00    +0.000 NA
ATOM      4  C   UNL     1       4.250   3.126  19.602  0.00  0.00    +0.000 A 
ATOM      5  C   UNL     1       4.848   4.352  19.253  0.00  0.00    +0.000 A 
ATOM      6  N   UNL     1       4.202   5.540  19.320  0.00  0.00    +0.000 NA
ENDROOT
BRANCH   1  11
ATOM      7  C   UNL     1       0.899  10.991  18.943  0.00  0.00    +0.000 A 
ATOM      8  C   UNL     1       1.608  10.035  18.248  0.00  0.00    +0.000 A 
ATOM      9  N   UNL     1       1.649   8.940  19.081  0.00  0.00    +0.000 N 
ATOM     10  C   UNL     1       2.288   7.710  18.923  0.00  0.00    +0.000 A 
ATOM     11  C   UNL     1       2.192   6.767  19.892  0.00  0.00    +0.000 A 
ATOM     12  C   UNL     1       1.350   7.091  21.057  0.00  0.00    +0.000 A 
ATOM     13  C   UNL     1       0.753   8.288  21.206  0.00  0.00    +0.000 A 
ATOM     14  C   UNL     1       0.912   9.277  20.206  0.00  0.00    +0.000 A 
ATOM     15  N   UNL     1       0.469  10.507  20.140  0.00  0.00    +0.000 NA
BRANCH   7  19
ATOM     16  C   UNL     1       0.621  14.662  18.459  0.00  0.00    +0.000 C 
ATOM     17  C   UNL     1       1.225  13.395  19.007  0.00  0.00    +0.000 C 
ATOM     18  O   UNL     1       2.148  13.455  19.813  0.00  0.00    +0.000 OA
ATOM     19  N   UNL     1       0.618  12.260  18.500  0.00  0.00    +0.000 N 
ATOM     20  H   UNL     1      -0.039  12.346  17.739  0.00  0.00    +0.000 HD
ENDBRANCH   7  19
ENDBRANCH   1  11
BRANCH   4  21
ATOM     21  N   UNL     1       4.931   1.908  19.605  0.00  0.00    +0.000 N 
ATOM     22  H   UNL     1       4.899   1.535  20.550  0.00  0.00    +0.000 HD
ATOM     23  H   UNL     1       4.572   1.269  18.908  0.00  0.00    +0.000 HD
ENDBRANCH   4  21
BRANCH   5  24
ATOM     24  O   UNL     1       6.159   4.350  18.817  0.00  0.00    +0.000 OA
BRANCH  24  25
ATOM     25  C   UNL     1       6.881   5.522  19.231  0.00  0.00    +0.000 C 
BRANCH  25  26
ATOM     26  C   UNL     1       7.378   6.423  18.101  0.00  0.00    +0.000 C 
ATOM     27  F   UNL     1       8.427   7.199  18.447  0.00  0.00    +0.000 F 
ATOM     28  F   UNL     1       7.780   5.665  17.048  0.00  0.00    +0.000 F 
ATOM     29  F   UNL     1       6.397   7.234  17.637  0.00  0.00    +0.000 F 
ENDBRANCH  25  26
ENDBRANCH  24  25
ENDBRANCH   5  24
TORSDOF 6
ENDMDL
MODEL 6
REMARK VINA RESULT:      -8.0      1.135      1.135
REMARK  Name = 
REMARK  7 active torsions:
REMARK  status: ('A' for Active; 'I' for Inactive)
REMARK    1  A    between atoms: C_1  and  C_2
REMARK    2  A    between atoms: N_4  and  C_5
REMARK    3  A    between atoms: C_9  and  C_10
REMARK    4  A    between atoms: C_13  and  N_14
REMARK    5  A    between atoms: C_15  and  O_16
REMARK    6  A    between atoms: O_16  and  C_17
REMARK    7  A    between atoms: C_17  and  C_18
REMARK                            x       y       z     vdW  Elec       q    Type
REMARK                         _______ _______ _______ _____ _____    ______ ____
ROOT
ATOM      1  C   UNL     1       3.055   5.863  19.287  0.00  0.00    +0.000 A 
ATOM      2  C   UNL     1       2.328   4.733  19.661  0.00  0.00    +0.000 A 
ATOM      3  N   UNL     1       2.878   3.504  19.821  0.00  0.00    +0.000 NA
ATOM      4  C   UNL     1       4.202   3.424  19.597  0.00  0.00    +0.000 A 
ATOM      5  C   UNL     1       4.936   4.557  19.196  0.00  0.00    +0.000 A 
ATOM      6  N   UNL     1       4.383   5.782  19.034  0.00  0.00    +0.000 NA
ENDROOT
BRANCH   1  11
ATOM      7  C   UNL     1      -0.114  10.753  20.335  0.00  0.00    +0.000 A 
ATOM      8  C   UNL     1       0.349   9.650  21.022  0.00  0.00    +0.000 A 
ATOM      9  N   UNL     1       1.091   8.940  20.106  0.00  0.00    +0.000 N 
ATOM     10  C   UNL     1       1.739   7.711  20.229  0.00  0.00    +0.000 A 
ATOM     11  C   UNL     1       2.419   7.195  19.176  0.00  0.00    +0.000 A 
ATOM     12  C   UNL     1       2.477   8.015  17.953  0.00  0.00    +0.000 A 
ATOM     13  C   UNL     1       1.834   9.192  17.841  0.00  0.00    +0.000 A 
ATOM     14  C   UNL     1       1.085   9.685  18.937  0.00  0.00    +0.000 A 
ATOM     15  N   UNL     1       0.355  10.765  19.058  0.00  0.00    +0.000 NA
BRANCH   7  19
ATOM     16  C   UNL     1      -2.655  13.396  20.924  0.00  0.00    +0.000 C 
ATOM     17  C   UNL     1      -2.055  12.204  20.223  0.00  0.00    +0.000 C 
ATOM     18  O   UNL     1      -2.584  11.760  19.208  0.00  0.00    +0.000 OA
ATOM     19  N   UNL     1      -0.914  11.742  20.853  0.00  0.00    +0.000 N 
ATOM     20  H   UNL     1      -0.662  12.110  21.758  0.00  0.00    +0.000 HD
ENDBRANCH   7  19
ENDBRANCH   1  11
BRANCH   4  21
ATOM     21  N   UNL     1       4.778   2.175  19.835  0.00  0.00    +0.000 N 
ATOM     22  H   UNL     1       4.607   1.594  19.019  0.00  0.00    +0.000 HD
ATOM     23  H   UNL     1       5.756   2.247  20.081  0.00  0.00    +0.000 HD
ENDBRANCH   4  21
BRANCH   5  24
ATOM     24  O   UNL     1       6.288   4.418  18.950  0.00  0.00    +0.000 OA
BRANCH  24  25
ATOM     25  C   UNL     1       7.046   5.566  19.367  0.00  0.00    +0.000 C 
BRANCH  25  26
ATOM     26  C   UNL     1       7.552   6.466  18.239  0.00  0.00    +0.000 C 
ATOM     27  F   UNL     1       8.609   7.229  18.587  0.00  0.00    +0.000 F 
ATOM     28  F   UNL     1       7.945   5.707  17.183  0.00  0.00    +0.000 F 
ATOM     29  F   UNL     1       6.580   7.289  17.779  0.00  0.00    +0.000 F 
ENDBRANCH  25  26
ENDBRANCH  24  25
ENDBRANCH   5  24
TORSDOF 6
ENDMDL
MODEL 7
REMARK VINA RESULT:      -8.0      1.707      2.030
REMARK  Name = 
REMARK  7 active torsions:
REMARK  status: ('A' for Active; 'I' for Inactive)
REMARK    1  A    between atoms: C_1  and  C_2
REMARK    2  A    between atoms: N_4  and  C_5
REMARK    3  A    between atoms: C_9  and  C_10
REMARK    4  A    between atoms: C_13  and  N_14
REMARK    5  A    between atoms: C_15  and  O_16
REMARK    6  A    between atoms: O_16  and  C_17
REMARK    7  A    between atoms: C_17  and  C_18
REMARK                            x       y       z     vdW  Elec       q    Type
REMARK                         _______ _______ _______ _____ _____    ______ ____
ROOT
ATOM      1  C   UNL     1       2.975   5.777  19.067  0.00  0.00    +0.000 A 
ATOM      2  C   UNL     1       2.926   4.972  20.205  0.00  0.00    +0.000 A 
ATOM      3  N   UNL     1       3.481   3.737  20.277  0.00  0.00    +0.000 NA
ATOM      4  C   UNL     1       4.105   3.312  19.164  0.00  0.00    +0.000 A 
ATOM      5  C   UNL     1       4.137   4.112  18.005  0.00  0.00    +0.000 A 
ATOM      6  N   UNL     1       3.578   5.343  17.935  0.00  0.00    +0.000 NA
ENDROOT
BRANCH   1  11
ATOM      7  C   UNL     1       0.135  10.761  20.531  0.00  0.00    +0.000 A 
ATOM      8  C   UNL     1       0.592   9.612  21.140  0.00  0.00    +0.000 A 
ATOM      9  N   UNL     1       1.230   8.906  20.145  0.00  0.00    +0.000 N 
ATOM     10  C   UNL     1       1.824   7.644  20.173  0.00  0.00    +0.000 A 
ATOM     11  C   UNL     1       2.398   7.140  19.053  0.00  0.00    +0.000 A 
ATOM     12  C   UNL     1       2.406   8.005  17.861  0.00  0.00    +0.000 A 
ATOM     13  C   UNL     1       1.814   9.214  17.841  0.00  0.00    +0.000 A 
ATOM     14  C   UNL     1       1.173   9.697  19.008  0.00  0.00    +0.000 A 
ATOM     15  N   UNL     1       0.508  10.803  19.223  0.00  0.00    +0.000 NA
BRANCH   7  19
ATOM     16  C   UNL     1      -0.972  13.756  22.426  0.00  0.00    +0.000 C 
ATOM     17  C   UNL     1       0.012  12.897  21.675  0.00  0.00    +0.000 C 
ATOM     18  O   UNL     1       1.188  13.239  21.598  0.00  0.00    +0.000 OA
ATOM     19  N   UNL     1      -0.576  11.764  21.143  0.00  0.00    +0.000 N 
ATOM     20  H   UNL     1      -1.581  11.671  21.162  0.00  0.00    +0.000 HD
ENDBRANCH   7  19
ENDBRANCH   1  11
BRANCH   4  21
ATOM     21  N   UNL     1       4.739   2.074  19.266  0.00  0.00    +0.000 N 
ATOM     22  H   UNL     1       5.105   1.988  20.210  0.00  0.00    +0.000 HD
ATOM     23  H   UNL     1       4.132   1.310  18.998  0.00  0.00    +0.000 HD
ENDBRANCH   4  21
BRANCH   5  24
ATOM     24  O   UNL     1       4.765   3.619  16.877  0.00  0.00    +0.000 OA
BRANCH  24  25
ATOM     25  C   UNL     1       5.888   4.422  16.476  0.00  0.00    +0.000 C 
BRANCH  25  26
ATOM     26  C   UNL     1       5.821   4.986  15.057  0.00  0.00    +0.000 C 
ATOM     27  F   UNL     1       5.130   4.209  14.197  0.00  0.00    +0.000 F 
ATOM     28  F   UNL     1       5.211   6.199  15.070  0.00  0.00    +0.000 F 
ATOM     29  F   UNL     1       7.056   5.184  14.537  0.00  0.00    +0.000 F 
ENDBRANCH  25  26
ENDBRANCH  24  25
ENDBRANCH   5  24
TORSDOF 6
ENDMDL
MODEL 8
REMARK VINA RESULT:      -8.0      0.982      1.252
REMARK  Name = 
REMARK  7 active torsions:
REMARK  status: ('A' for Active; 'I' for Inactive)
REMARK    1  A    between atoms: C_1  and  C_2
REMARK    2  A    between atoms: N_4  and  C_5
REMARK    3  A    between atoms: C_9  and  C_10
REMARK    4  A    between atoms: C_13  and  N_14
REMARK    5  A    between atoms: C_15  and  O_16
REMARK    6  A    between atoms: O_16  and  C_17
REMARK    7  A    between atoms: C_17  and  C_18
REMARK                            x       y       z     vdW  Elec       q    Type
REMARK                         _______ _______ _______ _____ _____    ______ ____
ROOT
ATOM      1  C   UNL     1       2.804   5.724  19.094  0.00  0.00    +0.000 A 
ATOM      2  C   UNL     1       1.961   4.620  18.962  0.00  0.00    +0.000 A 
ATOM      3  N   UNL     1       2.396   3.336  18.975  0.00  0.00    +0.000 NA
ATOM      4  C   UNL     1       3.722   3.171  19.130  0.00  0.00    +0.000 A 
ATOM      5  C   UNL     1       4.580   4.282  19.241  0.00  0.00    +0.000 A 
ATOM      6  N   UNL     1       4.142   5.564  19.224  0.00  0.00    +0.000 NA
ENDROOT
BRANCH   1  11
ATOM      7  C   UNL     1       0.318  10.819  20.798  0.00  0.00    +0.000 A 
ATOM      8  C   UNL     1       0.803   9.661  21.368  0.00  0.00    +0.000 A 
ATOM      9  N   UNL     1       1.299   8.923  20.317  0.00  0.00    +0.000 N 
ATOM     10  C   UNL     1       1.850   7.642  20.296  0.00  0.00    +0.000 A 
ATOM     11  C   UNL     1       2.276   7.106  19.126  0.00  0.00    +0.000 A 
ATOM     12  C   UNL     1       2.178   7.958  17.928  0.00  0.00    +0.000 A 
ATOM     13  C   UNL     1       1.629   9.186  17.958  0.00  0.00    +0.000 A 
ATOM     14  C   UNL     1       1.141   9.704  19.182  0.00  0.00    +0.000 A 
ATOM     15  N   UNL     1       0.542  10.835  19.456  0.00  0.00    +0.000 NA
BRANCH   7  19
ATOM     16  C   UNL     1      -1.636  12.952  23.127  0.00  0.00    +0.000 C 
ATOM     17  C   UNL     1      -0.928  11.697  22.687  0.00  0.00    +0.000 C 
ATOM     18  O   UNL     1      -0.973  10.691  23.388  0.00  0.00    +0.000 OA
ATOM     19  N   UNL     1      -0.284  11.853  21.472  0.00  0.00    +0.000 N 
ATOM     20  H   UNL     1      -0.209  12.773  21.064  0.00  0.00    +0.000 HD
ENDBRANCH   7  19
ENDBRANCH   1  11
BRANCH   4  21
ATOM     21  N   UNL     1       4.157   1.848  19.218  0.00  0.00    +0.000 N 
ATOM     22  H   UNL     1       3.781   1.453  20.076  0.00  0.00    +0.000 HD
ATOM     23  H   UNL     1       3.923   1.313  18.392  0.00  0.00    +0.000 HD
ENDBRANCH   4  21
BRANCH   5  24
ATOM     24  O   UNL     1       5.938   4.062  19.370  0.00  0.00    +0.000 OA
BRANCH  24  25
ATOM     25  C   UNL     1       6.697   5.282  19.373  0.00  0.00    +0.000 C 
BRANCH  25  26
ATOM     26  C   UNL     1       7.450   5.593  18.080  0.00  0.00    +0.000 C 
ATOM     27  F   UNL     1       6.644   5.904  17.044  0.00  0.00    +0.000 F 
ATOM     28  F   UNL     1       8.275   6.655  18.269  0.00  0.00    +0.000 F 
ATOM     29  F   UNL     1       8.238   4.559  17.697  0.00  0.00    +0.000 F 
ENDBRANCH  25  26
ENDBRANCH  24  25
ENDBRANCH   5  24
TORSDOF 6
ENDMDL
MODEL 9
REMARK VINA RESULT:      -8.0      2.941      3.659
REMARK  Name = 
REMARK  7 active torsions:
REMARK  status: ('A' for Active; 'I' for Inactive)
REMARK    1  A    between atoms: C_1  and  C_2
REMARK    2  A    between atoms: N_4  and  C_5
REMARK    3  A    between atoms: C_9  and  C_10
REMARK    4  A    between atoms: C_13  and  N_14
REMARK    5  A    between atoms: C_15  and  O_16
REMARK    6  A    between atoms: O_16  and  C_17
REMARK    7  A    between atoms: C_17  and  C_18
REMARK                            x       y       z     vdW  Elec       q    Type
REMARK                         _______ _______ _______ _____ _____    ______ ____
ROOT
ATOM      1  C   UNL     1       2.926   6.391  18.471  0.00  0.00    +0.000 A 
ATOM      2  C   UNL     1       4.141   6.320  17.792  0.00  0.00    +0.000 A 
ATOM      3  N   UNL     1       4.756   5.155  17.470  0.00  0.00    +0.000 NA
ATOM      4  C   UNL     1       4.115   4.034  17.847  0.00  0.00    +0.000 A 
ATOM      5  C   UNL     1       2.899   4.101  18.554  0.00  0.00    +0.000 A 
ATOM      6  N   UNL     1       2.290   5.266  18.876  0.00  0.00    +0.000 NA
ENDROOT
BRANCH   1  11
ATOM      7  C   UNL     1      -0.135  10.774  21.016  0.00  0.00    +0.000 A 
ATOM      8  C   UNL     1       0.422   9.561  21.362  0.00  0.00    +0.000 A 
ATOM      9  N   UNL     1       1.050   9.114  20.222  0.00  0.00    +0.000 N 
ATOM     10  C   UNL     1       1.721   7.916  19.973  0.00  0.00    +0.000 A 
ATOM     11  C   UNL     1       2.268   7.687  18.755  0.00  0.00    +0.000 A 
ATOM     12  C   UNL     1       2.164   8.770  17.762  0.00  0.00    +0.000 A 
ATOM     13  C   UNL     1       1.500   9.914  18.009  0.00  0.00    +0.000 A 
ATOM     14  C   UNL     1       0.890  10.110  19.272  0.00  0.00    +0.000 A 
ATOM     15  N   UNL     1       0.170  11.102  19.731  0.00  0.00    +0.000 NA
BRANCH   7  19
ATOM     16  C   UNL     1      -1.371  13.431  23.296  0.00  0.00    +0.000 C 
ATOM     17  C   UNL     1      -0.444  12.826  22.273  0.00  0.00    +0.000 C 
ATOM     18  O   UNL     1       0.561  13.436  21.921  0.00  0.00    +0.000 OA
ATOM     19  N   UNL     1      -0.873  11.583  21.844  0.00  0.00    +0.000 N 
ATOM     20  H   UNL     1      -1.790  11.254  22.110  0.00  0.00    +0.000 HD
ENDBRANCH   7  19
ENDBRANCH   1  11
BRANCH   4  21
ATOM     21  N   UNL     1       4.712   2.837  17.449  0.00  0.00    +0.000 N 
ATOM     22  H   UNL     1       4.921   2.300  18.286  0.00  0.00    +0.000 HD
ATOM     23  H   UNL     1       4.147   2.334  16.777  0.00  0.00    +0.000 HD
ENDBRANCH   4  21
BRANCH   5  24
ATOM     24  O   UNL     1       2.293   2.922  18.944  0.00  0.00    +0.000 OA
BRANCH  24  25
ATOM     25  C   UNL     1       1.367   3.109  20.028  0.00  0.00    +0.000 C 
BRANCH  25  26
ATOM     26  C   UNL     1       1.970   3.032  21.430  0.00  0.00    +0.000 C 
ATOM     27  F   UNL     1       2.300   4.235  21.946  0.00  0.00    +0.000 F 
ATOM     28  F   UNL     1       1.080   2.467  22.286  0.00  0.00    +0.000 F 
ATOM     29  F   UNL     1       3.077   2.251  21.459  0.00  0.00    +0.000 F 
ENDBRANCH  25  26
ENDBRANCH  24  25
ENDBRANCH   5  24
TORSDOF 6
ENDMDL
