MODEL 1
REMARK VINA RESULT:      -8.4      0.000      0.000
REMARK  Name = 
REMARK  6 active torsions:
REMARK  status: ('A' for Active; 'I' for Inactive)
REMARK    1  A    between atoms: C_1  and  O_2
REMARK    2  A    between atoms: O_2  and  C_3
REMARK    3  A    between atoms: C_6  and  C_7
REMARK    4  A    between atoms: C_7  and  N_8
REMARK    5  A    between atoms: C_9  and  C_11
REMARK    6  A    between atoms: C_21  and  C_22
REMARK                            x       y       z     vdW  Elec       q    Type
REMARK                         _______ _______ _______ _____ _____    ______ ____
ROOT
ATOM      1  N   UNL     1       2.294   6.985  20.086  0.00  0.00    +0.000 N 
ATOM      2  C   UNL     1       2.206   5.630  19.861  0.00  0.00    +0.000 C 
ATOM      3  O   UNL     1       1.442   4.886  20.455  0.00  0.00    +0.000 OA
ATOM      4  H   UNL     1       2.721   7.560  19.369  0.00  0.00    +0.000 HD
ENDROOT
BRANCH   2   5
ATOM      5  C   UNL     1       3.122   5.086  18.809  0.00  0.00    +0.000 A 
ATOM      6  C   UNL     1       2.774   3.934  18.062  0.00  0.00    +0.000 A 
ATOM      7  C   UNL     1       3.568   3.496  16.997  0.00  0.00    +0.000 A 
ATOM      8  C   UNL     1       4.696   4.231  16.690  0.00  0.00    +0.000 A 
ATOM      9  C   UNL     1       5.054   5.343  17.450  0.00  0.00    +0.000 A 
ATOM     10  C   UNL     1       4.296   5.794  18.510  0.00  0.00    +0.000 A 
ATOM     11  N   UNL     1       6.212   5.903  16.933  0.00  0.00    +0.000 N 
ATOM     12  C   UNL     1       6.628   5.236  15.786  0.00  0.00    +0.000 C 
ATOM     13  O   UNL     1       7.580   5.540  15.087  0.00  0.00    +0.000 OA
ATOM     14  C   UNL     1       5.661   4.069  15.554  0.00  0.00    +0.000 C 
ATOM     15  H   UNL     1       6.684   6.721  17.288  0.00  0.00    +0.000 HD
ENDBRANCH   2   5
BRANCH   1  16
ATOM     16  C   UNL     1       1.455   7.680  21.033  0.00  0.00    +0.000 C 
BRANCH  16  20
ATOM     17  C   UNL     1       0.293  11.557  19.438  0.00  0.00    +0.000 A 
ATOM     18  C   UNL     1       0.951  10.613  18.660  0.00  0.00    +0.000 A 
ATOM     19  C   UNL     1       1.282   9.363  19.193  0.00  0.00    +0.000 A 
ATOM     20  C   UNL     1       0.948   9.013  20.517  0.00  0.00    +0.000 A 
ATOM     21  C   UNL     1       0.220   9.949  21.290  0.00  0.00    +0.000 A 
ATOM     22  C   UNL     1      -0.090  11.216  20.732  0.00  0.00    +0.000 A 
BRANCH  21  23
ATOM     23  C   UNL     1      -0.279   9.717  22.697  0.00  0.00    +0.000 C 
ATOM     24  F   UNL     1      -1.031  10.718  23.234  0.00  0.00    +0.000 F 
ATOM     25  F   UNL     1      -1.049   8.596  22.793  0.00  0.00    +0.000 F 
ATOM     26  F   UNL     1       0.747   9.533  23.578  0.00  0.00    +0.000 F 
ENDBRANCH  21  23
BRANCH  17  28
ATOM     27  C   UNL     1       1.142  13.599  18.608  0.00  0.00    +0.000 C 
ATOM     28  O   UNL     1       0.020  12.750  18.830  0.00  0.00    +0.000 OA
ENDBRANCH  17  28
ENDBRANCH  16  20
ENDBRANCH   1  16
TORSDOF 5
ENDMDL
MODEL 2
REMARK VINA RESULT:      -8.4      0.692      1.089
REMARK  Name = 
REMARK  6 active torsions:
REMARK  status: ('A' for Active; 'I' for Inactive)
REMARK    1  A    between atoms: C_1  and  O_2
REMARK    2  A    between atoms: O_2  and  C_3
REMARK    3  A    between atoms: C_6  and  C_7
REMARK    4  A    between atoms: C_7  and  N_8
REMARK    5  A    between atoms: C_9  and  C_11
REMARK    6  A    between atoms: C_21  and  C_22
REMARK                            x       y       z     vdW  Elec       q    Type
REMARK                         _______ _______ _______ _____ _____    ______ ____
ROOT
ATOM      1  N   UNL     1       2.441   7.130  20.118  0.00  0.00    +0.000 N 
ATOM      2  C   UNL     1       2.318   5.772  19.926  0.00  0.00    +0.000 C 
ATOM      3  O   UNL     1       1.573   5.054  20.573  0.00  0.00    +0.000 OA
ATOM      4  H   UNL     1       2.840   7.683  19.369  0.00  0.00    +0.000 HD
ENDROOT
BRANCH   2   5
ATOM      5  C   UNL     1       3.170   5.192  18.840  0.00  0.00    +0.000 A 
ATOM      6  C   UNL     1       2.720   4.093  18.067  0.00  0.00    +0.000 A 
ATOM      7  C   UNL     1       3.458   3.628  16.974  0.00  0.00    +0.000 A 
ATOM      8  C   UNL     1       4.634   4.283  16.665  0.00  0.00    +0.000 A 
ATOM      9  C   UNL     1       5.091   5.339  17.450  0.00  0.00    +0.000 A 
ATOM     10  C   UNL     1       4.391   5.815  18.538  0.00  0.00    +0.000 A 
ATOM     11  N   UNL     1       6.281   5.824  16.926  0.00  0.00    +0.000 N 
ATOM     12  C   UNL     1       6.622   5.162  15.752  0.00  0.00    +0.000 C 
ATOM     13  O   UNL     1       7.583   5.412  15.043  0.00  0.00    +0.000 OA
ATOM     14  C   UNL     1       5.563   4.081  15.506  0.00  0.00    +0.000 C 
ATOM     15  H   UNL     1       6.821   6.591  17.295  0.00  0.00    +0.000 HD
ENDBRANCH   2   5
BRANCH   1  16
ATOM     16  C   UNL     1       1.663   7.858  21.093  0.00  0.00    +0.000 C 
BRANCH  16  20
ATOM     17  C   UNL     1      -0.420  11.182  19.212  0.00  0.00    +0.000 A 
ATOM     18  C   UNL     1       0.405  10.332  18.488  0.00  0.00    +0.000 A 
ATOM     19  C   UNL     1       1.035   9.252  19.115  0.00  0.00    +0.000 A 
ATOM     20  C   UNL     1       0.844   8.981  20.485  0.00  0.00    +0.000 A 
ATOM     21  C   UNL     1      -0.048   9.806  21.210  0.00  0.00    +0.000 A 
ATOM     22  C   UNL     1      -0.662  10.904  20.554  0.00  0.00    +0.000 A 
BRANCH  21  23
ATOM     23  C   UNL     1      -0.424   9.620  22.661  0.00  0.00    +0.000 C 
ATOM     24  F   UNL     1       0.611   9.592  23.546  0.00  0.00    +0.000 F 
ATOM     25  F   UNL     1      -1.255  10.603  23.109  0.00  0.00    +0.000 F 
ATOM     26  F   UNL     1      -1.097   8.450  22.867  0.00  0.00    +0.000 F 
ENDBRANCH  21  23
BRANCH  17  28
ATOM     27  C   UNL     1      -1.994  11.841  17.580  0.00  0.00    +0.000 C 
ATOM     28  O   UNL     1      -0.983  12.212  18.513  0.00  0.00    +0.000 OA
ENDBRANCH  17  28
ENDBRANCH  16  20
ENDBRANCH   1  16
TORSDOF 5
ENDMDL
MODEL 3
REMARK VINA RESULT:      -8.1      1.422      1.745
REMARK  Name = 
REMARK  6 active torsions:
REMARK  status: ('A' for Active; 'I' for Inactive)
REMARK    1  A    between atoms: C_1  and  O_2
REMARK    2  A    between atoms: O_2  and  C_3
REMARK    3  A    between atoms: C_6  and  C_7
REMARK    4  A    between atoms: C_7  and  N_8
REMARK    5  A    between atoms: C_9  and  C_11
REMARK    6  A    between atoms: C_21  and  C_22
REMARK                            x       y       z     vdW  Elec       q    Type
REMARK                         _______ _______ _______ _____ _____    ______ ____
ROOT
ATOM      1  N   UNL     1       2.092   7.700  20.203  0.00  0.00    +0.000 N 
ATOM      2  C   UNL     1       2.318   6.377  19.894  0.00  0.00    +0.000 C 
ATOM      3  O   UNL     1       1.659   5.449  20.334  0.00  0.00    +0.000 OA
ATOM      4  H   UNL     1       2.476   8.406  19.585  0.00  0.00    +0.000 HD
ENDROOT
BRANCH   2   5
ATOM      5  C   UNL     1       3.451   6.117  18.951  0.00  0.00    +0.000 A 
ATOM      6  C   UNL     1       3.583   6.852  17.747  0.00  0.00    +0.000 A 
ATOM      7  C   UNL     1       4.705   6.698  16.926  0.00  0.00    +0.000 A 
ATOM      8  C   UNL     1       5.685   5.814  17.333  0.00  0.00    +0.000 A 
ATOM      9  C   UNL     1       5.534   5.067  18.499  0.00  0.00    +0.000 A 
ATOM     10  C   UNL     1       4.437   5.190  19.325  0.00  0.00    +0.000 A 
ATOM     11  N   UNL     1       6.653   4.268  18.684  0.00  0.00    +0.000 N 
ATOM     12  C   UNL     1       7.607   4.498  17.699  0.00  0.00    +0.000 C 
ATOM     13  O   UNL     1       8.711   3.984  17.639  0.00  0.00    +0.000 OA
ATOM     14  C   UNL     1       7.025   5.527  16.723  0.00  0.00    +0.000 C 
ATOM     15  H   UNL     1       6.807   3.634  19.453  0.00  0.00    +0.000 HD
ENDBRANCH   2   5
BRANCH   1  16
ATOM     16  C   UNL     1       1.015   8.132  21.062  0.00  0.00    +0.000 C 
BRANCH  16  20
ATOM     17  C   UNL     1      -0.091  12.218  20.054  0.00  0.00    +0.000 A 
ATOM     18  C   UNL     1       0.541  11.383  19.141  0.00  0.00    +0.000 A 
ATOM     19  C   UNL     1       0.854  10.065  19.484  0.00  0.00    +0.000 A 
ATOM     20  C   UNL     1       0.528   9.535  20.749  0.00  0.00    +0.000 A 
ATOM     21  C   UNL     1      -0.174  10.361  21.658  0.00  0.00    +0.000 A 
ATOM     22  C   UNL     1      -0.466  11.700  21.291  0.00  0.00    +0.000 A 
BRANCH  21  23
ATOM     23  C   UNL     1      -0.662   9.938  23.024  0.00  0.00    +0.000 C 
ATOM     24  F   UNL     1      -1.333   8.754  23.076  0.00  0.00    +0.000 F 
ATOM     25  F   UNL     1       0.356   9.816  23.921  0.00  0.00    +0.000 F 
ATOM     26  F   UNL     1      -1.519  10.853  23.564  0.00  0.00    +0.000 F 
ENDBRANCH  21  23
BRANCH  17  28
ATOM     27  C   UNL     1       0.752  14.175  19.037  0.00  0.00    +0.000 C 
ATOM     28  O   UNL     1      -0.348  13.490  19.628  0.00  0.00    +0.000 OA
ENDBRANCH  17  28
ENDBRANCH  16  20
ENDBRANCH   1  16
TORSDOF 5
ENDMDL
MODEL 4
REMARK VINA RESULT:      -8.0      4.077      8.963
REMARK  Name = 
REMARK  6 active torsions:
REMARK  status: ('A' for Active; 'I' for Inactive)
REMARK    1  A    between atoms: C_1  and  O_2
REMARK    2  A    between atoms: O_2  and  C_3
REMARK    3  A    between atoms: C_6  and  C_7
REMARK    4  A    between atoms: C_7  and  N_8
REMARK    5  A    between atoms: C_9  and  C_11
REMARK    6  A    between atoms: C_21  and  C_22
REMARK                            x       y       z     vdW  Elec       q    Type
REMARK                         _______ _______ _______ _____ _____    ______ ____
ROOT
ATOM      1  N   UNL     1       2.507   8.033  18.775  0.00  0.00    +0.000 N 
ATOM      2  C   UNL     1       1.723   9.155  18.628  0.00  0.00    +0.000 C 
ATOM      3  O   UNL     1       1.690   9.840  17.618  0.00  0.00    +0.000 OA
ATOM      4  H   UNL     1       2.262   7.372  19.504  0.00  0.00    +0.000 HD
ENDROOT
BRANCH   2   5
ATOM      5  C   UNL     1       0.872   9.510  19.808  0.00  0.00    +0.000 A 
ATOM      6  C   UNL     1       1.028   8.843  21.048  0.00  0.00    +0.000 A 
ATOM      7  C   UNL     1       0.323   9.255  22.183  0.00  0.00    +0.000 A 
ATOM      8  C   UNL     1      -0.523  10.340  22.058  0.00  0.00    +0.000 A 
ATOM      9  C   UNL     1      -0.701  10.969  20.828  0.00  0.00    +0.000 A 
ATOM     10  C   UNL     1      -0.026  10.582  19.690  0.00  0.00    +0.000 A 
ATOM     11  N   UNL     1      -1.587  12.026  20.973  0.00  0.00    +0.000 N 
ATOM     12  C   UNL     1      -1.977  12.180  22.300  0.00  0.00    +0.000 C 
ATOM     13  O   UNL     1      -2.703  13.059  22.734  0.00  0.00    +0.000 OA
ATOM     14  C   UNL     1      -1.312  11.062  23.110  0.00  0.00    +0.000 C 
ATOM     15  H   UNL     1      -1.886  12.653  20.242  0.00  0.00    +0.000 HD
ENDBRANCH   2   5
BRANCH   1  16
ATOM     16  C   UNL     1       3.355   7.524  17.723  0.00  0.00    +0.000 C 
BRANCH  16  20
ATOM     17  C   UNL     1       3.121   3.181  17.638  0.00  0.00    +0.000 A 
ATOM     18  C   UNL     1       2.127   3.956  18.221  0.00  0.00    +0.000 A 
ATOM     19  C   UNL     1       2.215   5.351  18.204  0.00  0.00    +0.000 A 
ATOM     20  C   UNL     1       3.295   6.015  17.585  0.00  0.00    +0.000 A 
ATOM     21  C   UNL     1       4.274   5.229  16.933  0.00  0.00    +0.000 A 
ATOM     22  C   UNL     1       4.170   3.815  16.979  0.00  0.00    +0.000 A 
BRANCH  21  23
ATOM     23  C   UNL     1       5.456   5.771  16.163  0.00  0.00    +0.000 C 
ATOM     24  F   UNL     1       6.272   4.841  15.592  0.00  0.00    +0.000 F 
ATOM     25  F   UNL     1       5.076   6.592  15.144  0.00  0.00    +0.000 F 
ATOM     26  F   UNL     1       6.277   6.523  16.953  0.00  0.00    +0.000 F 
ENDBRANCH  21  23
BRANCH  17  28
ATOM     27  C   UNL     1       3.753   1.157  18.679  0.00  0.00    +0.000 C 
ATOM     28  O   UNL     1       2.949   1.828  17.713  0.00  0.00    +0.000 OA
ENDBRANCH  17  28
ENDBRANCH  16  20
ENDBRANCH   1  16
TORSDOF 5
ENDMDL
MODEL 5
REMARK VINA RESULT:      -8.0      3.607      8.419
REMARK  Name = 
REMARK  6 active torsions:
REMARK  status: ('A' for Active; 'I' for Inactive)
REMARK    1  A    between atoms: C_1  and  O_2
REMARK    2  A    between atoms: O_2  and  C_3
REMARK    3  A    between atoms: C_6  and  C_7
REMARK    4  A    between atoms: C_7  and  N_8
REMARK    5  A    between atoms: C_9  and  C_11
REMARK    6  A    between atoms: C_21  and  C_22
REMARK                            x       y       z     vdW  Elec       q    Type
REMARK                         _______ _______ _______ _____ _____    ______ ____
ROOT
ATOM      1  N   UNL     1       4.286   6.003  18.914  0.00  0.00    +0.000 N 
ATOM      2  C   UNL     1       2.951   6.128  18.601  0.00  0.00    +0.000 C 
ATOM      3  O   UNL     1       2.309   5.286  17.994  0.00  0.00    +0.000 OA
ATOM      4  H   UNL     1       4.659   6.587  19.654  0.00  0.00    +0.000 HD
ENDROOT
BRANCH   2   5
ATOM      5  C   UNL     1       2.294   7.392  19.061  0.00  0.00    +0.000 A 
ATOM      6  C   UNL     1       1.999   8.436  18.149  0.00  0.00    +0.000 A 
ATOM      7  C   UNL     1       1.275   9.563  18.551  0.00  0.00    +0.000 A 
ATOM      8  C   UNL     1       0.847   9.620  19.863  0.00  0.00    +0.000 A 
ATOM      9  C   UNL     1       1.171   8.609  20.765  0.00  0.00    +0.000 A 
ATOM     10  C   UNL     1       1.890   7.490  20.401  0.00  0.00    +0.000 A 
ATOM     11  N   UNL     1       0.620   8.900  22.004  0.00  0.00    +0.000 N 
ATOM     12  C   UNL     1      -0.137  10.066  21.959  0.00  0.00    +0.000 C 
ATOM     13  O   UNL     1      -0.783  10.535  22.881  0.00  0.00    +0.000 OA
ATOM     14  C   UNL     1      -0.025  10.635  20.540  0.00  0.00    +0.000 C 
ATOM     15  H   UNL     1       0.695   8.332  22.834  0.00  0.00    +0.000 HD
ENDBRANCH   2   5
BRANCH   1  16
ATOM     16  C   UNL     1       5.063   4.832  18.585  0.00  0.00    +0.000 C 
BRANCH  16  20
ATOM     17  C   UNL     1       6.555   4.524  14.509  0.00  0.00    +0.000 A 
ATOM     18  C   UNL     1       5.541   3.700  14.983  0.00  0.00    +0.000 A 
ATOM     19  C   UNL     1       5.061   3.846  16.288  0.00  0.00    +0.000 A 
ATOM     20  C   UNL     1       5.569   4.834  17.154  0.00  0.00    +0.000 A 
ATOM     21  C   UNL     1       6.555   5.717  16.654  0.00  0.00    +0.000 A 
ATOM     22  C   UNL     1       7.036   5.539  15.331  0.00  0.00    +0.000 A 
BRANCH  21  23
ATOM     23  C   UNL     1       7.159   6.874  17.416  0.00  0.00    +0.000 C 
ATOM     24  F   UNL     1       8.199   7.510  16.808  0.00  0.00    +0.000 F 
ATOM     25  F   UNL     1       6.245   7.849  17.682  0.00  0.00    +0.000 F 
ATOM     26  F   UNL     1       7.644   6.485  18.632  0.00  0.00    +0.000 F 
ENDBRANCH  21  23
BRANCH  17  28
ATOM     27  C   UNL     1       6.129   3.432  12.459  0.00  0.00    +0.000 C 
ATOM     28  O   UNL     1       6.960   4.299  13.224  0.00  0.00    +0.000 OA
ENDBRANCH  17  28
ENDBRANCH  16  20
ENDBRANCH   1  16
TORSDOF 5
ENDMDL
MODEL 6
REMARK VINA RESULT:      -8.0      1.007      1.378
REMARK  Name = 
REMARK  6 active torsions:
REMARK  status: ('A' for Active; 'I' for Inactive)
REMARK    1  A    between atoms: C_1  and  O_2
REMARK    2  A    between atoms: O_2  and  C_3
REMARK    3  A    between atoms: C_6  and  C_7
REMARK    4  A    between atoms: C_7  and  N_8
REMARK    5  A    between atoms: C_9  and  C_11
REMARK    6  A    between atoms: C_21  and  C_22
REMARK                            x       y       z     vdW  Elec       q    Type
REMARK                         _______ _______ _______ _____ _____    ______ ____
ROOT
ATOM      1  N   UNL     1       2.612   7.133  20.104  0.00  0.00    +0.000 N 
ATOM      2  C   UNL     1       2.656   5.946  19.408  0.00  0.00    +0.000 C 
ATOM      3  O   UNL     1       1.727   5.155  19.343  0.00  0.00    +0.000 OA
ATOM      4  H   UNL     1       3.291   7.848  19.870  0.00  0.00    +0.000 HD
ENDROOT
BRANCH   2   5
ATOM      5  C   UNL     1       3.942   5.658  18.698  0.00  0.00    +0.000 A 
ATOM      6  C   UNL     1       4.967   4.904  19.322  0.00  0.00    +0.000 A 
ATOM      7  C   UNL     1       6.117   4.529  18.619  0.00  0.00    +0.000 A 
ATOM      8  C   UNL     1       6.215   4.907  17.295  0.00  0.00    +0.000 A 
ATOM      9  C   UNL     1       5.222   5.680  16.696  0.00  0.00    +0.000 A 
ATOM     10  C   UNL     1       4.081   6.072  17.364  0.00  0.00    +0.000 A 
ATOM     11  N   UNL     1       5.554   5.915  15.370  0.00  0.00    +0.000 N 
ATOM     12  C   UNL     1       6.732   5.262  15.021  0.00  0.00    +0.000 C 
ATOM     13  O   UNL     1       7.236   5.241  13.911  0.00  0.00    +0.000 OA
ATOM     14  C   UNL     1       7.262   4.562  16.278  0.00  0.00    +0.000 C 
ATOM     15  H   UNL     1       5.006   6.440  14.707  0.00  0.00    +0.000 HD
ENDBRANCH   2   5
BRANCH   1  16
ATOM     16  C   UNL     1       1.437   7.586  20.809  0.00  0.00    +0.000 C 
BRANCH  16  20
ATOM     17  C   UNL     1       0.395  11.579  19.431  0.00  0.00    +0.000 A 
ATOM     18  C   UNL     1       0.973  10.640  18.586  0.00  0.00    +0.000 A 
ATOM     19  C   UNL     1       1.266   9.354  19.050  0.00  0.00    +0.000 A 
ATOM     20  C   UNL     1       0.973   8.963  20.372  0.00  0.00    +0.000 A 
ATOM     21  C   UNL     1       0.325   9.896  21.216  0.00  0.00    +0.000 A 
ATOM     22  C   UNL     1       0.052  11.199  20.726  0.00  0.00    +0.000 A 
BRANCH  21  23
ATOM     23  C   UNL     1      -0.124   9.626  22.633  0.00  0.00    +0.000 C 
ATOM     24  F   UNL     1       0.863   9.332  23.525  0.00  0.00    +0.000 F 
ATOM     25  F   UNL     1      -0.793  10.683  23.173  0.00  0.00    +0.000 F 
ATOM     26  F   UNL     1      -0.988   8.572  22.702  0.00  0.00    +0.000 F 
ENDBRANCH  21  23
BRANCH  17  28
ATOM     27  C   UNL     1       1.308  13.595  18.606  0.00  0.00    +0.000 C 
ATOM     28  O   UNL     1       0.154  12.809  18.887  0.00  0.00    +0.000 OA
ENDBRANCH  17  28
ENDBRANCH  16  20
ENDBRANCH   1  16
TORSDOF 5
ENDMDL
MODEL 7
REMARK VINA RESULT:      -8.0      3.074      7.875
REMARK  Name = 
REMARK  6 active torsions:
REMARK  status: ('A' for Active; 'I' for Inactive)
REMARK    1  A    between atoms: C_1  and  O_2
REMARK    2  A    between atoms: O_2  and  C_3
REMARK    3  A    between atoms: C_6  and  C_7
REMARK    4  A    between atoms: C_7  and  N_8
REMARK    5  A    between atoms: C_9  and  C_11
REMARK    6  A    between atoms: C_21  and  C_22
REMARK                            x       y       z     vdW  Elec       q    Type
REMARK                         _______ _______ _______ _____ _____    ______ ____
ROOT
ATOM      1  N   UNL     1       3.677   6.175  19.793  0.00  0.00    +0.000 N 
ATOM      2  C   UNL     1       2.388   6.153  20.274  0.00  0.00    +0.000 C 
ATOM      3  O   UNL     1       1.831   5.152  20.695  0.00  0.00    +0.000 OA
ATOM      4  H   UNL     1       4.153   7.069  19.745  0.00  0.00    +0.000 HD
ENDROOT
BRANCH   2   5
ATOM      5  C   UNL     1       1.670   7.467  20.265  0.00  0.00    +0.000 A 
ATOM      6  C   UNL     1       0.903   7.888  21.379  0.00  0.00    +0.000 A 
ATOM      7  C   UNL     1       0.334   9.165  21.423  0.00  0.00    +0.000 A 
ATOM      8  C   UNL     1       0.554  10.006  20.350  0.00  0.00    +0.000 A 
ATOM      9  C   UNL     1       1.278   9.575  19.240  0.00  0.00    +0.000 A 
ATOM     10  C   UNL     1       1.844   8.320  19.163  0.00  0.00    +0.000 A 
ATOM     11  N   UNL     1       1.361  10.603  18.313  0.00  0.00    +0.000 N 
ATOM     12  C   UNL     1       0.761  11.763  18.791  0.00  0.00    +0.000 C 
ATOM     13  O   UNL     1       0.730  12.841  18.219  0.00  0.00    +0.000 OA
ATOM     14  C   UNL     1       0.168  11.444  20.168  0.00  0.00    +0.000 C 
ATOM     15  H   UNL     1       1.835  10.562  17.424  0.00  0.00    +0.000 HD
ENDBRANCH   2   5
BRANCH   1  16
ATOM     16  C   UNL     1       4.526   5.008  19.769  0.00  0.00    +0.000 C 
BRANCH  16  20
ATOM     17  C   UNL     1       6.271   4.433  15.825  0.00  0.00    +0.000 A 
ATOM     18  C   UNL     1       7.026   4.879  16.902  0.00  0.00    +0.000 A 
ATOM     19  C   UNL     1       6.444   5.023  18.165  0.00  0.00    +0.000 A 
ATOM     20  C   UNL     1       5.089   4.706  18.393  0.00  0.00    +0.000 A 
ATOM     21  C   UNL     1       4.334   4.190  17.313  0.00  0.00    +0.000 A 
ATOM     22  C   UNL     1       4.944   4.068  16.038  0.00  0.00    +0.000 A 
BRANCH  21  23
ATOM     23  C   UNL     1       2.896   3.734  17.393  0.00  0.00    +0.000 C 
ATOM     24  F   UNL     1       2.561   3.010  18.498  0.00  0.00    +0.000 F 
ATOM     25  F   UNL     1       2.022   4.779  17.369  0.00  0.00    +0.000 F 
ATOM     26  F   UNL     1       2.552   2.944  16.335  0.00  0.00    +0.000 F 
ENDBRANCH  21  23
BRANCH  17  28
ATOM     27  C   UNL     1       6.156   3.830  13.545  0.00  0.00    +0.000 C 
ATOM     28  O   UNL     1       6.927   4.333  14.631  0.00  0.00    +0.000 OA
ENDBRANCH  17  28
ENDBRANCH  16  20
ENDBRANCH   1  16
TORSDOF 5
ENDMDL
MODEL 8
REMARK VINA RESULT:      -8.0      3.192      8.271
REMARK  Name = 
REMARK  6 active torsions:
REMARK  status: ('A' for Active; 'I' for Inactive)
REMARK    1  A    between atoms: C_1  and  O_2
REMARK    2  A    between atoms: O_2  and  C_3
REMARK    3  A    between atoms: C_6  and  C_7
REMARK    4  A    between atoms: C_7  and  N_8
REMARK    5  A    between atoms: C_9  and  C_11
REMARK    6  A    between atoms: C_21  and  C_22
REMARK                            x       y       z     vdW  Elec       q    Type
REMARK                         _______ _______ _______ _____ _____    ______ ____
ROOT
ATOM      1  N   UNL     1       3.589   6.303  19.709  0.00  0.00    +0.000 N 
ATOM      2  C   UNL     1       2.301   6.433  20.178  0.00  0.00    +0.000 C 
ATOM      3  O   UNL     1       1.644   5.512  20.637  0.00  0.00    +0.000 OA
ATOM      4  H   UNL     1       4.153   7.141  19.626  0.00  0.00    +0.000 HD
ENDROOT
BRANCH   2   5
ATOM      5  C   UNL     1       1.720   7.810  20.103  0.00  0.00    +0.000 A 
ATOM      6  C   UNL     1       1.763   8.556  18.900  0.00  0.00    +0.000 A 
ATOM      7  C   UNL     1       1.114   9.791  18.792  0.00  0.00    +0.000 A 
ATOM      8  C   UNL     1       0.421  10.253  19.893  0.00  0.00    +0.000 A 
ATOM      9  C   UNL     1       0.413   9.533  21.086  0.00  0.00    +0.000 A 
ATOM     10  C   UNL     1       1.049   8.318  21.227  0.00  0.00    +0.000 A 
ATOM     11  N   UNL     1      -0.356  10.204  22.026  0.00  0.00    +0.000 N 
ATOM     12  C   UNL     1      -0.934  11.347  21.483  0.00  0.00    +0.000 C 
ATOM     13  O   UNL     1      -1.703  12.100  22.056  0.00  0.00    +0.000 OA
ATOM     14  C   UNL     1      -0.446  11.469  20.036  0.00  0.00    +0.000 C 
ATOM     15  H   UNL     1      -0.535   9.900  22.971  0.00  0.00    +0.000 HD
ENDBRANCH   2   5
BRANCH   1  16
ATOM     16  C   UNL     1       4.316   5.056  19.745  0.00  0.00    +0.000 C 
BRANCH  16  20
ATOM     17  C   UNL     1       6.216   4.280  15.909  0.00  0.00    +0.000 A 
ATOM     18  C   UNL     1       6.930   4.774  16.993  0.00  0.00    +0.000 A 
ATOM     19  C   UNL     1       6.297   4.982  18.223  0.00  0.00    +0.000 A 
ATOM     20  C   UNL     1       4.932   4.684  18.410  0.00  0.00    +0.000 A 
ATOM     21  C   UNL     1       4.218   4.120  17.326  0.00  0.00    +0.000 A 
ATOM     22  C   UNL     1       4.879   3.933  16.085  0.00  0.00    +0.000 A 
BRANCH  21  23
ATOM     23  C   UNL     1       2.774   3.677  17.369  0.00  0.00    +0.000 C 
ATOM     24  F   UNL     1       2.421   2.902  18.432  0.00  0.00    +0.000 F 
ATOM     25  F   UNL     1       1.912   4.731  17.389  0.00  0.00    +0.000 F 
ATOM     26  F   UNL     1       2.433   2.945  16.269  0.00  0.00    +0.000 F 
ENDBRANCH  21  23
BRANCH  17  28
ATOM     27  C   UNL     1       6.141   3.837  13.590  0.00  0.00    +0.000 C 
ATOM     28  O   UNL     1       6.920   4.118  14.750  0.00  0.00    +0.000 OA
ENDBRANCH  17  28
ENDBRANCH  16  20
ENDBRANCH   1  16
TORSDOF 5
ENDMDL
MODEL 9
REMARK VINA RESULT:      -7.9      0.964      1.260
REMARK  Name = 
REMARK  6 active torsions:
REMARK  status: ('A' for Active; 'I' for Inactive)
REMARK    1  A    between atoms: C_1  and  O_2
REMARK    2  A    between atoms: O_2  and  C_3
REMARK    3  A    between atoms: C_6  and  C_7
REMARK    4  A    between atoms: C_7  and  N_8
REMARK    5  A    between atoms: C_9  and  C_11
REMARK    6  A    between atoms: C_21  and  C_22
REMARK                            x       y       z     vdW  Elec       q    Type
REMARK                         _______ _______ _______ _____ _____    ______ ____
ROOT
ATOM      1  N   UNL     1       2.662   6.756  19.275  0.00  0.00    +0.000 N 
ATOM      2  C   UNL     1       3.251   5.529  19.479  0.00  0.00    +0.000 C 
ATOM      3  O   UNL     1       3.166   4.892  20.517  0.00  0.00    +0.000 OA
ATOM      4  H   UNL     1       2.532   7.070  18.320  0.00  0.00    +0.000 HD
ENDROOT
BRANCH   2   5
ATOM      5  C   UNL     1       4.027   4.982  18.321  0.00  0.00    +0.000 A 
ATOM      6  C   UNL     1       3.604   3.810  17.646  0.00  0.00    +0.000 A 
ATOM      7  C   UNL     1       4.256   3.368  16.490  0.00  0.00    +0.000 A 
ATOM      8  C   UNL     1       5.317   4.116  16.022  0.00  0.00    +0.000 A 
ATOM      9  C   UNL     1       5.753   5.247  16.710  0.00  0.00    +0.000 A 
ATOM     10  C   UNL     1       5.137   5.704  17.855  0.00  0.00    +0.000 A 
ATOM     11  N   UNL     1       6.820   5.818  16.032  0.00  0.00    +0.000 N 
ATOM     12  C   UNL     1       7.090   5.138  14.850  0.00  0.00    +0.000 C 
ATOM     13  O   UNL     1       7.933   5.445  14.024  0.00  0.00    +0.000 OA
ATOM     14  C   UNL     1       6.124   3.950  14.769  0.00  0.00    +0.000 C 
ATOM     15  H   UNL     1       7.320   6.650  16.307  0.00  0.00    +0.000 HD
ENDBRANCH   2   5
BRANCH   1  16
ATOM     16  C   UNL     1       1.844   7.409  20.269  0.00  0.00    +0.000 C 
BRANCH  16  20
ATOM     17  C   UNL     1       0.866  11.451  18.990  0.00  0.00    +0.000 A 
ATOM     18  C   UNL     1       1.529  10.559  18.157  0.00  0.00    +0.000 A 
ATOM     19  C   UNL     1       1.800   9.256  18.585  0.00  0.00    +0.000 A 
ATOM     20  C   UNL     1       1.399   8.800  19.857  0.00  0.00    +0.000 A 
ATOM     21  C   UNL     1       0.666   9.684  20.682  0.00  0.00    +0.000 A 
ATOM     22  C   UNL     1       0.417  11.006  20.231  0.00  0.00    +0.000 A 
BRANCH  21  23
ATOM     23  C   UNL     1       0.098   9.343  22.041  0.00  0.00    +0.000 C 
ATOM     24  F   UNL     1       1.007   8.996  22.995  0.00  0.00    +0.000 F 
ATOM     25  F   UNL     1      -0.613  10.374  22.577  0.00  0.00    +0.000 F 
ATOM     26  F   UNL     1      -0.770   8.291  21.981  0.00  0.00    +0.000 F 
ENDBRANCH  21  23
BRANCH  17  28
ATOM     27  C   UNL     1      -0.662  13.220  18.655  0.00  0.00    +0.000 C 
ATOM     28  O   UNL     1       0.654  12.702  18.484  0.00  0.00    +0.000 OA
ENDBRANCH  17  28
ENDBRANCH  16  20
ENDBRANCH   1  16
TORSDOF 5
ENDMDL
