MODEL 1
REMARK VINA RESULT:      -8.4      0.000      0.000
REMARK  Name = 
REMARK  8 active torsions:
REMARK  status: ('A' for Active; 'I' for Inactive)
REMARK    1  A    between atoms: C_1  and  C_2
REMARK    2  A    between atoms: C_4  and  O_5
REMARK    3  A    between atoms: O_5  and  C_6
REMARK    4  A    between atoms: C_6  and  C_7
REMARK    5  A    between atoms: C_17  and  O_18
REMARK    6  A    between atoms: O_18  and  S_19
REMARK    7  A    between atoms: S_19  and  C_22
REMARK    8  A    between atoms: C_25  and  N_26
REMARK                            x       y       z     vdW  Elec       q    Type
REMARK                         _______ _______ _______ _____ _____    ______ ____
ROOT
ATOM      1  C   UNL     1       1.451   2.841  21.145  0.00  0.00    +0.000 C 
ATOM      2  C   UNL     1       1.851   4.063  20.376  0.00  0.00    +0.000 A 
ATOM      3  C   UNL     1       1.705   5.336  20.928  0.00  0.00    +0.000 A 
ATOM      4  C   UNL     1       2.089   6.479  20.222  0.00  0.00    +0.000 A 
ATOM      5  C   UNL     1       2.605   6.360  18.936  0.00  0.00    +0.000 A 
ATOM      6  C   UNL     1       2.747   5.086  18.365  0.00  0.00    +0.000 A 
ATOM      7  C   UNL     1       2.397   3.945  19.094  0.00  0.00    +0.000 A 
ENDROOT
BRANCH   4   8
ATOM      8  O   UNL     1       1.983   7.620  20.949  0.00  0.00    +0.000 OA
BRANCH   8   9
ATOM      9  C   UNL     1       0.698   8.176  21.226  0.00  0.00    +0.000 C 
BRANCH   9  10
ATOM     10  C   UNL     1       0.782   9.614  20.697  0.00  0.00    +0.000 C 
ATOM     11  C   UNL     1       0.637   9.676  19.164  0.00  0.00    +0.000 C 
ATOM     12  C   UNL     1       0.875  11.104  18.677  0.00  0.00    +0.000 C 
ATOM     13  N   UNL     1      -0.061  12.018  19.352  0.00  0.00    +0.000 N 
ATOM     14  C   UNL     1      -0.646  13.053  18.682  0.00  0.00    +0.000 C 
ATOM     15  N   UNL     1      -0.920  14.228  19.127  0.00  0.00    +0.000 NA
ATOM     16  N   UNL     1      -1.033  12.767  17.422  0.00  0.00    +0.000 N 
ATOM     17  C   UNL     1       0.041  11.996  20.814  0.00  0.00    +0.000 C 
ATOM     18  C   UNL     1      -0.232  10.573  21.321  0.00  0.00    +0.000 C 
ATOM     19  H   UNL     1      -0.562  14.327  20.075  0.00  0.00    +0.000 HD
ATOM     20  H   UNL     1      -1.478  11.863  17.355  0.00  0.00    +0.000 HD
ATOM     21  H   UNL     1      -1.641  13.505  17.086  0.00  0.00    +0.000 HD
ENDBRANCH   9  10
ENDBRANCH   8   9
ENDBRANCH   4   8
BRANCH   6  22
ATOM     22  O   UNL     1       3.268   5.048  17.091  0.00  0.00    +0.000 OA
BRANCH  22  23
ATOM     23  S   UNL     1       4.674   4.275  16.768  0.00  0.00    +0.000 S 
ATOM     24  O   UNL     1       4.713   3.047  17.540  0.00  0.00    +0.000 OA
ATOM     25  O   UNL     1       4.907   4.263  15.336  0.00  0.00    +0.000 OA
BRANCH  23  26
ATOM     26  C   UNL     1       5.909   5.367  17.445  0.00  0.00    +0.000 A 
ATOM     27  C   UNL     1       6.688   4.965  18.525  0.00  0.00    +0.000 A 
ATOM     28  C   UNL     1       7.661   5.840  19.024  0.00  0.00    +0.000 A 
ATOM     29  C   UNL     1       7.881   7.083  18.423  0.00  0.00    +0.000 A 
ATOM     30  C   UNL     1       7.043   7.486  17.376  0.00  0.00    +0.000 A 
ATOM     31  C   UNL     1       6.072   6.624  16.866  0.00  0.00    +0.000 A 
BRANCH  29  32
ATOM     32  N   UNL     1       8.765   7.998  19.005  0.00  0.00    +0.000 N 
ATOM     33  H   UNL     1       8.425   8.403  19.873  0.00  0.00    +0.000 HD
ATOM     34  H   UNL     1       9.716   7.651  19.094  0.00  0.00    +0.000 HD
ENDBRANCH  29  32
ENDBRANCH  23  26
ENDBRANCH  22  23
ENDBRANCH   6  22
TORSDOF 7
ENDMDL
MODEL 2
REMARK VINA RESULT:      -7.9      6.583     10.254
REMARK  Name = 
REMARK  8 active torsions:
REMARK  status: ('A' for Active; 'I' for Inactive)
REMARK    1  A    between atoms: C_1  and  C_2
REMARK    2  A    between atoms: C_4  and  O_5
REMARK    3  A    between atoms: O_5  and  C_6
REMARK    4  A    between atoms: C_6  and  C_7
REMARK    5  A    between atoms: C_17  and  O_18
REMARK    6  A    between atoms: O_18  and  S_19
REMARK    7  A    between atoms: S_19  and  C_22
REMARK    8  A    between atoms: C_25  and  N_26
REMARK                            x       y       z     vdW  Elec       q    Type
REMARK                         _______ _______ _______ _____ _____    ______ ____
ROOT
ATOM      1  C   UNL     1      11.410  12.725  17.277  0.00  0.00    +0.000 C 
ATOM      2  C   UNL     1      10.651  12.017  18.357  0.00  0.00    +0.000 A 
ATOM      3  C   UNL     1       9.948  10.843  18.085  0.00  0.00    +0.000 A 
ATOM      4  C   UNL     1       9.249  10.170  19.090  0.00  0.00    +0.000 A 
ATOM      5  C   UNL     1       9.226  10.682  20.383  0.00  0.00    +0.000 A 
ATOM      6  C   UNL     1       9.920  11.868  20.667  0.00  0.00    +0.000 A 
ATOM      7  C   UNL     1      10.650  12.514  19.664  0.00  0.00    +0.000 A 
ENDROOT
BRANCH   4   8
ATOM      8  O   UNL     1       8.718   8.991  18.678  0.00  0.00    +0.000 OA
BRANCH   8   9
ATOM      9  C   UNL     1       7.826   8.958  17.563  0.00  0.00    +0.000 C 
BRANCH   9  10
ATOM     10  C   UNL     1       7.515   7.468  17.369  0.00  0.00    +0.000 C 
ATOM     11  C   UNL     1       7.706   6.662  18.668  0.00  0.00    +0.000 C 
ATOM     12  C   UNL     1       7.528   5.170  18.386  0.00  0.00    +0.000 C 
ATOM     13  N   UNL     1       6.204   4.936  17.788  0.00  0.00    +0.000 N 
ATOM     14  C   UNL     1       5.458   3.844  18.125  0.00  0.00    +0.000 C 
ATOM     15  N   UNL     1       4.695   3.143  17.365  0.00  0.00    +0.000 NA
ATOM     16  N   UNL     1       5.491   3.518  19.433  0.00  0.00    +0.000 N 
ATOM     17  C   UNL     1       5.975   5.682  16.546  0.00  0.00    +0.000 C 
ATOM     18  C   UNL     1       6.115   7.185  16.822  0.00  0.00    +0.000 C 
ATOM     19  H   UNL     1       4.771   3.473  16.405  0.00  0.00    +0.000 HD
ATOM     20  H   UNL     1       5.421   4.328  20.032  0.00  0.00    +0.000 HD
ATOM     21  H   UNL     1       4.754   2.849  19.627  0.00  0.00    +0.000 HD
ENDBRANCH   9  10
ENDBRANCH   8   9
ENDBRANCH   4   8
BRANCH   6  22
ATOM     22  O   UNL     1       9.855  12.311  21.969  0.00  0.00    +0.000 OA
BRANCH  22  23
ATOM     23  S   UNL     1       8.842  13.518  22.410  0.00  0.00    +0.000 S 
ATOM     24  O   UNL     1       9.636  14.671  22.791  0.00  0.00    +0.000 OA
ATOM     25  O   UNL     1       7.772  13.637  21.435  0.00  0.00    +0.000 OA
BRANCH  23  26
ATOM     26  C   UNL     1       8.073  12.890  23.889  0.00  0.00    +0.000 A 
ATOM     27  C   UNL     1       7.224  11.789  23.829  0.00  0.00    +0.000 A 
ATOM     28  C   UNL     1       6.648  11.309  25.011  0.00  0.00    +0.000 A 
ATOM     29  C   UNL     1       6.951  11.896  26.244  0.00  0.00    +0.000 A 
ATOM     30  C   UNL     1       7.761  13.038  26.269  0.00  0.00    +0.000 A 
ATOM     31  C   UNL     1       8.345  13.525  25.099  0.00  0.00    +0.000 A 
BRANCH  29  32
ATOM     32  N   UNL     1       6.275  11.491  27.400  0.00  0.00    +0.000 N 
ATOM     33  H   UNL     1       6.568  10.583  27.750  0.00  0.00    +0.000 HD
ATOM     34  H   UNL     1       6.258  12.193  28.134  0.00  0.00    +0.000 HD
ENDBRANCH  29  32
ENDBRANCH  23  26
ENDBRANCH  22  23
ENDBRANCH   6  22
TORSDOF 7
ENDMDL
MODEL 3
REMARK VINA RESULT:      -7.9      5.564      8.019
REMARK  Name = 
REMARK  8 active torsions:
REMARK  status: ('A' for Active; 'I' for Inactive)
REMARK    1  A    between atoms: C_1  and  C_2
REMARK    2  A    between atoms: C_4  and  O_5
REMARK    3  A    between atoms: O_5  and  C_6
REMARK    4  A    between atoms: C_6  and  C_7
REMARK    5  A    between atoms: C_17  and  O_18
REMARK    6  A    between atoms: O_18  and  S_19
REMARK    7  A    between atoms: S_19  and  C_22
REMARK    8  A    between atoms: C_25  and  N_26
REMARK                            x       y       z     vdW  Elec       q    Type
REMARK                         _______ _______ _______ _____ _____    ______ ____
ROOT
ATOM      1  C   UNL     1      -2.985  10.048  14.424  0.00  0.00    +0.000 C 
ATOM      2  C   UNL     1      -3.177  10.488  15.844  0.00  0.00    +0.000 A 
ATOM      3  C   UNL     1      -4.233  11.330  16.195  0.00  0.00    +0.000 A 
ATOM      4  C   UNL     1      -4.426  11.734  17.518  0.00  0.00    +0.000 A 
ATOM      5  C   UNL     1      -3.543  11.314  18.508  0.00  0.00    +0.000 A 
ATOM      6  C   UNL     1      -2.471  10.476  18.166  0.00  0.00    +0.000 A 
ATOM      7  C   UNL     1      -2.309  10.045  16.846  0.00  0.00    +0.000 A 
ENDROOT
BRANCH   4   8
ATOM      8  O   UNL     1      -5.560  12.457  17.699  0.00  0.00    +0.000 OA
BRANCH   8   9
ATOM      9  C   UNL     1      -6.803  11.794  17.929  0.00  0.00    +0.000 C 
BRANCH   9  10
ATOM     10  C   UNL     1      -7.245  12.283  19.315  0.00  0.00    +0.000 C 
ATOM     11  C   UNL     1      -7.225  11.152  20.362  0.00  0.00    +0.000 C 
ATOM     12  C   UNL     1      -7.811  11.653  21.681  0.00  0.00    +0.000 C 
ATOM     13  N   UNL     1      -7.059  12.833  22.138  0.00  0.00    +0.000 N 
ATOM     14  C   UNL     1      -6.768  13.020  23.458  0.00  0.00    +0.000 C 
ATOM     15  N   UNL     1      -6.735  14.127  24.110  0.00  0.00    +0.000 NA
ATOM     16  N   UNL     1      -6.417  11.902  24.125  0.00  0.00    +0.000 N 
ATOM     17  C   UNL     1      -7.050  13.939  21.175  0.00  0.00    +0.000 C 
ATOM     18  C   UNL     1      -6.431  13.460  19.855  0.00  0.00    +0.000 C 
ATOM     19  H   UNL     1      -7.038  14.889  23.508  0.00  0.00    +0.000 HD
ATOM     20  H   UNL     1      -5.786  11.320  23.591  0.00  0.00    +0.000 HD
ATOM     21  H   UNL     1      -6.015  12.161  25.019  0.00  0.00    +0.000 HD
ENDBRANCH   9  10
ENDBRANCH   8   9
ENDBRANCH   4   8
BRANCH   6  22
ATOM     22  O   UNL     1      -1.643  10.099  19.199  0.00  0.00    +0.000 OA
BRANCH  22  23
ATOM     23  S   UNL     1      -0.183  10.802  19.422  0.00  0.00    +0.000 S 
ATOM     24  O   UNL     1       0.023  11.780  18.369  0.00  0.00    +0.000 OA
ATOM     25  O   UNL     1      -0.022  11.165  20.818  0.00  0.00    +0.000 OA
BRANCH  23  26
ATOM     26  C   UNL     1       0.964   9.469  19.138  0.00  0.00    +0.000 A 
ATOM     27  C   UNL     1       1.246   8.556  20.151  0.00  0.00    +0.000 A 
ATOM     28  C   UNL     1       2.140   7.510  19.892  0.00  0.00    +0.000 A 
ATOM     29  C   UNL     1       2.710   7.352  18.625  0.00  0.00    +0.000 A 
ATOM     30  C   UNL     1       2.454   8.318  17.643  0.00  0.00    +0.000 A 
ATOM     31  C   UNL     1       1.564   9.364  17.885  0.00  0.00    +0.000 A 
BRANCH  29  32
ATOM     32  N   UNL     1       3.695   6.381  18.413  0.00  0.00    +0.000 N 
ATOM     33  H   UNL     1       4.010   6.321  17.449  0.00  0.00    +0.000 HD
ATOM     34  H   UNL     1       4.472   6.435  19.064  0.00  0.00    +0.000 HD
ENDBRANCH  29  32
ENDBRANCH  23  26
ENDBRANCH  22  23
ENDBRANCH   6  22
TORSDOF 7
ENDMDL
MODEL 4
REMARK VINA RESULT:      -7.8      1.520      2.147
REMARK  Name = 
REMARK  8 active torsions:
REMARK  status: ('A' for Active; 'I' for Inactive)
REMARK    1  A    between atoms: C_1  and  C_2
REMARK    2  A    between atoms: C_4  and  O_5
REMARK    3  A    between atoms: O_5  and  C_6
REMARK    4  A    between atoms: C_6  and  C_7
REMARK    5  A    between atoms: C_17  and  O_18
REMARK    6  A    between atoms: O_18  and  S_19
REMARK    7  A    between atoms: S_19  and  C_22
REMARK    8  A    between atoms: C_25  and  N_26
REMARK                            x       y       z     vdW  Elec       q    Type
REMARK                         _______ _______ _______ _____ _____    ______ ____
ROOT
ATOM      1  C   UNL     1       1.525   3.170  21.322  0.00  0.00    +0.000 C 
ATOM      2  C   UNL     1       1.894   4.285  20.392  0.00  0.00    +0.000 A 
ATOM      3  C   UNL     1       1.744   5.617  20.778  0.00  0.00    +0.000 A 
ATOM      4  C   UNL     1       2.099   6.663  19.921  0.00  0.00    +0.000 A 
ATOM      5  C   UNL     1       2.590   6.383  18.650  0.00  0.00    +0.000 A 
ATOM      6  C   UNL     1       2.735   5.047  18.246  0.00  0.00    +0.000 A 
ATOM      7  C   UNL     1       2.415   4.007  19.125  0.00  0.00    +0.000 A 
ENDROOT
BRANCH   4   8
ATOM      8  O   UNL     1       1.993   7.888  20.496  0.00  0.00    +0.000 OA
BRANCH   8   9
ATOM      9  C   UNL     1       1.414   8.972  19.770  0.00  0.00    +0.000 C 
BRANCH   9  10
ATOM     10  C   UNL     1       0.777   9.856  20.851  0.00  0.00    +0.000 C 
ATOM     11  C   UNL     1       0.295  11.206  20.285  0.00  0.00    +0.000 C 
ATOM     12  C   UNL     1      -0.194  12.102  21.422  0.00  0.00    +0.000 C 
ATOM     13  N   UNL     1      -1.258  11.413  22.170  0.00  0.00    +0.000 N 
ATOM     14  C   UNL     1      -2.349  12.088  22.633  0.00  0.00    +0.000 C 
ATOM     15  N   UNL     1      -2.985  11.902  23.734  0.00  0.00    +0.000 NA
ATOM     16  N   UNL     1      -2.840  13.018  21.789  0.00  0.00    +0.000 N 
ATOM     17  C   UNL     1      -0.846  10.122  22.731  0.00  0.00    +0.000 C 
ATOM     18  C   UNL     1      -0.386   9.198  21.595  0.00  0.00    +0.000 C 
ATOM     19  H   UNL     1      -2.508  11.195  24.290  0.00  0.00    +0.000 HD
ATOM     20  H   UNL     1      -2.871  12.689  20.834  0.00  0.00    +0.000 HD
ATOM     21  H   UNL     1      -3.757  13.308  22.110  0.00  0.00    +0.000 HD
ENDBRANCH   9  10
ENDBRANCH   8   9
ENDBRANCH   4   8
BRANCH   6  22
ATOM     22  O   UNL     1       3.231   4.849  16.977  0.00  0.00    +0.000 OA
BRANCH  22  23
ATOM     23  S   UNL     1       4.656   4.084  16.728  0.00  0.00    +0.000 S 
ATOM     24  O   UNL     1       4.692   2.896  17.560  0.00  0.00    +0.000 OA
ATOM     25  O   UNL     1       4.926   4.006  15.304  0.00  0.00    +0.000 OA
BRANCH  23  26
ATOM     26  C   UNL     1       5.856   5.226  17.381  0.00  0.00    +0.000 A 
ATOM     27  C   UNL     1       6.066   6.456  16.764  0.00  0.00    +0.000 A 
ATOM     28  C   UNL     1       7.005   7.339  17.311  0.00  0.00    +0.000 A 
ATOM     29  C   UNL     1       7.694   7.015  18.484  0.00  0.00    +0.000 A 
ATOM     30  C   UNL     1       7.507   5.748  19.050  0.00  0.00    +0.000 A 
ATOM     31  C   UNL     1       6.572   4.859  18.519  0.00  0.00    +0.000 A 
BRANCH  29  32
ATOM     32  N   UNL     1       8.718   7.846  18.951  0.00  0.00    +0.000 N 
ATOM     33  H   UNL     1       8.424   8.490  19.680  0.00  0.00    +0.000 HD
ATOM     34  H   UNL     1       9.568   7.350  19.203  0.00  0.00    +0.000 HD
ENDBRANCH  29  32
ENDBRANCH  23  26
ENDBRANCH  22  23
ENDBRANCH   6  22
TORSDOF 7
ENDMDL
MODEL 5
REMARK VINA RESULT:      -7.8      3.967      9.415
REMARK  Name = 
REMARK  8 active torsions:
REMARK  status: ('A' for Active; 'I' for Inactive)
REMARK    1  A    between atoms: C_1  and  C_2
REMARK    2  A    between atoms: C_4  and  O_5
REMARK    3  A    between atoms: O_5  and  C_6
REMARK    4  A    between atoms: C_6  and  C_7
REMARK    5  A    between atoms: C_17  and  O_18
REMARK    6  A    between atoms: O_18  and  S_19
REMARK    7  A    between atoms: S_19  and  C_22
REMARK    8  A    between atoms: C_25  and  N_26
REMARK                            x       y       z     vdW  Elec       q    Type
REMARK                         _______ _______ _______ _____ _____    ______ ____
ROOT
ATOM      1  C   UNL     1      -0.235   9.094  23.008  0.00  0.00    +0.000 C 
ATOM      2  C   UNL     1       0.283   9.115  21.602  0.00  0.00    +0.000 A 
ATOM      3  C   UNL     1       1.271   8.221  21.191  0.00  0.00    +0.000 A 
ATOM      4  C   UNL     1       1.749   8.226  19.877  0.00  0.00    +0.000 A 
ATOM      5  C   UNL     1       1.254   9.149  18.962  0.00  0.00    +0.000 A 
ATOM      6  C   UNL     1       0.267  10.061  19.366  0.00  0.00    +0.000 A 
ATOM      7  C   UNL     1      -0.233  10.022  20.672  0.00  0.00    +0.000 A 
ENDROOT
BRANCH   4   8
ATOM      8  O   UNL     1       2.624   7.220  19.620  0.00  0.00    +0.000 OA
BRANCH   8   9
ATOM      9  C   UNL     1       2.363   6.296  18.564  0.00  0.00    +0.000 C 
BRANCH   9  10
ATOM     10  C   UNL     1       3.755   5.877  18.072  0.00  0.00    +0.000 C 
ATOM     11  C   UNL     1       3.736   4.495  17.391  0.00  0.00    +0.000 C 
ATOM     12  C   UNL     1       5.162   4.062  17.055  0.00  0.00    +0.000 C 
ATOM     13  N   UNL     1       5.800   5.081  16.206  0.00  0.00    +0.000 N 
ATOM     14  C   UNL     1       6.618   4.730  15.171  0.00  0.00    +0.000 C 
ATOM     15  N   UNL     1       7.682   5.326  14.767  0.00  0.00    +0.000 NA
ATOM     16  N   UNL     1       6.204   3.661  14.460  0.00  0.00    +0.000 N 
ATOM     17  C   UNL     1       5.844   6.415  16.814  0.00  0.00    +0.000 C 
ATOM     18  C   UNL     1       4.414   6.879  17.124  0.00  0.00    +0.000 C 
ATOM     19  H   UNL     1       7.900   6.099  15.393  0.00  0.00    +0.000 HD
ATOM     20  H   UNL     1       5.211   3.684  14.277  0.00  0.00    +0.000 HD
ATOM     21  H   UNL     1       6.738   3.607  13.600  0.00  0.00    +0.000 HD
ENDBRANCH   9  10
ENDBRANCH   8   9
ENDBRANCH   4   8
BRANCH   6  22
ATOM     22  O   UNL     1      -0.176  10.940  18.404  0.00  0.00    +0.000 OA
BRANCH  22  23
ATOM     23  S   UNL     1      -0.919  12.341  18.807  0.00  0.00    +0.000 S 
ATOM     24  O   UNL     1      -0.723  12.575  20.226  0.00  0.00    +0.000 OA
ATOM     25  O   UNL     1      -0.595  13.364  17.830  0.00  0.00    +0.000 OA
BRANCH  23  26
ATOM     26  C   UNL     1      -2.645  11.976  18.563  0.00  0.00    +0.000 A 
ATOM     27  C   UNL     1      -3.588  12.359  19.513  0.00  0.00    +0.000 A 
ATOM     28  C   UNL     1      -4.939  12.072  19.285  0.00  0.00    +0.000 A 
ATOM     29  C   UNL     1      -5.348  11.448  18.102  0.00  0.00    +0.000 A 
ATOM     30  C   UNL     1      -4.374  11.020  17.191  0.00  0.00    +0.000 A 
ATOM     31  C   UNL     1      -3.024  11.303  17.404  0.00  0.00    +0.000 A 
BRANCH  29  32
ATOM     32  N   UNL     1      -6.680  11.053  17.940  0.00  0.00    +0.000 N 
ATOM     33  H   UNL     1      -6.908  10.177  18.401  0.00  0.00    +0.000 HD
ATOM     34  H   UNL     1      -7.354  11.782  18.156  0.00  0.00    +0.000 HD
ENDBRANCH  29  32
ENDBRANCH  23  26
ENDBRANCH  22  23
ENDBRANCH   6  22
TORSDOF 7
ENDMDL
MODEL 6
REMARK VINA RESULT:      -7.7      3.536      4.778
REMARK  Name = 
REMARK  8 active torsions:
REMARK  status: ('A' for Active; 'I' for Inactive)
REMARK    1  A    between atoms: C_1  and  C_2
REMARK    2  A    between atoms: C_4  and  O_5
REMARK    3  A    between atoms: O_5  and  C_6
REMARK    4  A    between atoms: C_6  and  C_7
REMARK    5  A    between atoms: C_17  and  O_18
REMARK    6  A    between atoms: O_18  and  S_19
REMARK    7  A    between atoms: S_19  and  C_22
REMARK    8  A    between atoms: C_25  and  N_26
REMARK                            x       y       z     vdW  Elec       q    Type
REMARK                         _______ _______ _______ _____ _____    ______ ____
ROOT
ATOM      1  C   UNL     1       0.192   9.333  22.408  0.00  0.00    +0.000 C 
ATOM      2  C   UNL     1       0.434   9.250  20.931  0.00  0.00    +0.000 A 
ATOM      3  C   UNL     1      -0.451   9.840  20.029  0.00  0.00    +0.000 A 
ATOM      4  C   UNL     1      -0.226   9.780  18.651  0.00  0.00    +0.000 A 
ATOM      5  C   UNL     1       0.885   9.102  18.158  0.00  0.00    +0.000 A 
ATOM      6  C   UNL     1       1.777   8.495  19.055  0.00  0.00    +0.000 A 
ATOM      7  C   UNL     1       1.564   8.595  20.434  0.00  0.00    +0.000 A 
ENDROOT
BRANCH   4   8
ATOM      8  O   UNL     1      -1.122  10.499  17.928  0.00  0.00    +0.000 OA
BRANCH   8   9
ATOM      9  C   UNL     1      -1.417  11.848  18.291  0.00  0.00    +0.000 C 
BRANCH   9  10
ATOM     10  C   UNL     1      -2.950  11.919  18.275  0.00  0.00    +0.000 C 
ATOM     11  C   UNL     1      -3.583  10.640  17.695  0.00  0.00    +0.000 C 
ATOM     12  C   UNL     1      -5.095  10.821  17.564  0.00  0.00    +0.000 C 
ATOM     13  N   UNL     1      -5.666  11.166  18.876  0.00  0.00    +0.000 N 
ATOM     14  C   UNL     1      -6.864  10.656  19.283  0.00  0.00    +0.000 C 
ATOM     15  N   UNL     1      -7.777  11.239  19.974  0.00  0.00    +0.000 NA
ATOM     16  N   UNL     1      -7.066   9.361  18.965  0.00  0.00    +0.000 N 
ATOM     17  C   UNL     1      -5.095  12.380  19.469  0.00  0.00    +0.000 C 
ATOM     18  C   UNL     1      -3.580  12.199  19.640  0.00  0.00    +0.000 C 
ATOM     19  H   UNL     1      -7.519  12.211  20.132  0.00  0.00    +0.000 HD
ATOM     20  H   UNL     1      -6.244   8.795  19.124  0.00  0.00    +0.000 HD
ATOM     21  H   UNL     1      -7.863   9.012  19.485  0.00  0.00    +0.000 HD
ENDBRANCH   9  10
ENDBRANCH   8   9
ENDBRANCH   4   8
BRANCH   6  22
ATOM     22  O   UNL     1       2.854   7.847  18.494  0.00  0.00    +0.000 OA
BRANCH  22  23
ATOM     23  S   UNL     1       2.968   6.215  18.507  0.00  0.00    +0.000 S 
ATOM     24  O   UNL     1       3.344   5.791  19.843  0.00  0.00    +0.000 OA
ATOM     25  O   UNL     1       1.817   5.639  17.838  0.00  0.00    +0.000 OA
BRANCH  23  26
ATOM     26  C   UNL     1       4.356   5.892  17.438  0.00  0.00    +0.000 A 
ATOM     27  C   UNL     1       5.393   6.814  17.331  0.00  0.00    +0.000 A 
ATOM     28  C   UNL     1       6.477   6.524  16.493  0.00  0.00    +0.000 A 
ATOM     29  C   UNL     1       6.544   5.308  15.805  0.00  0.00    +0.000 A 
ATOM     30  C   UNL     1       5.460   4.426  15.884  0.00  0.00    +0.000 A 
ATOM     31  C   UNL     1       4.375   4.700  16.717  0.00  0.00    +0.000 A 
BRANCH  29  32
ATOM     32  N   UNL     1       7.566   5.082  14.877  0.00  0.00    +0.000 N 
ATOM     33  H   UNL     1       7.284   4.505  14.089  0.00  0.00    +0.000 HD
ATOM     34  H   UNL     1       8.044   5.926  14.577  0.00  0.00    +0.000 HD
ENDBRANCH  29  32
ENDBRANCH  23  26
ENDBRANCH  22  23
ENDBRANCH   6  22
TORSDOF 7
ENDMDL
MODEL 7
REMARK VINA RESULT:      -7.7      4.685     10.401
REMARK  Name = 
REMARK  8 active torsions:
REMARK  status: ('A' for Active; 'I' for Inactive)
REMARK    1  A    between atoms: C_1  and  C_2
REMARK    2  A    between atoms: C_4  and  O_5
REMARK    3  A    between atoms: O_5  and  C_6
REMARK    4  A    between atoms: C_6  and  C_7
REMARK    5  A    between atoms: C_17  and  O_18
REMARK    6  A    between atoms: O_18  and  S_19
REMARK    7  A    between atoms: S_19  and  C_22
REMARK    8  A    between atoms: C_25  and  N_26
REMARK                            x       y       z     vdW  Elec       q    Type
REMARK                         _______ _______ _______ _____ _____    ______ ____
ROOT
ATOM      1  C   UNL     1      -2.029  11.037  17.398  0.00  0.00    +0.000 C 
ATOM      2  C   UNL     1      -1.190  10.746  18.604  0.00  0.00    +0.000 A 
ATOM      3  C   UNL     1      -0.067   9.923  18.513  0.00  0.00    +0.000 A 
ATOM      4  C   UNL     1       0.728   9.658  19.631  0.00  0.00    +0.000 A 
ATOM      5  C   UNL     1       0.391  10.200  20.867  0.00  0.00    +0.000 A 
ATOM      6  C   UNL     1      -0.742  11.021  20.974  0.00  0.00    +0.000 A 
ATOM      7  C   UNL     1      -1.509  11.313  19.842  0.00  0.00    +0.000 A 
ENDROOT
BRANCH   4   8
ATOM      8  O   UNL     1       1.838   8.933  19.341  0.00  0.00    +0.000 OA
BRANCH   8   9
ATOM      9  C   UNL     1       2.206   8.699  17.981  0.00  0.00    +0.000 C 
BRANCH   9  10
ATOM     10  C   UNL     1       2.645   7.229  17.953  0.00  0.00    +0.000 C 
ATOM     11  C   UNL     1       4.039   7.053  17.320  0.00  0.00    +0.000 C 
ATOM     12  C   UNL     1       4.364   5.567  17.182  0.00  0.00    +0.000 C 
ATOM     13  N   UNL     1       4.277   4.918  18.501  0.00  0.00    +0.000 N 
ATOM     14  C   UNL     1       5.171   3.959  18.878  0.00  0.00    +0.000 C 
ATOM     15  N   UNL     1       4.949   2.906  19.582  0.00  0.00    +0.000 NA
ATOM     16  N   UNL     1       6.446   4.195  18.510  0.00  0.00    +0.000 N 
ATOM     17  C   UNL     1       2.966   5.057  19.144  0.00  0.00    +0.000 C 
ATOM     18  C   UNL     1       2.642   6.547  19.322  0.00  0.00    +0.000 C 
ATOM     19  H   UNL     1       3.953   2.828  19.778  0.00  0.00    +0.000 HD
ATOM     20  H   UNL     1       6.714   5.159  18.655  0.00  0.00    +0.000 HD
ATOM     21  H   UNL     1       7.059   3.561  19.009  0.00  0.00    +0.000 HD
ENDBRANCH   9  10
ENDBRANCH   8   9
ENDBRANCH   4   8
BRANCH   6  22
ATOM     22  O   UNL     1      -1.009  11.523  22.228  0.00  0.00    +0.000 OA
BRANCH  22  23
ATOM     23  S   UNL     1      -1.430  13.089  22.447  0.00  0.00    +0.000 S 
ATOM     24  O   UNL     1      -0.753  13.587  23.630  0.00  0.00    +0.000 OA
ATOM     25  O   UNL     1      -1.343  13.800  21.184  0.00  0.00    +0.000 OA
BRANCH  23  26
ATOM     26  C   UNL     1      -3.168  13.000  22.827  0.00  0.00    +0.000 A 
ATOM     27  C   UNL     1      -4.118  13.244  21.840  0.00  0.00    +0.000 A 
ATOM     28  C   UNL     1      -5.476  13.150  22.167  0.00  0.00    +0.000 A 
ATOM     29  C   UNL     1      -5.879  12.775  23.453  0.00  0.00    +0.000 A 
ATOM     30  C   UNL     1      -4.904  12.594  24.441  0.00  0.00    +0.000 A 
ATOM     31  C   UNL     1      -3.547  12.681  24.129  0.00  0.00    +0.000 A 
BRANCH  29  32
ATOM     32  N   UNL     1      -7.233  12.807  23.802  0.00  0.00    +0.000 N 
ATOM     33  H   UNL     1      -7.559  11.960  24.259  0.00  0.00    +0.000 HD
ATOM     34  H   UNL     1      -7.507  13.642  24.312  0.00  0.00    +0.000 HD
ENDBRANCH  29  32
ENDBRANCH  23  26
ENDBRANCH  22  23
ENDBRANCH   6  22
TORSDOF 7
ENDMDL
MODEL 8
REMARK VINA RESULT:      -7.6      1.209      1.916
REMARK  Name = 
REMARK  8 active torsions:
REMARK  status: ('A' for Active; 'I' for Inactive)
REMARK    1  A    between atoms: C_1  and  C_2
REMARK    2  A    between atoms: C_4  and  O_5
REMARK    3  A    between atoms: O_5  and  C_6
REMARK    4  A    between atoms: C_6  and  C_7
REMARK    5  A    between atoms: C_17  and  O_18
REMARK    6  A    between atoms: O_18  and  S_19
REMARK    7  A    between atoms: S_19  and  C_22
REMARK    8  A    between atoms: C_25  and  N_26
REMARK                            x       y       z     vdW  Elec       q    Type
REMARK                         _______ _______ _______ _____ _____    ______ ____
ROOT
ATOM      1  C   UNL     1       1.489   3.133  20.935  0.00  0.00    +0.000 C 
ATOM      2  C   UNL     1       2.052   4.279  20.151  0.00  0.00    +0.000 A 
ATOM      3  C   UNL     1       1.688   5.593  20.447  0.00  0.00    +0.000 A 
ATOM      4  C   UNL     1       2.219   6.668  19.729  0.00  0.00    +0.000 A 
ATOM      5  C   UNL     1       3.108   6.435  18.685  0.00  0.00    +0.000 A 
ATOM      6  C   UNL     1       3.473   5.117  18.371  0.00  0.00    +0.000 A 
ATOM      7  C   UNL     1       2.967   4.050  19.120  0.00  0.00    +0.000 A 
ENDROOT
BRANCH   4   8
ATOM      8  O   UNL     1       1.846   7.878  20.220  0.00  0.00    +0.000 OA
BRANCH   8   9
ATOM      9  C   UNL     1       1.042   7.956  21.397  0.00  0.00    +0.000 C 
BRANCH   9  10
ATOM     10  C   UNL     1       0.089   9.129  21.129  0.00  0.00    +0.000 C 
ATOM     11  C   UNL     1       0.116  10.169  22.266  0.00  0.00    +0.000 C 
ATOM     12  C   UNL     1      -0.953  11.234  22.022  0.00  0.00    +0.000 C 
ATOM     13  N   UNL     1      -0.737  11.857  20.706  0.00  0.00    +0.000 N 
ATOM     14  C   UNL     1      -0.918  13.197  20.519  0.00  0.00    +0.000 C 
ATOM     15  N   UNL     1      -1.395  13.793  19.486  0.00  0.00    +0.000 NA
ATOM     16  N   UNL     1      -0.479  13.974  21.530  0.00  0.00    +0.000 N 
ATOM     17  C   UNL     1      -0.756  10.906  19.590  0.00  0.00    +0.000 C 
ATOM     18  C   UNL     1       0.337   9.850  19.803  0.00  0.00    +0.000 C 
ATOM     19  H   UNL     1      -1.708  13.102  18.806  0.00  0.00    +0.000 HD
ATOM     20  H   UNL     1       0.420  13.674  21.881  0.00  0.00    +0.000 HD
ATOM     21  H   UNL     1      -0.451  14.939  21.219  0.00  0.00    +0.000 HD
ENDBRANCH   9  10
ENDBRANCH   8   9
ENDBRANCH   4   8
BRANCH   6  22
ATOM     22  O   UNL     1       4.359   4.966  17.328  0.00  0.00    +0.000 OA
BRANCH  22  23
ATOM     23  S   UNL     1       5.914   4.528  17.588  0.00  0.00    +0.000 S 
ATOM     24  O   UNL     1       5.991   3.834  18.860  0.00  0.00    +0.000 OA
ATOM     25  O   UNL     1       6.462   3.936  16.381  0.00  0.00    +0.000 OA
BRANCH  23  26
ATOM     26  C   UNL     1       6.754   6.087  17.781  0.00  0.00    +0.000 A 
ATOM     27  C   UNL     1       6.383   7.187  17.013  0.00  0.00    +0.000 A 
ATOM     28  C   UNL     1       7.052   8.403  17.200  0.00  0.00    +0.000 A 
ATOM     29  C   UNL     1       8.049   8.529  18.172  0.00  0.00    +0.000 A 
ATOM     30  C   UNL     1       8.442   7.392  18.889  0.00  0.00    +0.000 A 
ATOM     31  C   UNL     1       7.783   6.175  18.716  0.00  0.00    +0.000 A 
BRANCH  29  32
ATOM     32  N   UNL     1       8.795   9.708  18.264  0.00  0.00    +0.000 N 
ATOM     33  H   UNL     1       8.278  10.492  18.653  0.00  0.00    +0.000 HD
ATOM     34  H   UNL     1       9.699   9.590  18.713  0.00  0.00    +0.000 HD
ENDBRANCH  29  32
ENDBRANCH  23  26
ENDBRANCH  22  23
ENDBRANCH   6  22
TORSDOF 7
ENDMDL
MODEL 9
REMARK VINA RESULT:      -7.6      0.953      1.783
REMARK  Name = 
REMARK  8 active torsions:
REMARK  status: ('A' for Active; 'I' for Inactive)
REMARK    1  A    between atoms: C_1  and  C_2
REMARK    2  A    between atoms: C_4  and  O_5
REMARK    3  A    between atoms: O_5  and  C_6
REMARK    4  A    between atoms: C_6  and  C_7
REMARK    5  A    between atoms: C_17  and  O_18
REMARK    6  A    between atoms: O_18  and  S_19
REMARK    7  A    between atoms: S_19  and  C_22
REMARK    8  A    between atoms: C_25  and  N_26
REMARK                            x       y       z     vdW  Elec       q    Type
REMARK                         _______ _______ _______ _____ _____    ______ ____
ROOT
ATOM      1  C   UNL     1       1.486   2.958  21.725  0.00  0.00    +0.000 C 
ATOM      2  C   UNL     1       2.235   3.830  20.764  0.00  0.00    +0.000 A 
ATOM      3  C   UNL     1       1.897   5.174  20.604  0.00  0.00    +0.000 A 
ATOM      4  C   UNL     1       2.599   5.997  19.720  0.00  0.00    +0.000 A 
ATOM      5  C   UNL     1       3.642   5.472  18.963  0.00  0.00    +0.000 A 
ATOM      6  C   UNL     1       3.985   4.119  19.106  0.00  0.00    +0.000 A 
ATOM      7  C   UNL     1       3.302   3.313  20.023  0.00  0.00    +0.000 A 
ENDROOT
BRANCH   4   8
ATOM      8  O   UNL     1       2.212   7.296  19.772  0.00  0.00    +0.000 OA
BRANCH   8   9
ATOM      9  C   UNL     1       1.528   7.794  20.922  0.00  0.00    +0.000 C 
BRANCH   9  10
ATOM     10  C   UNL     1       0.583   8.869  20.368  0.00  0.00    +0.000 C 
ATOM     11  C   UNL     1       0.474  10.085  21.308  0.00  0.00    +0.000 C 
ATOM     12  C   UNL     1      -0.587  11.053  20.785  0.00  0.00    +0.000 C 
ATOM     13  N   UNL     1      -0.252  11.454  19.409  0.00  0.00    +0.000 N 
ATOM     14  C   UNL     1      -0.441  12.736  18.979  0.00  0.00    +0.000 C 
ATOM     15  N   UNL     1      -0.823  13.131  17.818  0.00  0.00    +0.000 NA
ATOM     16  N   UNL     1      -0.122  13.688  19.879  0.00  0.00    +0.000 N 
ATOM     17  C   UNL     1      -0.139  10.329  18.475  0.00  0.00    +0.000 C 
ATOM     18  C   UNL     1       0.948   9.365  18.969  0.00  0.00    +0.000 C 
ATOM     19  H   UNL     1      -1.053  12.325  17.240  0.00  0.00    +0.000 HD
ATOM     20  H   UNL     1       0.743  13.485  20.361  0.00  0.00    +0.000 HD
ATOM     21  H   UNL     1      -0.083  14.587  19.412  0.00  0.00    +0.000 HD
ENDBRANCH   9  10
ENDBRANCH   8   9
ENDBRANCH   4   8
BRANCH   6  22
ATOM     22  O   UNL     1       5.029   3.673  18.327  0.00  0.00    +0.000 OA
BRANCH  22  23
ATOM     23  S   UNL     1       5.456   4.446  16.950  0.00  0.00    +0.000 S 
ATOM     24  O   UNL     1       6.279   3.552  16.157  0.00  0.00    +0.000 OA
ATOM     25  O   UNL     1       4.293   5.097  16.374  0.00  0.00    +0.000 OA
BRANCH  23  26
ATOM     26  C   UNL     1       6.506   5.765  17.526  0.00  0.00    +0.000 A 
ATOM     27  C   UNL     1       6.436   7.027  16.943  0.00  0.00    +0.000 A 
ATOM     28  C   UNL     1       7.264   8.046  17.428  0.00  0.00    +0.000 A 
ATOM     29  C   UNL     1       8.119   7.819  18.511  0.00  0.00    +0.000 A 
ATOM     30  C   UNL     1       8.212   6.526  19.039  0.00  0.00    +0.000 A 
ATOM     31  C   UNL     1       7.392   5.501  18.568  0.00  0.00    +0.000 A 
BRANCH  29  32
ATOM     32  N   UNL     1       9.030   8.805  18.906  0.00  0.00    +0.000 N 
ATOM     33  H   UNL     1       8.732   9.751  18.684  0.00  0.00    +0.000 HD
ATOM     34  H   UNL     1       9.335   8.720  19.871  0.00  0.00    +0.000 HD
ENDBRANCH  29  32
ENDBRANCH  23  26
ENDBRANCH  22  23
ENDBRANCH   6  22
TORSDOF 7
ENDMDL
