MODEL 1
REMARK VINA RESULT:      -6.9      0.000      0.000
REMARK  Name = 
REMARK  11 active torsions:
REMARK  status: ('A' for Active; 'I' for Inactive)
REMARK    1  A    between atoms: C_1  and  O_2
REMARK    2  A    between atoms: O_2  and  C_3
REMARK    3  A    between atoms: C_5  and  C_6
REMARK    4  A    between atoms: C_7  and  C_8
REMARK    5  A    between atoms: C_11  and  O_12
REMARK    6  A    between atoms: O_12  and  C_13
REMARK    7  A    between atoms: C_13  and  C_14
REMARK    8  A    between atoms: C_19  and  O_20
REMARK    9  A    between atoms: O_20  and  C_21
REMARK   10  A    between atoms: C_22  and  O_23
REMARK   11  A    between atoms: O_23  and  C_24
REMARK                            x       y       z     vdW  Elec       q    Type
REMARK                         _______ _______ _______ _____ _____    ______ ____
ROOT
ATOM      1  C   UNL     1       6.090   5.294  15.901  0.00  0.00    +0.000 A 
ATOM      2  C   UNL     1       5.164   4.275  16.180  0.00  0.00    +0.000 A 
ATOM      3  C   UNL     1       4.877   3.916  17.491  0.00  0.00    +0.000 A 
ATOM      4  C   UNL     1       5.603   4.504  18.527  0.00  0.00    +0.000 A 
ATOM      5  C   UNL     1       6.584   5.477  18.273  0.00  0.00    +0.000 A 
ATOM      6  C   UNL     1       6.833   5.895  16.945  0.00  0.00    +0.000 A 
ENDROOT
BRANCH   1   8
ATOM      7  C   UNL     1       7.065   4.792  13.795  0.00  0.00    +0.000 C 
ATOM      8  O   UNL     1       6.301   5.687  14.603  0.00  0.00    +0.000 OA
ENDBRANCH   1   8
BRANCH   3   9
ATOM      9  C   UNL     1       3.693   3.107  17.777  0.00  0.00    +0.000 C 
ATOM     10  C   UNL     1       2.561   3.425  18.418  0.00  0.00    +0.000 C 
BRANCH  10  11
ATOM     11  C   UNL     1       2.124   4.708  18.964  0.00  0.00    +0.000 A 
ATOM     12  C   UNL     1       1.697   4.782  20.293  0.00  0.00    +0.000 A 
ATOM     13  C   UNL     1       1.507   6.025  20.899  0.00  0.00    +0.000 A 
ATOM     14  C   UNL     1       1.748   7.195  20.175  0.00  0.00    +0.000 A 
ATOM     15  C   UNL     1       2.101   7.135  18.831  0.00  0.00    +0.000 A 
ATOM     16  C   UNL     1       2.302   5.887  18.228  0.00  0.00    +0.000 A 
BRANCH  14  17
ATOM     17  O   UNL     1       1.586   8.396  20.896  0.00  0.00    +0.000 OA
BRANCH  17  18
ATOM     18  C   UNL     1       0.330   8.957  21.136  0.00  0.00    +0.000 C 
ATOM     19  C   UNL     1       0.011   9.926  20.033  0.00  0.00    +0.000 C 
ATOM     20  O   UNL     1      -0.444   8.676  22.039  0.00  0.00    +0.000 OA
ENDBRANCH  17  18
ENDBRANCH  14  17
ENDBRANCH  10  11
ENDBRANCH   3   9
BRANCH   5  21
ATOM     21  O   UNL     1       7.148   5.930  19.440  0.00  0.00    +0.000 OA
ATOM     22  C   UNL     1       8.245   5.237  20.012  0.00  0.00    +0.000 C 
ENDBRANCH   5  21
BRANCH   6  23
ATOM     23  O   UNL     1       7.819   6.834  16.767  0.00  0.00    +0.000 OA
ATOM     24  C   UNL     1       7.713   8.097  17.409  0.00  0.00    +0.000 C 
ENDBRANCH   6  23
TORSDOF 7
ENDMDL
MODEL 2
REMARK VINA RESULT:      -6.8      4.159      7.996
REMARK  Name = 
REMARK  11 active torsions:
REMARK  status: ('A' for Active; 'I' for Inactive)
REMARK    1  A    between atoms: C_1  and  O_2
REMARK    2  A    between atoms: O_2  and  C_3
REMARK    3  A    between atoms: C_5  and  C_6
REMARK    4  A    between atoms: C_7  and  C_8
REMARK    5  A    between atoms: C_11  and  O_12
REMARK    6  A    between atoms: O_12  and  C_13
REMARK    7  A    between atoms: C_13  and  C_14
REMARK    8  A    between atoms: C_19  and  O_20
REMARK    9  A    between atoms: O_20  and  C_21
REMARK   10  A    between atoms: C_22  and  O_23
REMARK   11  A    between atoms: O_23  and  C_24
REMARK                            x       y       z     vdW  Elec       q    Type
REMARK                         _______ _______ _______ _____ _____    ______ ____
ROOT
ATOM      1  C   UNL     1       0.142  10.601  20.759  0.00  0.00    +0.000 A 
ATOM      2  C   UNL     1       1.118   9.889  20.041  0.00  0.00    +0.000 A 
ATOM      3  C   UNL     1       0.988   9.691  18.672  0.00  0.00    +0.000 A 
ATOM      4  C   UNL     1      -0.179  10.112  18.036  0.00  0.00    +0.000 A 
ATOM      5  C   UNL     1      -1.202  10.766  18.742  0.00  0.00    +0.000 A 
ATOM      6  C   UNL     1      -1.047  11.031  20.123  0.00  0.00    +0.000 A 
ENDROOT
BRANCH   1   8
ATOM      7  C   UNL     1      -0.130   9.842  22.993  0.00  0.00    +0.000 C 
ATOM      8  O   UNL     1       0.328  10.854  22.096  0.00  0.00    +0.000 OA
ENDBRANCH   1   8
BRANCH   3   9
ATOM      9  C   UNL     1       2.145   9.251  17.893  0.00  0.00    +0.000 C 
ATOM     10  C   UNL     1       2.791   8.079  17.888  0.00  0.00    +0.000 C 
BRANCH  10  11
ATOM     11  C   UNL     1       2.490   6.842  18.608  0.00  0.00    +0.000 A 
ATOM     12  C   UNL     1       2.245   6.889  19.984  0.00  0.00    +0.000 A 
ATOM     13  C   UNL     1       1.725   5.772  20.641  0.00  0.00    +0.000 A 
ATOM     14  C   UNL     1       1.446   4.609  19.918  0.00  0.00    +0.000 A 
ATOM     15  C   UNL     1       1.755   4.526  18.564  0.00  0.00    +0.000 A 
ATOM     16  C   UNL     1       2.266   5.652  17.906  0.00  0.00    +0.000 A 
BRANCH  14  17
ATOM     17  O   UNL     1       0.867   3.560  20.661  0.00  0.00    +0.000 OA
BRANCH  17  18
ATOM     18  C   UNL     1       1.624   2.723  21.483  0.00  0.00    +0.000 C 
ATOM     19  C   UNL     1       3.013   2.616  20.920  0.00  0.00    +0.000 C 
ATOM     20  O   UNL     1       1.275   2.206  22.534  0.00  0.00    +0.000 OA
ENDBRANCH  17  18
ENDBRANCH  14  17
ENDBRANCH  10  11
ENDBRANCH   3   9
BRANCH   5  21
ATOM     21  O   UNL     1      -2.239  11.108  17.910  0.00  0.00    +0.000 OA
ATOM     22  C   UNL     1      -2.909  10.106  17.164  0.00  0.00    +0.000 C 
ENDBRANCH   5  21
BRANCH   6  23
ATOM     23  O   UNL     1      -2.093  11.656  20.754  0.00  0.00    +0.000 OA
ATOM     24  C   UNL     1      -1.990  13.030  21.099  0.00  0.00    +0.000 C 
ENDBRANCH   6  23
TORSDOF 7
ENDMDL
MODEL 3
REMARK VINA RESULT:      -6.7      2.748      7.485
REMARK  Name = 
REMARK  11 active torsions:
REMARK  status: ('A' for Active; 'I' for Inactive)
REMARK    1  A    between atoms: C_1  and  O_2
REMARK    2  A    between atoms: O_2  and  C_3
REMARK    3  A    between atoms: C_5  and  C_6
REMARK    4  A    between atoms: C_7  and  C_8
REMARK    5  A    between atoms: C_11  and  O_12
REMARK    6  A    between atoms: O_12  and  C_13
REMARK    7  A    between atoms: C_13  and  C_14
REMARK    8  A    between atoms: C_19  and  O_20
REMARK    9  A    between atoms: O_20  and  C_21
REMARK   10  A    between atoms: C_22  and  O_23
REMARK   11  A    between atoms: O_23  and  C_24
REMARK                            x       y       z     vdW  Elec       q    Type
REMARK                         _______ _______ _______ _____ _____    ______ ____
ROOT
ATOM      1  C   UNL     1       3.195   5.721  18.429  0.00  0.00    +0.000 A 
ATOM      2  C   UNL     1       4.578   5.969  18.428  0.00  0.00    +0.000 A 
ATOM      3  C   UNL     1       5.480   4.958  18.735  0.00  0.00    +0.000 A 
ATOM      4  C   UNL     1       4.993   3.721  19.154  0.00  0.00    +0.000 A 
ATOM      5  C   UNL     1       3.614   3.466  19.231  0.00  0.00    +0.000 A 
ATOM      6  C   UNL     1       2.690   4.469  18.855  0.00  0.00    +0.000 A 
ENDROOT
BRANCH   1   8
ATOM      7  C   UNL     1       2.853   8.036  18.028  0.00  0.00    +0.000 C 
ATOM      8  O   UNL     1       2.324   6.710  18.047  0.00  0.00    +0.000 OA
ENDBRANCH   1   8
BRANCH   3   9
ATOM      9  C   UNL     1       6.896   5.131  18.411  0.00  0.00    +0.000 C 
ATOM     10  C   UNL     1       7.536   5.026  17.239  0.00  0.00    +0.000 C 
BRANCH  10  11
ATOM     11  C   UNL     1       7.001   4.785  15.900  0.00  0.00    +0.000 A 
ATOM     12  C   UNL     1       7.535   5.478  14.810  0.00  0.00    +0.000 A 
ATOM     13  C   UNL     1       7.210   5.092  13.508  0.00  0.00    +0.000 A 
ATOM     14  C   UNL     1       6.353   4.009  13.298  0.00  0.00    +0.000 A 
ATOM     15  C   UNL     1       5.757   3.360  14.374  0.00  0.00    +0.000 A 
ATOM     16  C   UNL     1       6.093   3.742  15.679  0.00  0.00    +0.000 A 
BRANCH  14  17
ATOM     17  O   UNL     1       6.136   3.662  11.949  0.00  0.00    +0.000 OA
BRANCH  17  18
ATOM     18  C   UNL     1       5.350   2.569  11.578  0.00  0.00    +0.000 C 
ATOM     19  C   UNL     1       3.988   3.063  11.182  0.00  0.00    +0.000 C 
ATOM     20  O   UNL     1       5.699   1.400  11.502  0.00  0.00    +0.000 OA
ENDBRANCH  17  18
ENDBRANCH  14  17
ENDBRANCH  10  11
ENDBRANCH   3   9
BRANCH   5  21
ATOM     21  O   UNL     1       3.370   2.179  19.642  0.00  0.00    +0.000 OA
ATOM     22  C   UNL     1       2.950   1.203  18.704  0.00  0.00    +0.000 C 
ENDBRANCH   5  21
BRANCH   6  23
ATOM     23  O   UNL     1       1.358   4.159  18.974  0.00  0.00    +0.000 OA
ATOM     24  C   UNL     1       0.777   4.026  20.264  0.00  0.00    +0.000 C 
ENDBRANCH   6  23
TORSDOF 7
ENDMDL
MODEL 4
REMARK VINA RESULT:      -6.6      2.178      4.313
REMARK  Name = 
REMARK  11 active torsions:
REMARK  status: ('A' for Active; 'I' for Inactive)
REMARK    1  A    between atoms: C_1  and  O_2
REMARK    2  A    between atoms: O_2  and  C_3
REMARK    3  A    between atoms: C_5  and  C_6
REMARK    4  A    between atoms: C_7  and  C_8
REMARK    5  A    between atoms: C_11  and  O_12
REMARK    6  A    between atoms: O_12  and  C_13
REMARK    7  A    between atoms: C_13  and  C_14
REMARK    8  A    between atoms: C_19  and  O_20
REMARK    9  A    between atoms: O_20  and  C_21
REMARK   10  A    between atoms: C_22  and  O_23
REMARK   11  A    between atoms: O_23  and  C_24
REMARK                            x       y       z     vdW  Elec       q    Type
REMARK                         _______ _______ _______ _____ _____    ______ ____
ROOT
ATOM      1  C   UNL     1       5.386   4.798  18.937  0.00  0.00    +0.000 A 
ATOM      2  C   UNL     1       5.096   5.875  18.082  0.00  0.00    +0.000 A 
ATOM      3  C   UNL     1       3.820   6.044  17.561  0.00  0.00    +0.000 A 
ATOM      4  C   UNL     1       2.855   5.067  17.807  0.00  0.00    +0.000 A 
ATOM      5  C   UNL     1       3.136   3.944  18.602  0.00  0.00    +0.000 A 
ATOM      6  C   UNL     1       4.414   3.801  19.192  0.00  0.00    +0.000 A 
ENDROOT
BRANCH   1   8
ATOM      7  C   UNL     1       7.485   5.827  19.352  0.00  0.00    +0.000 C 
ATOM      8  O   UNL     1       6.632   4.693  19.505  0.00  0.00    +0.000 OA
ENDBRANCH   1   8
BRANCH   3   9
ATOM      9  C   UNL     1       3.449   7.323  16.957  0.00  0.00    +0.000 C 
ATOM     10  C   UNL     1       2.705   8.325  17.441  0.00  0.00    +0.000 C 
BRANCH  10  11
ATOM     11  C   UNL     1       2.097   8.486  18.760  0.00  0.00    +0.000 A 
ATOM     12  C   UNL     1       1.273   9.588  19.009  0.00  0.00    +0.000 A 
ATOM     13  C   UNL     1       0.498   9.634  20.169  0.00  0.00    +0.000 A 
ATOM     14  C   UNL     1       0.544   8.575  21.079  0.00  0.00    +0.000 A 
ATOM     15  C   UNL     1       1.415   7.509  20.879  0.00  0.00    +0.000 A 
ATOM     16  C   UNL     1       2.184   7.459  19.709  0.00  0.00    +0.000 A 
BRANCH  14  17
ATOM     17  O   UNL     1      -0.321   8.690  22.186  0.00  0.00    +0.000 OA
BRANCH  17  18
ATOM     18  C   UNL     1      -0.104   9.617  23.207  0.00  0.00    +0.000 C 
ATOM     19  C   UNL     1      -1.165  10.678  23.134  0.00  0.00    +0.000 C 
ATOM     20  O   UNL     1       0.750   9.568  24.081  0.00  0.00    +0.000 OA
ENDBRANCH  17  18
ENDBRANCH  14  17
ENDBRANCH  10  11
ENDBRANCH   3   9
BRANCH   5  21
ATOM     21  O   UNL     1       2.034   3.135  18.725  0.00  0.00    +0.000 OA
ATOM     22  C   UNL     1       0.895   3.593  19.434  0.00  0.00    +0.000 C 
ENDBRANCH   5  21
BRANCH   6  23
ATOM     23  O   UNL     1       4.627   2.670  19.940  0.00  0.00    +0.000 OA
ATOM     24  C   UNL     1       3.813   2.413  21.076  0.00  0.00    +0.000 C 
ENDBRANCH   6  23
TORSDOF 7
ENDMDL
MODEL 5
REMARK VINA RESULT:      -6.4      1.673      6.776
REMARK  Name = 
REMARK  11 active torsions:
REMARK  status: ('A' for Active; 'I' for Inactive)
REMARK    1  A    between atoms: C_1  and  O_2
REMARK    2  A    between atoms: O_2  and  C_3
REMARK    3  A    between atoms: C_5  and  C_6
REMARK    4  A    between atoms: C_7  and  C_8
REMARK    5  A    between atoms: C_11  and  O_12
REMARK    6  A    between atoms: O_12  and  C_13
REMARK    7  A    between atoms: C_13  and  C_14
REMARK    8  A    between atoms: C_19  and  O_20
REMARK    9  A    between atoms: O_20  and  C_21
REMARK   10  A    between atoms: C_22  and  O_23
REMARK   11  A    between atoms: O_23  and  C_24
REMARK                            x       y       z     vdW  Elec       q    Type
REMARK                         _______ _______ _______ _____ _____    ______ ____
ROOT
ATOM      1  C   UNL     1       1.875   8.655  18.774  0.00  0.00    +0.000 A 
ATOM      2  C   UNL     1       2.220   7.418  19.344  0.00  0.00    +0.000 A 
ATOM      3  C   UNL     1       1.643   7.001  20.537  0.00  0.00    +0.000 A 
ATOM      4  C   UNL     1       0.798   7.875  21.221  0.00  0.00    +0.000 A 
ATOM      5  C   UNL     1       0.489   9.145  20.709  0.00  0.00    +0.000 A 
ATOM      6  C   UNL     1       1.020   9.550  19.461  0.00  0.00    +0.000 A 
ENDROOT
BRANCH   1   8
ATOM      7  C   UNL     1       3.413   8.158  17.034  0.00  0.00    +0.000 C 
ATOM      8  O   UNL     1       2.396   9.014  17.556  0.00  0.00    +0.000 OA
ENDBRANCH   1   8
BRANCH   3   9
ATOM      9  C   UNL     1       1.751   5.599  20.941  0.00  0.00    +0.000 C 
ATOM     10  C   UNL     1       2.466   4.598  20.413  0.00  0.00    +0.000 C 
BRANCH  10  11
ATOM     11  C   UNL     1       3.425   4.615  19.310  0.00  0.00    +0.000 A 
ATOM     12  C   UNL     1       4.759   4.950  19.563  0.00  0.00    +0.000 A 
ATOM     13  C   UNL     1       5.731   4.741  18.583  0.00  0.00    +0.000 A 
ATOM     14  C   UNL     1       5.367   4.192  17.350  0.00  0.00    +0.000 A 
ATOM     15  C   UNL     1       4.033   3.925  17.060  0.00  0.00    +0.000 A 
ATOM     16  C   UNL     1       3.062   4.126  18.049  0.00  0.00    +0.000 A 
BRANCH  14  17
ATOM     17  O   UNL     1       6.431   3.964  16.453  0.00  0.00    +0.000 OA
BRANCH  17  18
ATOM     18  C   UNL     1       6.821   4.912  15.504  0.00  0.00    +0.000 C 
ATOM     19  C   UNL     1       6.355   4.463  14.148  0.00  0.00    +0.000 C 
ATOM     20  O   UNL     1       7.382   5.978  15.712  0.00  0.00    +0.000 OA
ENDBRANCH  17  18
ENDBRANCH  14  17
ENDBRANCH  10  11
ENDBRANCH   3   9
BRANCH   5  21
ATOM     21  O   UNL     1      -0.376   9.817  21.536  0.00  0.00    +0.000 OA
ATOM     22  C   UNL     1      -0.183   9.784  22.940  0.00  0.00    +0.000 C 
ENDBRANCH   5  21
BRANCH   6  23
ATOM     23  O   UNL     1       0.693  10.811  19.030  0.00  0.00    +0.000 OA
ATOM     24  C   UNL     1       1.477  11.922  19.442  0.00  0.00    +0.000 C 
ENDBRANCH   6  23
TORSDOF 7
ENDMDL
MODEL 6
REMARK VINA RESULT:      -6.4      2.409      5.079
REMARK  Name = 
REMARK  11 active torsions:
REMARK  status: ('A' for Active; 'I' for Inactive)
REMARK    1  A    between atoms: C_1  and  O_2
REMARK    2  A    between atoms: O_2  and  C_3
REMARK    3  A    between atoms: C_5  and  C_6
REMARK    4  A    between atoms: C_7  and  C_8
REMARK    5  A    between atoms: C_11  and  O_12
REMARK    6  A    between atoms: O_12  and  C_13
REMARK    7  A    between atoms: C_13  and  C_14
REMARK    8  A    between atoms: C_19  and  O_20
REMARK    9  A    between atoms: O_20  and  C_21
REMARK   10  A    between atoms: C_22  and  O_23
REMARK   11  A    between atoms: O_23  and  C_24
REMARK                            x       y       z     vdW  Elec       q    Type
REMARK                         _______ _______ _______ _____ _____    ______ ____
ROOT
ATOM      1  C   UNL     1       2.851   5.586  19.787  0.00  0.00    +0.000 A 
ATOM      2  C   UNL     1       2.233   6.758  19.319  0.00  0.00    +0.000 A 
ATOM      3  C   UNL     1       2.775   7.470  18.257  0.00  0.00    +0.000 A 
ATOM      4  C   UNL     1       4.004   7.071  17.732  0.00  0.00    +0.000 A 
ATOM      5  C   UNL     1       4.679   5.943  18.227  0.00  0.00    +0.000 A 
ATOM      6  C   UNL     1       4.099   5.173  19.262  0.00  0.00    +0.000 A 
ENDROOT
BRANCH   1   8
ATOM      7  C   UNL     1       1.093   4.116  20.410  0.00  0.00    +0.000 C 
ATOM      8  O   UNL     1       2.257   4.853  20.785  0.00  0.00    +0.000 OA
ENDBRANCH   1   8
BRANCH   3   9
ATOM      9  C   UNL     1       1.964   8.477  17.573  0.00  0.00    +0.000 C 
ATOM     10  C   UNL     1       1.163   9.427  18.069  0.00  0.00    +0.000 C 
BRANCH  10  11
ATOM     11  C   UNL     1       0.910   9.805  19.459  0.00  0.00    +0.000 A 
ATOM     12  C   UNL     1       1.109  11.130  19.859  0.00  0.00    +0.000 A 
ATOM     13  C   UNL     1       0.649  11.561  21.105  0.00  0.00    +0.000 A 
ATOM     14  C   UNL     1      -0.013  10.666  21.948  0.00  0.00    +0.000 A 
ATOM     15  C   UNL     1      -0.151   9.328  21.593  0.00  0.00    +0.000 A 
ATOM     16  C   UNL     1       0.301   8.901  20.338  0.00  0.00    +0.000 A 
BRANCH  14  17
ATOM     17  O   UNL     1      -0.491  11.214  23.156  0.00  0.00    +0.000 OA
BRANCH  17  18
ATOM     18  C   UNL     1      -1.181  12.428  23.202  0.00  0.00    +0.000 C 
ATOM     19  C   UNL     1      -2.628  12.177  22.885  0.00  0.00    +0.000 C 
ATOM     20  O   UNL     1      -0.733  13.521  23.517  0.00  0.00    +0.000 OA
ENDBRANCH  17  18
ENDBRANCH  14  17
ENDBRANCH  10  11
ENDBRANCH   3   9
BRANCH   5  21
ATOM     21  O   UNL     1       5.851   5.728  17.545  0.00  0.00    +0.000 OA
ATOM     22  C   UNL     1       6.831   6.750  17.482  0.00  0.00    +0.000 C 
ENDBRANCH   5  21
BRANCH   6  23
ATOM     23  O   UNL     1       4.822   4.096  19.711  0.00  0.00    +0.000 OA
ATOM     24  C   UNL     1       4.436   2.782  19.334  0.00  0.00    +0.000 C 
ENDBRANCH   6  23
TORSDOF 7
ENDMDL
MODEL 7
REMARK VINA RESULT:      -6.4      2.370      4.314
REMARK  Name = 
REMARK  11 active torsions:
REMARK  status: ('A' for Active; 'I' for Inactive)
REMARK    1  A    between atoms: C_1  and  O_2
REMARK    2  A    between atoms: O_2  and  C_3
REMARK    3  A    between atoms: C_5  and  C_6
REMARK    4  A    between atoms: C_7  and  C_8
REMARK    5  A    between atoms: C_11  and  O_12
REMARK    6  A    between atoms: O_12  and  C_13
REMARK    7  A    between atoms: C_13  and  C_14
REMARK    8  A    between atoms: C_19  and  O_20
REMARK    9  A    between atoms: O_20  and  C_21
REMARK   10  A    between atoms: C_22  and  O_23
REMARK   11  A    between atoms: O_23  and  C_24
REMARK                            x       y       z     vdW  Elec       q    Type
REMARK                         _______ _______ _______ _____ _____    ______ ____
ROOT
ATOM      1  C   UNL     1       3.048   4.095  18.832  0.00  0.00    +0.000 A 
ATOM      2  C   UNL     1       2.718   5.369  18.339  0.00  0.00    +0.000 A 
ATOM      3  C   UNL     1       3.696   6.340  18.169  0.00  0.00    +0.000 A 
ATOM      4  C   UNL     1       4.995   6.073  18.600  0.00  0.00    +0.000 A 
ATOM      5  C   UNL     1       5.340   4.833  19.161  0.00  0.00    +0.000 A 
ATOM      6  C   UNL     1       4.364   3.815  19.274  0.00  0.00    +0.000 A 
ENDROOT
BRANCH   1   8
ATOM      7  C   UNL     1       0.887   3.491  19.608  0.00  0.00    +0.000 C 
ATOM      8  O   UNL     1       2.081   3.124  18.918  0.00  0.00    +0.000 OA
ENDBRANCH   1   8
BRANCH   3   9
ATOM      9  C   UNL     1       3.408   7.523  17.359  0.00  0.00    +0.000 C 
ATOM     10  C   UNL     1       2.518   8.506  17.547  0.00  0.00    +0.000 C 
BRANCH  10  11
ATOM     11  C   UNL     1       1.610   8.743  18.667  0.00  0.00    +0.000 A 
ATOM     12  C   UNL     1       1.930   8.240  19.931  0.00  0.00    +0.000 A 
ATOM     13  C   UNL     1       1.208   8.655  21.053  0.00  0.00    +0.000 A 
ATOM     14  C   UNL     1       0.168   9.575  20.907  0.00  0.00    +0.000 A 
ATOM     15  C   UNL     1      -0.208  10.025  19.646  0.00  0.00    +0.000 A 
ATOM     16  C   UNL     1       0.524   9.616  18.524  0.00  0.00    +0.000 A 
BRANCH  14  17
ATOM     17  O   UNL     1      -0.457   9.975  22.106  0.00  0.00    +0.000 OA
BRANCH  17  18
ATOM     18  C   UNL     1      -0.670  11.318  22.424  0.00  0.00    +0.000 C 
ATOM     19  C   UNL     1      -1.964  11.441  23.177  0.00  0.00    +0.000 C 
ATOM     20  O   UNL     1       0.084  12.256  22.209  0.00  0.00    +0.000 OA
ENDBRANCH  17  18
ENDBRANCH  14  17
ENDBRANCH  10  11
ENDBRANCH   3   9
BRANCH   5  21
ATOM     21  O   UNL     1       6.673   4.789  19.487  0.00  0.00    +0.000 OA
ATOM     22  C   UNL     1       7.539   5.830  19.070  0.00  0.00    +0.000 C 
ENDBRANCH   5  21
BRANCH   6  23
ATOM     23  O   UNL     1       4.764   2.635  19.849  0.00  0.00    +0.000 OA
ATOM     24  C   UNL     1       4.029   2.097  20.939  0.00  0.00    +0.000 C 
ENDBRANCH   6  23
TORSDOF 7
ENDMDL
MODEL 8
REMARK VINA RESULT:      -6.4      2.297      4.230
REMARK  Name = 
REMARK  11 active torsions:
REMARK  status: ('A' for Active; 'I' for Inactive)
REMARK    1  A    between atoms: C_1  and  O_2
REMARK    2  A    between atoms: O_2  and  C_3
REMARK    3  A    between atoms: C_5  and  C_6
REMARK    4  A    between atoms: C_7  and  C_8
REMARK    5  A    between atoms: C_11  and  O_12
REMARK    6  A    between atoms: O_12  and  C_13
REMARK    7  A    between atoms: C_13  and  C_14
REMARK    8  A    between atoms: C_19  and  O_20
REMARK    9  A    between atoms: O_20  and  C_21
REMARK   10  A    between atoms: C_22  and  O_23
REMARK   11  A    between atoms: O_23  and  C_24
REMARK                            x       y       z     vdW  Elec       q    Type
REMARK                         _______ _______ _______ _____ _____    ______ ____
ROOT
ATOM      1  C   UNL     1       5.593   5.024  19.116  0.00  0.00    +0.000 A 
ATOM      2  C   UNL     1       5.368   6.172  18.337  0.00  0.00    +0.000 A 
ATOM      3  C   UNL     1       4.136   6.389  17.733  0.00  0.00    +0.000 A 
ATOM      4  C   UNL     1       3.158   5.399  17.817  0.00  0.00    +0.000 A 
ATOM      5  C   UNL     1       3.379   4.211  18.532  0.00  0.00    +0.000 A 
ATOM      6  C   UNL     1       4.607   4.012  19.206  0.00  0.00    +0.000 A 
ENDROOT
BRANCH   1   8
ATOM      7  C   UNL     1       7.816   5.798  19.428  0.00  0.00    +0.000 C 
ATOM      8  O   UNL     1       6.790   4.866  19.769  0.00  0.00    +0.000 OA
ENDBRANCH   1   8
BRANCH   3   9
ATOM      9  C   UNL     1       3.810   7.718  17.214  0.00  0.00    +0.000 C 
ATOM     10  C   UNL     1       2.854   8.579  17.581  0.00  0.00    +0.000 C 
BRANCH  10  11
ATOM     11  C   UNL     1       1.885   8.492  18.672  0.00  0.00    +0.000 A 
ATOM     12  C   UNL     1       2.142   7.647  19.755  0.00  0.00    +0.000 A 
ATOM     13  C   UNL     1       1.358   7.728  20.908  0.00  0.00    +0.000 A 
ATOM     14  C   UNL     1       0.318   8.658  20.976  0.00  0.00    +0.000 A 
ATOM     15  C   UNL     1       0.005   9.452  19.878  0.00  0.00    +0.000 A 
ATOM     16  C   UNL     1       0.800   9.377  18.727  0.00  0.00    +0.000 A 
BRANCH  14  17
ATOM     17  O   UNL     1      -0.374   8.702  22.204  0.00  0.00    +0.000 OA
BRANCH  17  18
ATOM     18  C   UNL     1      -0.107   9.669  23.175  0.00  0.00    +0.000 C 
ATOM     19  C   UNL     1      -1.208  10.692  23.158  0.00  0.00    +0.000 C 
ATOM     20  O   UNL     1       0.817   9.678  23.975  0.00  0.00    +0.000 OA
ENDBRANCH  17  18
ENDBRANCH  14  17
ENDBRANCH  10  11
ENDBRANCH   3   9
BRANCH   5  21
ATOM     21  O   UNL     1       2.273   3.398  18.498  0.00  0.00    +0.000 OA
ATOM     22  C   UNL     1       2.205   2.333  17.564  0.00  0.00    +0.000 C 
ENDBRANCH   5  21
BRANCH   6  23
ATOM     23  O   UNL     1       4.763   2.820  19.869  0.00  0.00    +0.000 OA
ATOM     24  C   UNL     1       3.847   2.457  20.892  0.00  0.00    +0.000 C 
ENDBRANCH   6  23
TORSDOF 7
ENDMDL
MODEL 9
REMARK VINA RESULT:      -6.4      2.394      7.449
REMARK  Name = 
REMARK  11 active torsions:
REMARK  status: ('A' for Active; 'I' for Inactive)
REMARK    1  A    between atoms: C_1  and  O_2
REMARK    2  A    between atoms: O_2  and  C_3
REMARK    3  A    between atoms: C_5  and  C_6
REMARK    4  A    between atoms: C_7  and  C_8
REMARK    5  A    between atoms: C_11  and  O_12
REMARK    6  A    between atoms: O_12  and  C_13
REMARK    7  A    between atoms: C_13  and  C_14
REMARK    8  A    between atoms: C_19  and  O_20
REMARK    9  A    between atoms: O_20  and  C_21
REMARK   10  A    between atoms: C_22  and  O_23
REMARK   11  A    between atoms: O_23  and  C_24
REMARK                            x       y       z     vdW  Elec       q    Type
REMARK                         _______ _______ _______ _____ _____    ______ ____
ROOT
ATOM      1  C   UNL     1       3.518   3.349  19.682  0.00  0.00    +0.000 A 
ATOM      2  C   UNL     1       4.625   4.050  19.173  0.00  0.00    +0.000 A 
ATOM      3  C   UNL     1       4.674   5.437  19.229  0.00  0.00    +0.000 A 
ATOM      4  C   UNL     1       3.559   6.134  19.696  0.00  0.00    +0.000 A 
ATOM      5  C   UNL     1       2.412   5.462  20.147  0.00  0.00    +0.000 A 
ATOM      6  C   UNL     1       2.382   4.048  20.156  0.00  0.00    +0.000 A 
ENDROOT
BRANCH   1   8
ATOM      7  C   UNL     1       3.686   1.346  18.418  0.00  0.00    +0.000 C 
ATOM      8  O   UNL     1       3.524   1.976  19.689  0.00  0.00    +0.000 OA
ENDBRANCH   1   8
BRANCH   3   9
ATOM      9  C   UNL     1       5.945   6.125  19.010  0.00  0.00    +0.000 C 
ATOM     10  C   UNL     1       6.738   6.157  17.931  0.00  0.00    +0.000 C 
BRANCH  10  11
ATOM     11  C   UNL     1       6.537   5.575  16.606  0.00  0.00    +0.000 A 
ATOM     12  C   UNL     1       7.076   4.319  16.317  0.00  0.00    +0.000 A 
ATOM     13  C   UNL     1       6.698   3.645  15.153  0.00  0.00    +0.000 A 
ATOM     14  C   UNL     1       5.776   4.229  14.282  0.00  0.00    +0.000 A 
ATOM     15  C   UNL     1       5.289   5.510  14.521  0.00  0.00    +0.000 A 
ATOM     16  C   UNL     1       5.662   6.179  15.694  0.00  0.00    +0.000 A 
BRANCH  14  17
ATOM     17  O   UNL     1       5.414   3.442  13.169  0.00  0.00    +0.000 OA
BRANCH  17  18
ATOM     18  C   UNL     1       6.291   3.204  12.109  0.00  0.00    +0.000 C 
ATOM     19  C   UNL     1       5.878   1.940  11.410  0.00  0.00    +0.000 C 
ATOM     20  O   UNL     1       7.208   3.921  11.733  0.00  0.00    +0.000 OA
ENDBRANCH  17  18
ENDBRANCH  14  17
ENDBRANCH  10  11
ENDBRANCH   3   9
BRANCH   5  21
ATOM     21  O   UNL     1       1.456   6.348  20.581  0.00  0.00    +0.000 OA
ATOM     22  C   UNL     1       1.770   7.725  20.702  0.00  0.00    +0.000 C 
ENDBRANCH   5  21
BRANCH   6  23
ATOM     23  O   UNL     1       1.221   3.456  20.590  0.00  0.00    +0.000 OA
ATOM     24  C   UNL     1       1.216   2.726  21.809  0.00  0.00    +0.000 C 
ENDBRANCH   6  23
TORSDOF 7
ENDMDL
