MODEL 1
REMARK VINA RESULT:      -6.6      0.000      0.000
REMARK  Name = 
REMARK  4 active torsions:
REMARK  status: ('A' for Active; 'I' for Inactive)
REMARK    1  A    between atoms: C_1  and  C_2
REMARK    2  A    between atoms: C_2  and  C_3
REMARK    3  A    between atoms: C_2  and  N_4
REMARK    4  A    between atoms: C_9  and  C_10
REMARK                            x       y       z     vdW  Elec       q    Type
REMARK                         _______ _______ _______ _____ _____    ______ ____
ROOT
ATOM      1  N   UNL     1       1.847   4.802  20.515  0.00  0.00    +0.000 N 
ATOM      2  C   UNL     1       2.503   5.587  19.552  0.00  0.00    +0.000 A 
ATOM      3  C   UNL     1       2.040   6.875  19.382  0.00  0.00    +0.000 A 
ATOM      4  C   UNL     1       2.675   7.639  18.438  0.00  0.00    +0.000 A 
ATOM      5  N   UNL     1       3.737   7.208  17.742  0.00  0.00    +0.000 NA
ATOM      6  C   UNL     1       4.156   5.953  17.995  0.00  0.00    +0.000 A 
ATOM      7  N   UNL     1       3.561   5.113  18.873  0.00  0.00    +0.000 NA
ATOM      8  H   UNL     1       2.155   5.128  21.430  0.00  0.00    +0.000 HD
ENDROOT
BRANCH   6   9
ATOM      9  C   UNL     1       5.373   5.498  17.300  0.00  0.00    +0.000 A 
ATOM     10  C   UNL     1       6.476   5.003  18.014  0.00  0.00    +0.000 A 
ATOM     11  C   UNL     1       7.598   4.568  17.329  0.00  0.00    +0.000 A 
ATOM     12  N   UNL     1       7.707   4.583  15.986  0.00  0.00    +0.000 NA
ATOM     13  C   UNL     1       6.646   5.058  15.304  0.00  0.00    +0.000 A 
ATOM     14  C   UNL     1       5.481   5.516  15.903  0.00  0.00    +0.000 A 
ENDBRANCH   6   9
BRANCH   1  16
ATOM     15  C   UNL     1       1.693   2.741  21.771  0.00  0.00    +0.000 C 
ATOM     16  C   UNL     1       1.937   3.347  20.385  0.00  0.00    +0.000 C 
ATOM     17  C   UNL     1       0.862   2.838  19.420  0.00  0.00    +0.000 C 
ENDBRANCH   1  16
TORSDOF 2
ENDMDL
MODEL 2
REMARK VINA RESULT:      -6.6      0.051      1.171
REMARK  Name = 
REMARK  4 active torsions:
REMARK  status: ('A' for Active; 'I' for Inactive)
REMARK    1  A    between atoms: C_1  and  C_2
REMARK    2  A    between atoms: C_2  and  C_3
REMARK    3  A    between atoms: C_2  and  N_4
REMARK    4  A    between atoms: C_9  and  C_10
REMARK                            x       y       z     vdW  Elec       q    Type
REMARK                         _______ _______ _______ _____ _____    ______ ____
ROOT
ATOM      1  N   UNL     1       1.857   4.825  20.534  0.00  0.00    +0.000 N 
ATOM      2  C   UNL     1       2.514   5.595  19.559  0.00  0.00    +0.000 A 
ATOM      3  C   UNL     1       2.064   6.887  19.384  0.00  0.00    +0.000 A 
ATOM      4  C   UNL     1       2.700   7.637  18.429  0.00  0.00    +0.000 A 
ATOM      5  N   UNL     1       3.752   7.189  17.728  0.00  0.00    +0.000 NA
ATOM      6  C   UNL     1       4.158   5.931  17.988  0.00  0.00    +0.000 A 
ATOM      7  N   UNL     1       3.562   5.104  18.876  0.00  0.00    +0.000 NA
ATOM      8  H   UNL     1       2.176   5.154  21.444  0.00  0.00    +0.000 HD
ENDROOT
BRANCH   6   9
ATOM      9  C   UNL     1       5.366   5.458  17.286  0.00  0.00    +0.000 A 
ATOM     10  C   UNL     1       5.442   5.470  15.884  0.00  0.00    +0.000 A 
ATOM     11  C   UNL     1       6.597   5.035  15.256  0.00  0.00    +0.000 A 
ATOM     12  N   UNL     1       7.685   4.591  15.916  0.00  0.00    +0.000 NA
ATOM     13  C   UNL     1       7.607   4.581  17.261  0.00  0.00    +0.000 A 
ATOM     14  C   UNL     1       6.494   4.998  17.977  0.00  0.00    +0.000 A 
ENDBRANCH   6   9
BRANCH   1  16
ATOM     15  C   UNL     1       1.732   2.776  21.814  0.00  0.00    +0.000 C 
ATOM     16  C   UNL     1       1.930   3.368  20.413  0.00  0.00    +0.000 C 
ATOM     17  C   UNL     1       0.816   2.860  19.494  0.00  0.00    +0.000 C 
ENDBRANCH   1  16
TORSDOF 2
ENDMDL
MODEL 3
REMARK VINA RESULT:      -6.5      2.504      3.843
REMARK  Name = 
REMARK  4 active torsions:
REMARK  status: ('A' for Active; 'I' for Inactive)
REMARK    1  A    between atoms: C_1  and  C_2
REMARK    2  A    between atoms: C_2  and  C_3
REMARK    3  A    between atoms: C_2  and  N_4
REMARK    4  A    between atoms: C_9  and  C_10
REMARK                            x       y       z     vdW  Elec       q    Type
REMARK                         _______ _______ _______ _____ _____    ______ ____
ROOT
ATOM      1  N   UNL     1       5.608   4.034  19.235  0.00  0.00    +0.000 N 
ATOM      2  C   UNL     1       6.210   4.798  18.222  0.00  0.00    +0.000 A 
ATOM      3  C   UNL     1       6.931   5.903  18.624  0.00  0.00    +0.000 A 
ATOM      4  C   UNL     1       7.514   6.652  17.635  0.00  0.00    +0.000 A 
ATOM      5  N   UNL     1       7.460   6.319  16.337  0.00  0.00    +0.000 NA
ATOM      6  C   UNL     1       6.774   5.202  16.029  0.00  0.00    +0.000 A 
ATOM      7  N   UNL     1       6.127   4.430  16.933  0.00  0.00    +0.000 NA
ATOM      8  H   UNL     1       6.346   3.498  19.689  0.00  0.00    +0.000 HD
ENDROOT
BRANCH   6   9
ATOM      9  C   UNL     1       6.780   4.779  14.617  0.00  0.00    +0.000 A 
ATOM     10  C   UNL     1       7.682   5.336  13.696  0.00  0.00    +0.000 A 
ATOM     11  C   UNL     1       7.673   4.903  12.380  0.00  0.00    +0.000 A 
ATOM     12  N   UNL     1       6.837   3.957  11.910  0.00  0.00    +0.000 NA
ATOM     13  C   UNL     1       5.974   3.425  12.797  0.00  0.00    +0.000 A 
ATOM     14  C   UNL     1       5.909   3.794  14.134  0.00  0.00    +0.000 A 
ENDBRANCH   6   9
BRANCH   1  16
ATOM     15  C   UNL     1       4.330   2.101  19.929  0.00  0.00    +0.000 C 
ATOM     16  C   UNL     1       4.461   3.201  18.870  0.00  0.00    +0.000 C 
ATOM     17  C   UNL     1       3.181   4.042  18.862  0.00  0.00    +0.000 C 
ENDBRANCH   1  16
TORSDOF 2
ENDMDL
MODEL 4
REMARK VINA RESULT:      -6.5      2.357      5.898
REMARK  Name = 
REMARK  4 active torsions:
REMARK  status: ('A' for Active; 'I' for Inactive)
REMARK    1  A    between atoms: C_1  and  C_2
REMARK    2  A    between atoms: C_2  and  C_3
REMARK    3  A    between atoms: C_2  and  N_4
REMARK    4  A    between atoms: C_9  and  C_10
REMARK                            x       y       z     vdW  Elec       q    Type
REMARK                         _______ _______ _______ _____ _____    ______ ____
ROOT
ATOM      1  N   UNL     1       7.663   6.220  16.665  0.00  0.00    +0.000 N 
ATOM      2  C   UNL     1       6.625   5.415  16.168  0.00  0.00    +0.000 A 
ATOM      3  C   UNL     1       6.716   5.033  14.845  0.00  0.00    +0.000 A 
ATOM      4  C   UNL     1       5.699   4.254  14.358  0.00  0.00    +0.000 A 
ATOM      5  N   UNL     1       4.687   3.812  15.119  0.00  0.00    +0.000 NA
ATOM      6  C   UNL     1       4.692   4.193  16.410  0.00  0.00    +0.000 A 
ATOM      7  N   UNL     1       5.626   5.000  16.965  0.00  0.00    +0.000 NA
ATOM      8  H   UNL     1       8.473   5.618  16.802  0.00  0.00    +0.000 HD
ENDROOT
BRANCH   6   9
ATOM      9  C   UNL     1       3.632   3.645  17.276  0.00  0.00    +0.000 A 
ATOM     10  C   UNL     1       2.486   4.395  17.584  0.00  0.00    +0.000 A 
ATOM     11  C   UNL     1       1.500   3.844  18.386  0.00  0.00    +0.000 A 
ATOM     12  N   UNL     1       1.565   2.602  18.903  0.00  0.00    +0.000 NA
ATOM     13  C   UNL     1       2.666   1.885  18.604  0.00  0.00    +0.000 A 
ATOM     14  C   UNL     1       3.704   2.352  17.810  0.00  0.00    +0.000 A 
ENDBRANCH   6   9
BRANCH   1  16
ATOM     15  C   UNL     1       8.024   6.365  19.052  0.00  0.00    +0.000 C 
ATOM     16  C   UNL     1       7.381   7.047  17.840  0.00  0.00    +0.000 C 
ATOM     17  C   UNL     1       7.997   8.438  17.663  0.00  0.00    +0.000 C 
ENDBRANCH   1  16
TORSDOF 2
ENDMDL
MODEL 5
REMARK VINA RESULT:      -6.5      2.553      5.789
REMARK  Name = 
REMARK  4 active torsions:
REMARK  status: ('A' for Active; 'I' for Inactive)
REMARK    1  A    between atoms: C_1  and  C_2
REMARK    2  A    between atoms: C_2  and  C_3
REMARK    3  A    between atoms: C_2  and  N_4
REMARK    4  A    between atoms: C_9  and  C_10
REMARK                            x       y       z     vdW  Elec       q    Type
REMARK                         _______ _______ _______ _____ _____    ______ ____
ROOT
ATOM      1  N   UNL     1       7.621   6.386  16.626  0.00  0.00    +0.000 N 
ATOM      2  C   UNL     1       6.610   5.491  16.238  0.00  0.00    +0.000 A 
ATOM      3  C   UNL     1       6.586   5.121  14.909  0.00  0.00    +0.000 A 
ATOM      4  C   UNL     1       5.596   4.253  14.529  0.00  0.00    +0.000 A 
ATOM      5  N   UNL     1       4.719   3.721  15.393  0.00  0.00    +0.000 NA
ATOM      6  C   UNL     1       4.834   4.098  16.680  0.00  0.00    +0.000 A 
ATOM      7  N   UNL     1       5.748   4.985  17.136  0.00  0.00    +0.000 NA
ATOM      8  H   UNL     1       8.492   5.859  16.665  0.00  0.00    +0.000 HD
ENDROOT
BRANCH   6   9
ATOM      9  C   UNL     1       3.931   3.455  17.652  0.00  0.00    +0.000 A 
ATOM     10  C   UNL     1       4.346   3.195  18.968  0.00  0.00    +0.000 A 
ATOM     11  C   UNL     1       3.467   2.606  19.861  0.00  0.00    +0.000 A 
ATOM     12  N   UNL     1       2.204   2.257  19.547  0.00  0.00    +0.000 NA
ATOM     13  C   UNL     1       1.810   2.509  18.283  0.00  0.00    +0.000 A 
ATOM     14  C   UNL     1       2.619   3.095  17.320  0.00  0.00    +0.000 A 
ENDBRANCH   6   9
BRANCH   1  16
ATOM     15  C   UNL     1       8.081   6.456  19.000  0.00  0.00    +0.000 C 
ATOM     16  C   UNL     1       7.400   7.182  17.834  0.00  0.00    +0.000 C 
ATOM     17  C   UNL     1       8.029   8.569  17.673  0.00  0.00    +0.000 C 
ENDBRANCH   1  16
TORSDOF 2
ENDMDL
MODEL 6
REMARK VINA RESULT:      -6.5      1.809      5.635
REMARK  Name = 
REMARK  4 active torsions:
REMARK  status: ('A' for Active; 'I' for Inactive)
REMARK    1  A    between atoms: C_1  and  C_2
REMARK    2  A    between atoms: C_2  and  C_3
REMARK    3  A    between atoms: C_2  and  N_4
REMARK    4  A    between atoms: C_9  and  C_10
REMARK                            x       y       z     vdW  Elec       q    Type
REMARK                         _______ _______ _______ _____ _____    ______ ____
ROOT
ATOM      1  N   UNL     1       6.052   4.310  19.163  0.00  0.00    +0.000 N 
ATOM      2  C   UNL     1       4.671   4.542  19.279  0.00  0.00    +0.000 A 
ATOM      3  C   UNL     1       3.883   3.451  19.584  0.00  0.00    +0.000 A 
ATOM      4  C   UNL     1       2.535   3.676  19.691  0.00  0.00    +0.000 A 
ATOM      5  N   UNL     1       1.985   4.893  19.575  0.00  0.00    +0.000 NA
ATOM      6  C   UNL     1       2.826   5.913  19.319  0.00  0.00    +0.000 A 
ATOM      7  N   UNL     1       4.161   5.778  19.150  0.00  0.00    +0.000 NA
ATOM      8  H   UNL     1       6.419   4.196  20.106  0.00  0.00    +0.000 HD
ENDROOT
BRANCH   6   9
ATOM      9  C   UNL     1       2.244   7.268  19.275  0.00  0.00    +0.000 A 
ATOM     10  C   UNL     1       2.260   8.026  18.093  0.00  0.00    +0.000 A 
ATOM     11  C   UNL     1       1.689   9.288  18.081  0.00  0.00    +0.000 A 
ATOM     12  N   UNL     1       1.100   9.853  19.152  0.00  0.00    +0.000 NA
ATOM     13  C   UNL     1       1.086   9.121  20.284  0.00  0.00    +0.000 A 
ATOM     14  C   UNL     1       1.632   7.850  20.392  0.00  0.00    +0.000 A 
ENDBRANCH   6   9
BRANCH   1  16
ATOM     15  C   UNL     1       7.942   5.815  19.277  0.00  0.00    +0.000 C 
ATOM     16  C   UNL     1       6.838   5.259  18.371  0.00  0.00    +0.000 C 
ATOM     17  C   UNL     1       7.481   4.543  17.180  0.00  0.00    +0.000 C 
ENDBRANCH   1  16
TORSDOF 2
ENDMDL
MODEL 7
REMARK VINA RESULT:      -6.5      1.791      5.610
REMARK  Name = 
REMARK  4 active torsions:
REMARK  status: ('A' for Active; 'I' for Inactive)
REMARK    1  A    between atoms: C_1  and  C_2
REMARK    2  A    between atoms: C_2  and  C_3
REMARK    3  A    between atoms: C_2  and  N_4
REMARK    4  A    between atoms: C_9  and  C_10
REMARK                            x       y       z     vdW  Elec       q    Type
REMARK                         _______ _______ _______ _____ _____    ______ ____
ROOT
ATOM      1  N   UNL     1       6.137   4.284  18.880  0.00  0.00    +0.000 N 
ATOM      2  C   UNL     1       4.773   4.471  19.160  0.00  0.00    +0.000 A 
ATOM      3  C   UNL     1       4.067   3.359  19.571  0.00  0.00    +0.000 A 
ATOM      4  C   UNL     1       2.735   3.540  19.837  0.00  0.00    +0.000 A 
ATOM      5  N   UNL     1       2.132   4.736  19.774  0.00  0.00    +0.000 NA
ATOM      6  C   UNL     1       2.899   5.780  19.406  0.00  0.00    +0.000 A 
ATOM      7  N   UNL     1       4.208   5.687  19.078  0.00  0.00    +0.000 NA
ATOM      8  H   UNL     1       6.620   4.198  19.774  0.00  0.00    +0.000 HD
ENDROOT
BRANCH   6   9
ATOM      9  C   UNL     1       2.268   7.112  19.415  0.00  0.00    +0.000 A 
ATOM     10  C   UNL     1       1.654   7.617  20.572  0.00  0.00    +0.000 A 
ATOM     11  C   UNL     1       1.086   8.880  20.553  0.00  0.00    +0.000 A 
ATOM     12  N   UNL     1       1.084   9.682  19.470  0.00  0.00    +0.000 NA
ATOM     13  C   UNL     1       1.675   9.194  18.361  0.00  0.00    +0.000 A 
ATOM     14  C   UNL     1       2.270   7.942  18.286  0.00  0.00    +0.000 A 
ENDBRANCH   6   9
BRANCH   1  16
ATOM     15  C   UNL     1       7.836   6.004  18.809  0.00  0.00    +0.000 C 
ATOM     16  C   UNL     1       6.788   5.245  17.988  0.00  0.00    +0.000 C 
ATOM     17  C   UNL     1       7.488   4.508  16.842  0.00  0.00    +0.000 C 
ENDBRANCH   1  16
TORSDOF 2
ENDMDL
MODEL 8
REMARK VINA RESULT:      -6.3      2.325      5.928
REMARK  Name = 
REMARK  4 active torsions:
REMARK  status: ('A' for Active; 'I' for Inactive)
REMARK    1  A    between atoms: C_1  and  C_2
REMARK    2  A    between atoms: C_2  and  C_3
REMARK    3  A    between atoms: C_2  and  N_4
REMARK    4  A    between atoms: C_9  and  C_10
REMARK                            x       y       z     vdW  Elec       q    Type
REMARK                         _______ _______ _______ _____ _____    ______ ____
ROOT
ATOM      1  N   UNL     1       7.362   5.668  15.717  0.00  0.00    +0.000 N 
ATOM      2  C   UNL     1       6.921   5.364  17.016  0.00  0.00    +0.000 A 
ATOM      3  C   UNL     1       7.602   5.961  18.057  0.00  0.00    +0.000 A 
ATOM      4  C   UNL     1       7.177   5.659  19.324  0.00  0.00    +0.000 A 
ATOM      5  N   UNL     1       6.115   4.879  19.573  0.00  0.00    +0.000 NA
ATOM      6  C   UNL     1       5.477   4.369  18.503  0.00  0.00    +0.000 A 
ATOM      7  N   UNL     1       5.855   4.573  17.220  0.00  0.00    +0.000 NA
ATOM      8  H   UNL     1       7.043   6.611  15.503  0.00  0.00    +0.000 HD
ENDROOT
BRANCH   6   9
ATOM      9  C   UNL     1       4.258   3.580  18.761  0.00  0.00    +0.000 A 
ATOM     10  C   UNL     1       3.721   2.732  17.780  0.00  0.00    +0.000 A 
ATOM     11  C   UNL     1       2.585   1.992  18.060  0.00  0.00    +0.000 A 
ATOM     12  N   UNL     1       1.942   2.027  19.244  0.00  0.00    +0.000 NA
ATOM     13  C   UNL     1       2.462   2.842  20.183  0.00  0.00    +0.000 A 
ATOM     14  C   UNL     1       3.595   3.621  19.994  0.00  0.00    +0.000 A 
ENDBRANCH   6   9
BRANCH   1  16
ATOM     15  C   UNL     1       5.532   4.786  14.405  0.00  0.00    +0.000 C 
ATOM     16  C   UNL     1       7.043   4.718  14.650  0.00  0.00    +0.000 C 
ATOM     17  C   UNL     1       7.777   5.107  13.363  0.00  0.00    +0.000 C 
ENDBRANCH   1  16
TORSDOF 2
ENDMDL
MODEL 9
REMARK VINA RESULT:      -6.3      2.254      3.734
REMARK  Name = 
REMARK  4 active torsions:
REMARK  status: ('A' for Active; 'I' for Inactive)
REMARK    1  A    between atoms: C_1  and  C_2
REMARK    2  A    between atoms: C_2  and  C_3
REMARK    3  A    between atoms: C_2  and  N_4
REMARK    4  A    between atoms: C_9  and  C_10
REMARK                            x       y       z     vdW  Elec       q    Type
REMARK                         _______ _______ _______ _____ _____    ______ ____
ROOT
ATOM      1  N   UNL     1       4.619   3.961  18.802  0.00  0.00    +0.000 N 
ATOM      2  C   UNL     1       5.526   4.644  17.975  0.00  0.00    +0.000 A 
ATOM      3  C   UNL     1       6.356   5.560  18.590  0.00  0.00    +0.000 A 
ATOM      4  C   UNL     1       7.236   6.231  17.782  0.00  0.00    +0.000 A 
ATOM      5  N   UNL     1       7.356   5.988  16.469  0.00  0.00    +0.000 NA
ATOM      6  C   UNL     1       6.541   5.050  15.952  0.00  0.00    +0.000 A 
ATOM      7  N   UNL     1       5.610   4.373  16.663  0.00  0.00    +0.000 NA
ATOM      8  H   UNL     1       5.151   3.264  19.323  0.00  0.00    +0.000 HD
ENDROOT
BRANCH   6   9
ATOM      9  C   UNL     1       6.722   4.714  14.528  0.00  0.00    +0.000 A 
ATOM     10  C   UNL     1       5.930   3.735  13.906  0.00  0.00    +0.000 A 
ATOM     11  C   UNL     1       6.114   3.456  12.562  0.00  0.00    +0.000 A 
ATOM     12  N   UNL     1       7.023   4.077  11.787  0.00  0.00    +0.000 NA
ATOM     13  C   UNL     1       7.781   5.016  12.387  0.00  0.00    +0.000 A 
ATOM     14  C   UNL     1       7.669   5.364  13.726  0.00  0.00    +0.000 A 
ENDBRANCH   6   9
BRANCH   1  16
ATOM     15  C   UNL     1       3.468   1.875  18.382  0.00  0.00    +0.000 C 
ATOM     16  C   UNL     1       3.422   3.394  18.178  0.00  0.00    +0.000 C 
ATOM     17  C   UNL     1       2.165   3.951  18.851  0.00  0.00    +0.000 C 
ENDBRANCH   1  16
TORSDOF 2
ENDMDL
