MODEL 1
REMARK VINA RESULT:      -7.9      0.000      0.000
REMARK  Name = 
REMARK  9 active torsions:
REMARK  status: ('A' for Active; 'I' for Inactive)
REMARK    1  A    between atoms: C_1  and  O_2
REMARK    2  A    between atoms: O_2  and  N_3
REMARK    3  A    between atoms: C_4  and  C_6
REMARK    4  A    between atoms: C_8  and  N_9
REMARK    5  A    between atoms: C_16  and  C_17
REMARK    6  A    between atoms: C_20  and  C_21
REMARK    7  A    between atoms: C_23  and  C_24
REMARK    8  A    between atoms: C_24  and  C_25
REMARK    9  A    between atoms: C_24  and  C_26
REMARK                            x       y       z     vdW  Elec       q    Type
REMARK                         _______ _______ _______ _____ _____    ______ ____
ROOT
ATOM      1  N   UNL     1       2.570   7.684  19.517  0.00  0.00    +0.000 N 
ATOM      2  C   UNL     1       2.412   6.327  19.346  0.00  0.00    +0.000 A 
ATOM      3  N   UNL     1       1.532   5.720  20.097  0.00  0.00    +0.000 NA
ATOM      4  C   UNL     1       1.328   4.377  19.979  0.00  0.00    +0.000 A 
ATOM      5  N   UNL     1       1.910   3.584  19.144  0.00  0.00    +0.000 NA
ATOM      6  N   UNL     1       2.807   4.191  18.356  0.00  0.00    +0.000 N 
ATOM      7  C   UNL     1       3.495   3.550  17.379  0.00  0.00    +0.000 A 
ATOM      8  C   UNL     1       4.354   4.449  16.796  0.00  0.00    +0.000 A 
ATOM      9  C   UNL     1       4.152   5.734  17.432  0.00  0.00    +0.000 A 
ATOM     10  C   UNL     1       3.155   5.519  18.399  0.00  0.00    +0.000 A 
ATOM     11  H   UNL     1       3.463   8.102  19.312  0.00  0.00    +0.000 HD
ENDROOT
BRANCH   1  14
ATOM     12  C   UNL     1      -0.182  10.208  19.239  0.00  0.00    +0.000 A 
ATOM     13  C   UNL     1       0.873   9.354  18.887  0.00  0.00    +0.000 A 
ATOM     14  C   UNL     1       1.560   8.608  19.855  0.00  0.00    +0.000 A 
ATOM     15  C   UNL     1       1.155   8.747  21.192  0.00  0.00    +0.000 A 
ATOM     16  F   UNL     1       1.779   8.042  22.146  0.00  0.00    +0.000 F 
ATOM     17  C   UNL     1       0.108   9.589  21.560  0.00  0.00    +0.000 A 
ATOM     18  C   UNL     1      -0.558  10.312  20.576  0.00  0.00    +0.000 A 
ATOM     19  F   UNL     1      -1.571  11.112  20.945  0.00  0.00    +0.000 F 
BRANCH  12  21
ATOM     20  N   UNL     1      -1.544  10.181  17.233  0.00  0.00    +0.000 N 
ATOM     21  C   UNL     1      -0.870  10.950  18.154  0.00  0.00    +0.000 C 
ATOM     22  O   UNL     1      -0.762  12.172  18.108  0.00  0.00    +0.000 OA
ATOM     23  H   UNL     1      -1.889   9.256  17.473  0.00  0.00    +0.000 HD
BRANCH  20  25
ATOM     24  C   UNL     1      -2.802   9.976  15.322  0.00  0.00    +0.000 C 
ATOM     25  O   UNL     1      -2.332  10.898  16.303  0.00  0.00    +0.000 OA
ENDBRANCH  20  25
ENDBRANCH  12  21
ENDBRANCH   1  14
BRANCH   8  26
ATOM     26  C   UNL     1       5.274   4.107  15.707  0.00  0.00    +0.000 A 
ATOM     27  N   UNL     1       6.600   3.998  15.863  0.00  0.00    +0.000 NA
ATOM     28  N   UNL     1       7.002   3.738  14.614  0.00  0.00    +0.000 N 
ATOM     29  C   UNL     1       5.950   3.729  13.744  0.00  0.00    +0.000 A 
ATOM     30  C   UNL     1       6.099   3.508  12.292  0.00  0.00    +0.000 C 
ATOM     31  N   UNL     1       4.841   3.956  14.415  0.00  0.00    +0.000 NA
ATOM     32  H   UNL     1       7.988   3.593  14.431  0.00  0.00    +0.000 HD
ENDBRANCH   8  26
BRANCH   9  33
ATOM     33  C   UNL     1       4.889   6.998  17.032  0.00  0.00    +0.000 C 
ATOM     34  C   UNL     1       6.298   7.096  17.616  0.00  0.00    +0.000 C 
ATOM     35  C   UNL     1       4.840   7.279  15.530  0.00  0.00    +0.000 C 
ENDBRANCH   9  33
TORSDOF 5
ENDMDL
MODEL 2
REMARK VINA RESULT:      -7.3      4.254     10.135
REMARK  Name = 
REMARK  9 active torsions:
REMARK  status: ('A' for Active; 'I' for Inactive)
REMARK    1  A    between atoms: C_1  and  O_2
REMARK    2  A    between atoms: O_2  and  N_3
REMARK    3  A    between atoms: C_4  and  C_6
REMARK    4  A    between atoms: C_8  and  N_9
REMARK    5  A    between atoms: C_16  and  C_17
REMARK    6  A    between atoms: C_20  and  C_21
REMARK    7  A    between atoms: C_23  and  C_24
REMARK    8  A    between atoms: C_24  and  C_25
REMARK    9  A    between atoms: C_24  and  C_26
REMARK                            x       y       z     vdW  Elec       q    Type
REMARK                         _______ _______ _______ _____ _____    ______ ____
ROOT
ATOM      1  N   UNL     1       0.768  10.130  19.550  0.00  0.00    +0.000 N 
ATOM      2  C   UNL     1      -0.424  10.516  18.980  0.00  0.00    +0.000 A 
ATOM      3  N   UNL     1      -0.638  10.181  17.735  0.00  0.00    +0.000 NA
ATOM      4  C   UNL     1      -1.797  10.535  17.111  0.00  0.00    +0.000 A 
ATOM      5  N   UNL     1      -2.786  11.174  17.637  0.00  0.00    +0.000 NA
ATOM      6  N   UNL     1      -2.591  11.516  18.917  0.00  0.00    +0.000 N 
ATOM      7  C   UNL     1      -3.524  12.151  19.670  0.00  0.00    +0.000 A 
ATOM      8  C   UNL     1      -2.987  12.386  20.912  0.00  0.00    +0.000 A 
ATOM      9  C   UNL     1      -1.652  11.827  20.934  0.00  0.00    +0.000 A 
ATOM     10  C   UNL     1      -1.457  11.276  19.655  0.00  0.00    +0.000 A 
ATOM     11  H   UNL     1       1.160  10.688  20.291  0.00  0.00    +0.000 HD
ENDROOT
BRANCH   1  14
ATOM     12  C   UNL     1       1.923   6.570  19.674  0.00  0.00    +0.000 A 
ATOM     13  C   UNL     1       1.265   7.761  20.011  0.00  0.00    +0.000 A 
ATOM     14  C   UNL     1       1.477   8.940  19.281  0.00  0.00    +0.000 A 
ATOM     15  C   UNL     1       2.373   8.886  18.203  0.00  0.00    +0.000 A 
ATOM     16  F   UNL     1       2.594   9.989  17.474  0.00  0.00    +0.000 F 
ATOM     17  C   UNL     1       3.035   7.711  17.853  0.00  0.00    +0.000 A 
ATOM     18  C   UNL     1       2.800   6.556  18.592  0.00  0.00    +0.000 A 
ATOM     19  F   UNL     1       3.436   5.429  18.238  0.00  0.00    +0.000 F 
BRANCH  12  21
ATOM     20  N   UNL     1       2.685   4.858  21.213  0.00  0.00    +0.000 N 
ATOM     21  C   UNL     1       1.632   5.361  20.484  0.00  0.00    +0.000 C 
ATOM     22  O   UNL     1       0.513   4.860  20.424  0.00  0.00    +0.000 OA
ATOM     23  H   UNL     1       3.455   5.453  21.503  0.00  0.00    +0.000 HD
BRANCH  20  25
ATOM     24  C   UNL     1       2.719   2.578  21.492  0.00  0.00    +0.000 C 
ATOM     25  O   UNL     1       2.359   3.812  22.109  0.00  0.00    +0.000 OA
ENDBRANCH  20  25
ENDBRANCH  12  21
ENDBRANCH   1  14
BRANCH   8  26
ATOM     26  C   UNL     1      -3.704  13.073  21.991  0.00  0.00    +0.000 A 
ATOM     27  N   UNL     1      -4.266  12.440  23.029  0.00  0.00    +0.000 NA
ATOM     28  N   UNL     1      -4.834  13.454  23.692  0.00  0.00    +0.000 N 
ATOM     29  C   UNL     1      -4.643  14.641  23.046  0.00  0.00    +0.000 A 
ATOM     30  C   UNL     1      -5.192  15.925  23.526  0.00  0.00    +0.000 C 
ATOM     31  N   UNL     1      -3.923  14.426  21.966  0.00  0.00    +0.000 NA
ATOM     32  H   UNL     1      -5.335  13.264  24.552  0.00  0.00    +0.000 HD
ENDBRANCH   8  26
BRANCH   9  33
ATOM     33  C   UNL     1      -0.749  11.848  22.152  0.00  0.00    +0.000 C 
ATOM     34  C   UNL     1      -0.642  13.222  22.812  0.00  0.00    +0.000 C 
ATOM     35  C   UNL     1      -1.045  10.724  23.146  0.00  0.00    +0.000 C 
ENDBRANCH   9  33
TORSDOF 5
ENDMDL
MODEL 3
REMARK VINA RESULT:      -7.3      3.882      9.719
REMARK  Name = 
REMARK  9 active torsions:
REMARK  status: ('A' for Active; 'I' for Inactive)
REMARK    1  A    between atoms: C_1  and  O_2
REMARK    2  A    between atoms: O_2  and  N_3
REMARK    3  A    between atoms: C_4  and  C_6
REMARK    4  A    between atoms: C_8  and  N_9
REMARK    5  A    between atoms: C_16  and  C_17
REMARK    6  A    between atoms: C_20  and  C_21
REMARK    7  A    between atoms: C_23  and  C_24
REMARK    8  A    between atoms: C_24  and  C_25
REMARK    9  A    between atoms: C_24  and  C_26
REMARK                            x       y       z     vdW  Elec       q    Type
REMARK                         _______ _______ _______ _____ _____    ______ ____
ROOT
ATOM      1  N   UNL     1       0.839   9.788  19.462  0.00  0.00    +0.000 N 
ATOM      2  C   UNL     1      -0.317  10.127  18.796  0.00  0.00    +0.000 A 
ATOM      3  N   UNL     1      -0.577   9.504  17.677  0.00  0.00    +0.000 NA
ATOM      4  C   UNL     1      -1.704   9.794  16.967  0.00  0.00    +0.000 A 
ATOM      5  N   UNL     1      -2.621  10.639  17.297  0.00  0.00    +0.000 NA
ATOM      6  N   UNL     1      -2.378  11.280  18.448  0.00  0.00    +0.000 N 
ATOM      7  C   UNL     1      -3.237  12.174  18.999  0.00  0.00    +0.000 A 
ATOM      8  C   UNL     1      -2.665  12.669  20.145  0.00  0.00    +0.000 A 
ATOM      9  C   UNL     1      -1.391  12.009  20.329  0.00  0.00    +0.000 A 
ATOM     10  C   UNL     1      -1.264  11.131  19.238  0.00  0.00    +0.000 A 
ATOM     11  H   UNL     1       1.291  10.478  20.039  0.00  0.00    +0.000 HD
ENDROOT
BRANCH   1  14
ATOM     12  C   UNL     1       2.972   6.812  18.675  0.00  0.00    +0.000 A 
ATOM     13  C   UNL     1       2.339   8.058  18.554  0.00  0.00    +0.000 A 
ATOM     14  C   UNL     1       1.427   8.507  19.520  0.00  0.00    +0.000 A 
ATOM     15  C   UNL     1       1.168   7.665  20.612  0.00  0.00    +0.000 A 
ATOM     16  F   UNL     1       0.309   8.063  21.561  0.00  0.00    +0.000 F 
ATOM     17  C   UNL     1       1.787   6.425  20.749  0.00  0.00    +0.000 A 
ATOM     18  C   UNL     1       2.692   6.009  19.778  0.00  0.00    +0.000 A 
ATOM     19  F   UNL     1       3.289   4.816  19.928  0.00  0.00    +0.000 F 
BRANCH  12  21
ATOM     20  N   UNL     1       4.897   7.351  17.303  0.00  0.00    +0.000 N 
ATOM     21  C   UNL     1       3.938   6.417  17.621  0.00  0.00    +0.000 C 
ATOM     22  O   UNL     1       3.803   5.329  17.068  0.00  0.00    +0.000 OA
ATOM     23  H   UNL     1       5.185   8.057  17.973  0.00  0.00    +0.000 HD
BRANCH  20  25
ATOM     24  C   UNL     1       7.074   6.622  17.198  0.00  0.00    +0.000 C 
ATOM     25  O   UNL     1       5.911   6.905  16.422  0.00  0.00    +0.000 OA
ENDBRANCH  20  25
ENDBRANCH  12  21
ENDBRANCH   1  14
BRANCH   8  26
ATOM     26  C   UNL     1      -3.300  13.677  21.001  0.00  0.00    +0.000 A 
ATOM     27  N   UNL     1      -3.030  14.986  20.931  0.00  0.00    +0.000 NA
ATOM     28  N   UNL     1      -3.787  15.475  21.919  0.00  0.00    +0.000 N 
ATOM     29  C   UNL     1      -4.454  14.481  22.575  0.00  0.00    +0.000 A 
ATOM     30  C   UNL     1      -5.334  14.720  23.736  0.00  0.00    +0.000 C 
ATOM     31  N   UNL     1      -4.166  13.329  22.006  0.00  0.00    +0.000 NA
ATOM     32  H   UNL     1      -3.790  16.473  22.095  0.00  0.00    +0.000 HD
ENDBRANCH   8  26
BRANCH   9  33
ATOM     33  C   UNL     1      -0.475  12.257  21.513  0.00  0.00    +0.000 C 
ATOM     34  C   UNL     1      -0.417  11.089  22.497  0.00  0.00    +0.000 C 
ATOM     35  C   UNL     1       0.907  12.774  21.112  0.00  0.00    +0.000 C 
ENDBRANCH   9  33
TORSDOF 5
ENDMDL
MODEL 4
REMARK VINA RESULT:      -7.3      4.461      9.661
REMARK  Name = 
REMARK  9 active torsions:
REMARK  status: ('A' for Active; 'I' for Inactive)
REMARK    1  A    between atoms: C_1  and  O_2
REMARK    2  A    between atoms: O_2  and  N_3
REMARK    3  A    between atoms: C_4  and  C_6
REMARK    4  A    between atoms: C_8  and  N_9
REMARK    5  A    between atoms: C_16  and  C_17
REMARK    6  A    between atoms: C_20  and  C_21
REMARK    7  A    between atoms: C_23  and  C_24
REMARK    8  A    between atoms: C_24  and  C_25
REMARK    9  A    between atoms: C_24  and  C_26
REMARK                            x       y       z     vdW  Elec       q    Type
REMARK                         _______ _______ _______ _____ _____    ______ ____
ROOT
ATOM      1  N   UNL     1       0.481   9.411  19.505  0.00  0.00    +0.000 N 
ATOM      2  C   UNL     1       0.178   9.798  20.791  0.00  0.00    +0.000 A 
ATOM      3  N   UNL     1       0.390   8.937  21.750  0.00  0.00    +0.000 NA
ATOM      4  C   UNL     1       0.109   9.257  23.045  0.00  0.00    +0.000 A 
ATOM      5  N   UNL     1      -0.341  10.386  23.475  0.00  0.00    +0.000 NA
ATOM      6  N   UNL     1      -0.554  11.288  22.507  0.00  0.00    +0.000 N 
ATOM      7  C   UNL     1      -0.979  12.553  22.747  0.00  0.00    +0.000 A 
ATOM      8  C   UNL     1      -1.132  13.192  21.541  0.00  0.00    +0.000 A 
ATOM      9  C   UNL     1      -0.739  12.271  20.496  0.00  0.00    +0.000 A 
ATOM     10  C   UNL     1      -0.368  11.089  21.160  0.00  0.00    +0.000 A 
ATOM     11  H   UNL     1      -0.030   9.817  18.739  0.00  0.00    +0.000 HD
ENDROOT
BRANCH   1  14
ATOM     12  C   UNL     1       2.819   6.491  19.322  0.00  0.00    +0.000 A 
ATOM     13  C   UNL     1       1.816   7.358  19.778  0.00  0.00    +0.000 A 
ATOM     14  C   UNL     1       1.537   8.562  19.114  0.00  0.00    +0.000 A 
ATOM     15  C   UNL     1       2.300   8.869  17.977  0.00  0.00    +0.000 A 
ATOM     16  F   UNL     1       2.056  10.005  17.308  0.00  0.00    +0.000 F 
ATOM     17  C   UNL     1       3.300   8.020  17.509  0.00  0.00    +0.000 A 
ATOM     18  C   UNL     1       3.550   6.830  18.185  0.00  0.00    +0.000 A 
ATOM     19  F   UNL     1       4.509   6.017  17.718  0.00  0.00    +0.000 F 
BRANCH  12  21
ATOM     20  N   UNL     1       2.242   5.035  21.173  0.00  0.00    +0.000 N 
ATOM     21  C   UNL     1       3.041   5.230  20.070  0.00  0.00    +0.000 C 
ATOM     22  O   UNL     1       3.935   4.471  19.705  0.00  0.00    +0.000 OA
ATOM     23  H   UNL     1       1.332   5.480  21.247  0.00  0.00    +0.000 HD
BRANCH  20  25
ATOM     24  C   UNL     1       1.290   2.946  21.266  0.00  0.00    +0.000 C 
ATOM     25  O   UNL     1       2.342   3.761  21.779  0.00  0.00    +0.000 OA
ENDBRANCH  20  25
ENDBRANCH  12  21
ENDBRANCH   1  14
BRANCH   8  26
ATOM     26  C   UNL     1      -1.598  14.576  21.407  0.00  0.00    +0.000 A 
ATOM     27  N   UNL     1      -0.857  15.643  21.731  0.00  0.00    +0.000 NA
ATOM     28  N   UNL     1      -1.708  16.649  21.498  0.00  0.00    +0.000 N 
ATOM     29  C   UNL     1      -2.924  16.186  21.084  0.00  0.00    +0.000 A 
ATOM     30  C   UNL     1      -4.072  17.068  20.790  0.00  0.00    +0.000 C 
ATOM     31  N   UNL     1      -2.878  14.873  21.012  0.00  0.00    +0.000 NA
ATOM     32  H   UNL     1      -1.403  17.603  21.651  0.00  0.00    +0.000 HD
ENDBRANCH   8  26
BRANCH   9  33
ATOM     33  C   UNL     1      -0.728  12.624  19.021  0.00  0.00    +0.000 C 
ATOM     34  C   UNL     1       0.676  12.809  18.446  0.00  0.00    +0.000 C 
ATOM     35  C   UNL     1      -1.610  11.709  18.172  0.00  0.00    +0.000 C 
ENDBRANCH   9  33
TORSDOF 5
ENDMDL
MODEL 5
REMARK VINA RESULT:      -7.3      4.365      9.618
REMARK  Name = 
REMARK  9 active torsions:
REMARK  status: ('A' for Active; 'I' for Inactive)
REMARK    1  A    between atoms: C_1  and  O_2
REMARK    2  A    between atoms: O_2  and  N_3
REMARK    3  A    between atoms: C_4  and  C_6
REMARK    4  A    between atoms: C_8  and  N_9
REMARK    5  A    between atoms: C_16  and  C_17
REMARK    6  A    between atoms: C_20  and  C_21
REMARK    7  A    between atoms: C_23  and  C_24
REMARK    8  A    between atoms: C_24  and  C_25
REMARK    9  A    between atoms: C_24  and  C_26
REMARK                            x       y       z     vdW  Elec       q    Type
REMARK                         _______ _______ _______ _____ _____    ______ ____
ROOT
ATOM      1  N   UNL     1       0.443   9.021  19.574  0.00  0.00    +0.000 N 
ATOM      2  C   UNL     1       0.199   9.556  20.819  0.00  0.00    +0.000 A 
ATOM      3  N   UNL     1       0.560   8.856  21.861  0.00  0.00    +0.000 NA
ATOM      4  C   UNL     1       0.345   9.328  23.121  0.00  0.00    +0.000 A 
ATOM      5  N   UNL     1      -0.176  10.466  23.436  0.00  0.00    +0.000 NA
ATOM      6  N   UNL     1      -0.541  11.204  22.379  0.00  0.00    +0.000 N 
ATOM      7  C   UNL     1      -1.064  12.451  22.486  0.00  0.00    +0.000 A 
ATOM      8  C   UNL     1      -1.364  12.902  21.224  0.00  0.00    +0.000 A 
ATOM      9  C   UNL     1      -0.964  11.880  20.280  0.00  0.00    +0.000 A 
ATOM     10  C   UNL     1      -0.437  10.836  21.059  0.00  0.00    +0.000 A 
ATOM     11  H   UNL     1      -0.159   9.273  18.807  0.00  0.00    +0.000 HD
ENDROOT
BRANCH   1  14
ATOM     12  C   UNL     1       2.880   6.182  19.424  0.00  0.00    +0.000 A 
ATOM     13  C   UNL     1       1.830   7.005  19.856  0.00  0.00    +0.000 A 
ATOM     14  C   UNL     1       1.542   8.216  19.210  0.00  0.00    +0.000 A 
ATOM     15  C   UNL     1       2.344   8.576  18.116  0.00  0.00    +0.000 A 
ATOM     16  F   UNL     1       2.093   9.721  17.465  0.00  0.00    +0.000 F 
ATOM     17  C   UNL     1       3.390   7.771  17.673  0.00  0.00    +0.000 A 
ATOM     18  C   UNL     1       3.648   6.573  18.330  0.00  0.00    +0.000 A 
ATOM     19  F   UNL     1       4.654   5.803  17.886  0.00  0.00    +0.000 F 
BRANCH  12  21
ATOM     20  N   UNL     1       2.394   4.742  21.313  0.00  0.00    +0.000 N 
ATOM     21  C   UNL     1       3.110   4.909  20.150  0.00  0.00    +0.000 C 
ATOM     22  O   UNL     1       3.940   4.117  19.713  0.00  0.00    +0.000 OA
ATOM     23  H   UNL     1       1.512   5.223  21.461  0.00  0.00    +0.000 HD
BRANCH  20  25
ATOM     24  C   UNL     1       1.366   2.694  21.484  0.00  0.00    +0.000 C 
ATOM     25  O   UNL     1       2.491   3.461  21.908  0.00  0.00    +0.000 OA
ENDBRANCH  20  25
ENDBRANCH  12  21
ENDBRANCH   1  14
BRANCH   8  26
ATOM     26  C   UNL     1      -1.965  14.210  20.949  0.00  0.00    +0.000 A 
ATOM     27  N   UNL     1      -3.272  14.395  20.726  0.00  0.00    +0.000 NA
ATOM     28  N   UNL     1      -3.324  15.707  20.472  0.00  0.00    +0.000 N 
ATOM     29  C   UNL     1      -2.082  16.271  20.509  0.00  0.00    +0.000 A 
ATOM     30  C   UNL     1      -1.829  17.699  20.229  0.00  0.00    +0.000 C 
ATOM     31  N   UNL     1      -1.202  15.342  20.816  0.00  0.00    +0.000 NA
ATOM     32  H   UNL     1      -4.220  16.139  20.274  0.00  0.00    +0.000 HD
ENDBRANCH   8  26
BRANCH   9  33
ATOM     33  C   UNL     1      -1.093  12.025  18.775  0.00  0.00    +0.000 C 
ATOM     34  C   UNL     1      -2.519  11.832  18.261  0.00  0.00    +0.000 C 
ATOM     35  C   UNL     1      -0.422  13.286  18.228  0.00  0.00    +0.000 C 
ENDBRANCH   9  33
TORSDOF 5
ENDMDL
MODEL 6
REMARK VINA RESULT:      -7.3      3.809      6.167
REMARK  Name = 
REMARK  9 active torsions:
REMARK  status: ('A' for Active; 'I' for Inactive)
REMARK    1  A    between atoms: C_1  and  O_2
REMARK    2  A    between atoms: O_2  and  N_3
REMARK    3  A    between atoms: C_4  and  C_6
REMARK    4  A    between atoms: C_8  and  N_9
REMARK    5  A    between atoms: C_16  and  C_17
REMARK    6  A    between atoms: C_20  and  C_21
REMARK    7  A    between atoms: C_23  and  C_24
REMARK    8  A    between atoms: C_24  and  C_25
REMARK    9  A    between atoms: C_24  and  C_26
REMARK                            x       y       z     vdW  Elec       q    Type
REMARK                         _______ _______ _______ _____ _____    ______ ____
ROOT
ATOM      1  N   UNL     1      -1.072  12.128  20.392  0.00  0.00    +0.000 N 
ATOM      2  C   UNL     1      -0.653  11.154  21.271  0.00  0.00    +0.000 A 
ATOM      3  N   UNL     1      -1.054  11.244  22.511  0.00  0.00    +0.000 NA
ATOM      4  C   UNL     1      -0.673  10.314  23.432  0.00  0.00    +0.000 A 
ATOM      5  N   UNL     1       0.055   9.272  23.213  0.00  0.00    +0.000 NA
ATOM      6  N   UNL     1       0.467   9.156  21.944  0.00  0.00    +0.000 N 
ATOM      7  C   UNL     1       1.201   8.110  21.491  0.00  0.00    +0.000 A 
ATOM      8  C   UNL     1       1.483   8.324  20.164  0.00  0.00    +0.000 A 
ATOM      9  C   UNL     1       0.849   9.564  19.768  0.00  0.00    +0.000 A 
ATOM     10  C   UNL     1       0.208  10.041  20.925  0.00  0.00    +0.000 A 
ATOM     11  H   UNL     1      -0.491  12.355  19.601  0.00  0.00    +0.000 HD
ENDROOT
BRANCH   1  14
ATOM     12  C   UNL     1      -4.747  12.809  20.168  0.00  0.00    +0.000 A 
ATOM     13  C   UNL     1      -3.513  12.151  20.065  0.00  0.00    +0.000 A 
ATOM     14  C   UNL     1      -2.315  12.793  20.411  0.00  0.00    +0.000 A 
ATOM     15  C   UNL     1      -2.395  14.119  20.862  0.00  0.00    +0.000 A 
ATOM     16  F   UNL     1      -1.273  14.764  21.213  0.00  0.00    +0.000 F 
ATOM     17  C   UNL     1      -3.612  14.789  20.971  0.00  0.00    +0.000 A 
ATOM     18  C   UNL     1      -4.783  14.124  20.627  0.00  0.00    +0.000 A 
ATOM     19  F   UNL     1      -5.949  14.778  20.747  0.00  0.00    +0.000 F 
BRANCH  12  21
ATOM     20  N   UNL     1      -6.601  11.393  20.828  0.00  0.00    +0.000 N 
ATOM     21  C   UNL     1      -5.970  12.055  19.800  0.00  0.00    +0.000 C 
ATOM     22  O   UNL     1      -6.317  12.022  18.622  0.00  0.00    +0.000 OA
ATOM     23  H   UNL     1      -6.501  11.700  21.790  0.00  0.00    +0.000 HD
BRANCH  20  25
ATOM     24  C   UNL     1      -7.758   9.411  20.713  0.00  0.00    +0.000 C 
ATOM     25  O   UNL     1      -7.853  10.819  20.503  0.00  0.00    +0.000 OA
ENDBRANCH  20  25
ENDBRANCH  12  21
ENDBRANCH   1  14
BRANCH   8  26
ATOM     26  C   UNL     1       2.278   7.406  19.342  0.00  0.00    +0.000 A 
ATOM     27  N   UNL     1       2.433   6.106  19.621  0.00  0.00    +0.000 NA
ATOM     28  N   UNL     1       3.264   5.714  18.648  0.00  0.00    +0.000 N 
ATOM     29  C   UNL     1       3.616   6.759  17.844  0.00  0.00    +0.000 A 
ATOM     30  C   UNL     1       4.554   6.632  16.710  0.00  0.00    +0.000 C 
ATOM     31  N   UNL     1       2.998   7.844  18.260  0.00  0.00    +0.000 NA
ATOM     32  H   UNL     1       3.553   4.744  18.603  0.00  0.00    +0.000 HD
ENDBRANCH   8  26
BRANCH   9  33
ATOM     33  C   UNL     1       0.895  10.122  18.359  0.00  0.00    +0.000 C 
ATOM     34  C   UNL     1      -0.472  10.179  17.678  0.00  0.00    +0.000 C 
ATOM     35  C   UNL     1       1.675  11.432  18.251  0.00  0.00    +0.000 C 
ENDBRANCH   9  33
TORSDOF 5
ENDMDL
MODEL 7
REMARK VINA RESULT:      -7.2      4.148      9.995
REMARK  Name = 
REMARK  9 active torsions:
REMARK  status: ('A' for Active; 'I' for Inactive)
REMARK    1  A    between atoms: C_1  and  O_2
REMARK    2  A    between atoms: O_2  and  N_3
REMARK    3  A    between atoms: C_4  and  C_6
REMARK    4  A    between atoms: C_8  and  N_9
REMARK    5  A    between atoms: C_16  and  C_17
REMARK    6  A    between atoms: C_20  and  C_21
REMARK    7  A    between atoms: C_23  and  C_24
REMARK    8  A    between atoms: C_24  and  C_25
REMARK    9  A    between atoms: C_24  and  C_26
REMARK                            x       y       z     vdW  Elec       q    Type
REMARK                         _______ _______ _______ _____ _____    ______ ____
ROOT
ATOM      1  N   UNL     1       0.691  10.115  19.365  0.00  0.00    +0.000 N 
ATOM      2  C   UNL     1      -0.507  10.431  18.763  0.00  0.00    +0.000 A 
ATOM      3  N   UNL     1      -0.694  10.023  17.536  0.00  0.00    +0.000 NA
ATOM      4  C   UNL     1      -1.856  10.305  16.882  0.00  0.00    +0.000 A 
ATOM      5  N   UNL     1      -2.872  10.938  17.362  0.00  0.00    +0.000 NA
ATOM      6  N   UNL     1      -2.704  11.353  18.624  0.00  0.00    +0.000 N 
ATOM      7  C   UNL     1      -3.666  11.995  19.332  0.00  0.00    +0.000 A 
ATOM      8  C   UNL     1      -3.152  12.314  20.566  0.00  0.00    +0.000 A 
ATOM      9  C   UNL     1      -1.801  11.801  20.631  0.00  0.00    +0.000 A 
ATOM     10  C   UNL     1      -1.572  11.191  19.386  0.00  0.00    +0.000 A 
ATOM     11  H   UNL     1       1.055  10.724  20.079  0.00  0.00    +0.000 HD
ENDROOT
BRANCH   1  14
ATOM     12  C   UNL     1       1.927   6.592  19.656  0.00  0.00    +0.000 A 
ATOM     13  C   UNL     1       1.225   7.776  19.923  0.00  0.00    +0.000 A 
ATOM     14  C   UNL     1       1.441   8.937  19.168  0.00  0.00    +0.000 A 
ATOM     15  C   UNL     1       2.389   8.874  18.134  0.00  0.00    +0.000 A 
ATOM     16  F   UNL     1       2.616   9.960  17.382  0.00  0.00    +0.000 F 
ATOM     17  C   UNL     1       3.096   7.707  17.854  0.00  0.00    +0.000 A 
ATOM     18  C   UNL     1       2.855   6.569  18.616  0.00  0.00    +0.000 A 
ATOM     19  F   UNL     1       3.536   5.449  18.328  0.00  0.00    +0.000 F 
BRANCH  12  21
ATOM     20  N   UNL     1       2.689   4.880  21.194  0.00  0.00    +0.000 N 
ATOM     21  C   UNL     1       1.629   5.402  20.489  0.00  0.00    +0.000 C 
ATOM     22  O   UNL     1       0.496   4.929  20.466  0.00  0.00    +0.000 OA
ATOM     23  H   UNL     1       3.482   5.458  21.454  0.00  0.00    +0.000 HD
BRANCH  20  25
ATOM     24  C   UNL     1       2.702   2.605  21.513  0.00  0.00    +0.000 C 
ATOM     25  O   UNL     1       2.362   3.854  22.111  0.00  0.00    +0.000 OA
ENDBRANCH  20  25
ENDBRANCH  12  21
ENDBRANCH   1  14
BRANCH   8  26
ATOM     26  C   UNL     1      -3.904  13.032  21.599  0.00  0.00    +0.000 A 
ATOM     27  N   UNL     1      -3.559  14.240  22.064  0.00  0.00    +0.000 NA
ATOM     28  N   UNL     1      -4.486  14.446  23.007  0.00  0.00    +0.000 N 
ATOM     29  C   UNL     1      -5.328  13.378  23.118  0.00  0.00    +0.000 A 
ATOM     30  C   UNL     1      -6.426  13.308  24.104  0.00  0.00    +0.000 C 
ATOM     31  N   UNL     1      -4.984  12.469  22.231  0.00  0.00    +0.000 NA
ATOM     32  H   UNL     1      -4.476  15.313  23.531  0.00  0.00    +0.000 HD
ENDBRANCH   8  26
BRANCH   9  33
ATOM     33  C   UNL     1      -0.913  11.917  21.856  0.00  0.00    +0.000 C 
ATOM     34  C   UNL     1      -0.629  10.577  22.535  0.00  0.00    +0.000 C 
ATOM     35  C   UNL     1       0.347  12.747  21.615  0.00  0.00    +0.000 C 
ENDBRANCH   9  33
TORSDOF 5
ENDMDL
MODEL 8
REMARK VINA RESULT:      -7.1      3.963      9.801
REMARK  Name = 
REMARK  9 active torsions:
REMARK  status: ('A' for Active; 'I' for Inactive)
REMARK    1  A    between atoms: C_1  and  O_2
REMARK    2  A    between atoms: O_2  and  N_3
REMARK    3  A    between atoms: C_4  and  C_6
REMARK    4  A    between atoms: C_8  and  N_9
REMARK    5  A    between atoms: C_16  and  C_17
REMARK    6  A    between atoms: C_20  and  C_21
REMARK    7  A    between atoms: C_23  and  C_24
REMARK    8  A    between atoms: C_24  and  C_25
REMARK    9  A    between atoms: C_24  and  C_26
REMARK                            x       y       z     vdW  Elec       q    Type
REMARK                         _______ _______ _______ _____ _____    ______ ____
ROOT
ATOM      1  N   UNL     1       0.882   9.736  19.647  0.00  0.00    +0.000 N 
ATOM      2  C   UNL     1      -0.245  10.132  18.963  0.00  0.00    +0.000 A 
ATOM      3  N   UNL     1      -0.473   9.581  17.800  0.00  0.00    +0.000 NA
ATOM      4  C   UNL     1      -1.570   9.929  17.071  0.00  0.00    +0.000 A 
ATOM      5  N   UNL     1      -2.487  10.767  17.418  0.00  0.00    +0.000 NA
ATOM      6  N   UNL     1      -2.277  11.335  18.614  0.00  0.00    +0.000 N 
ATOM      7  C   UNL     1      -3.144  12.206  19.187  0.00  0.00    +0.000 A 
ATOM      8  C   UNL     1      -2.607  12.624  20.380  0.00  0.00    +0.000 A 
ATOM      9  C   UNL     1      -1.348  11.935  20.568  0.00  0.00    +0.000 A 
ATOM     10  C   UNL     1      -1.194  11.122  19.432  0.00  0.00    +0.000 A 
ATOM     11  H   UNL     1       1.322  10.384  20.280  0.00  0.00    +0.000 HD
ENDROOT
BRANCH   1  14
ATOM     12  C   UNL     1       2.950   6.758  18.711  0.00  0.00    +0.000 A 
ATOM     13  C   UNL     1       2.334   8.016  18.647  0.00  0.00    +0.000 A 
ATOM     14  C   UNL     1       1.451   8.446  19.648  0.00  0.00    +0.000 A 
ATOM     15  C   UNL     1       1.204   7.571  20.717  0.00  0.00    +0.000 A 
ATOM     16  F   UNL     1       0.375   7.951  21.700  0.00  0.00    +0.000 F 
ATOM     17  C   UNL     1       1.808   6.318  20.798  0.00  0.00    +0.000 A 
ATOM     18  C   UNL     1       2.683   5.922  19.793  0.00  0.00    +0.000 A 
ATOM     19  F   UNL     1       3.264   4.716  19.889  0.00  0.00    +0.000 F 
BRANCH  12  21
ATOM     20  N   UNL     1       4.811   7.337  17.270  0.00  0.00    +0.000 N 
ATOM     21  C   UNL     1       3.884   6.384  17.621  0.00  0.00    +0.000 C 
ATOM     22  O   UNL     1       3.751   5.294  17.072  0.00  0.00    +0.000 OA
ATOM     23  H   UNL     1       5.109   8.049  17.931  0.00  0.00    +0.000 HD
BRANCH  20  25
ATOM     24  C   UNL     1       6.978   6.593  17.091  0.00  0.00    +0.000 C 
ATOM     25  O   UNL     1       5.801   6.914  16.352  0.00  0.00    +0.000 OA
ENDBRANCH  20  25
ENDBRANCH  12  21
ENDBRANCH   1  14
BRANCH   8  26
ATOM     26  C   UNL     1      -3.258  13.588  21.272  0.00  0.00    +0.000 A 
ATOM     27  N   UNL     1      -3.942  13.240  22.370  0.00  0.00    +0.000 NA
ATOM     28  N   UNL     1      -4.385  14.425  22.804  0.00  0.00    +0.000 N 
ATOM     29  C   UNL     1      -4.005  15.435  21.969  0.00  0.00    +0.000 A 
ATOM     30  C   UNL     1      -4.384  16.847  22.177  0.00  0.00    +0.000 C 
ATOM     31  N   UNL     1      -3.283  14.930  20.991  0.00  0.00    +0.000 NA
ATOM     32  H   UNL     1      -4.939  14.467  23.652  0.00  0.00    +0.000 HD
ENDBRANCH   8  26
BRANCH   9  33
ATOM     33  C   UNL     1      -0.472  12.098  21.795  0.00  0.00    +0.000 C 
ATOM     34  C   UNL     1      -0.154  13.554  22.132  0.00  0.00    +0.000 C 
ATOM     35  C   UNL     1      -0.961  11.295  23.001  0.00  0.00    +0.000 C 
ENDBRANCH   9  33
TORSDOF 5
ENDMDL
MODEL 9
REMARK VINA RESULT:      -7.1      2.263      3.020
REMARK  Name = 
REMARK  9 active torsions:
REMARK  status: ('A' for Active; 'I' for Inactive)
REMARK    1  A    between atoms: C_1  and  O_2
REMARK    2  A    between atoms: O_2  and  N_3
REMARK    3  A    between atoms: C_4  and  C_6
REMARK    4  A    between atoms: C_8  and  N_9
REMARK    5  A    between atoms: C_16  and  C_17
REMARK    6  A    between atoms: C_20  and  C_21
REMARK    7  A    between atoms: C_23  and  C_24
REMARK    8  A    between atoms: C_24  and  C_25
REMARK    9  A    between atoms: C_24  and  C_26
REMARK                            x       y       z     vdW  Elec       q    Type
REMARK                         _______ _______ _______ _____ _____    ______ ____
ROOT
ATOM      1  N   UNL     1       2.323   8.166  19.452  0.00  0.00    +0.000 N 
ATOM      2  C   UNL     1       2.297   6.791  19.523  0.00  0.00    +0.000 A 
ATOM      3  N   UNL     1       1.482   6.244  20.384  0.00  0.00    +0.000 NA
ATOM      4  C   UNL     1       1.410   4.888  20.506  0.00  0.00    +0.000 A 
ATOM      5  N   UNL     1       2.065   4.020  19.813  0.00  0.00    +0.000 NA
ATOM      6  N   UNL     1       2.898   4.562  18.914  0.00  0.00    +0.000 N 
ATOM      7  C   UNL     1       3.644   3.828  18.052  0.00  0.00    +0.000 A 
ATOM      8  C   UNL     1       4.410   4.689  17.305  0.00  0.00    +0.000 A 
ATOM      9  C   UNL     1       4.085   6.040  17.710  0.00  0.00    +0.000 A 
ATOM     10  C   UNL     1       3.115   5.905  18.718  0.00  0.00    +0.000 A 
ATOM     11  H   UNL     1       3.171   8.625  19.161  0.00  0.00    +0.000 HD
ENDROOT
BRANCH   1  14
ATOM     12  C   UNL     1      -0.130  10.505  21.043  0.00  0.00    +0.000 A 
ATOM     13  C   UNL     1       0.914   9.581  20.894  0.00  0.00    +0.000 A 
ATOM     14  C   UNL     1       1.228   9.034  19.641  0.00  0.00    +0.000 A 
ATOM     15  C   UNL     1       0.459   9.443  18.541  0.00  0.00    +0.000 A 
ATOM     16  F   UNL     1       0.735   8.951  17.325  0.00  0.00    +0.000 F 
ATOM     17  C   UNL     1      -0.582  10.361  18.670  0.00  0.00    +0.000 A 
ATOM     18  C   UNL     1      -0.866  10.890  19.925  0.00  0.00    +0.000 A 
ATOM     19  F   UNL     1      -1.865  11.780  20.032  0.00  0.00    +0.000 F 
BRANCH  12  21
ATOM     20  N   UNL     1      -0.744  12.379  22.454  0.00  0.00    +0.000 N 
ATOM     21  C   UNL     1      -0.389  11.051  22.398  0.00  0.00    +0.000 C 
ATOM     22  O   UNL     1      -0.228  10.323  23.373  0.00  0.00    +0.000 OA
ATOM     23  H   UNL     1      -1.182  12.839  21.662  0.00  0.00    +0.000 HD
BRANCH  20  25
ATOM     24  C   UNL     1      -1.322  14.260  23.640  0.00  0.00    +0.000 C 
ATOM     25  O   UNL     1      -1.150  12.846  23.726  0.00  0.00    +0.000 OA
ENDBRANCH  20  25
ENDBRANCH  12  21
ENDBRANCH   1  14
BRANCH   8  26
ATOM     26  C   UNL     1       5.358   4.251  16.276  0.00  0.00    +0.000 A 
ATOM     27  N   UNL     1       6.663   4.054  16.505  0.00  0.00    +0.000 NA
ATOM     28  N   UNL     1       7.108   3.729  15.286  0.00  0.00    +0.000 N 
ATOM     29  C   UNL     1       6.105   3.769  14.362  0.00  0.00    +0.000 A 
ATOM     30  C   UNL     1       6.312   3.494  12.926  0.00  0.00    +0.000 C 
ATOM     31  N   UNL     1       4.982   4.092  14.967  0.00  0.00    +0.000 NA
ATOM     32  H   UNL     1       8.090   3.509  15.159  0.00  0.00    +0.000 HD
ENDBRANCH   8  26
BRANCH   9  33
ATOM     33  C   UNL     1       4.695   7.279  17.083  0.00  0.00    +0.000 C 
ATOM     34  C   UNL     1       6.132   7.547  17.528  0.00  0.00    +0.000 C 
ATOM     35  C   UNL     1       4.514   7.342  15.566  0.00  0.00    +0.000 C 
ENDBRANCH   9  33
TORSDOF 5
ENDMDL
