MODEL 1
REMARK VINA RESULT:      -8.6      0.000      0.000
REMARK  Name = 
REMARK  3 active torsions:
REMARK  status: ('A' for Active; 'I' for Inactive)
REMARK    1  A    between atoms: N_2  and  C_4
REMARK    2  A    between atoms: C_8  and  C_9
REMARK    3  A    between atoms: C_15  and  C_16
REMARK                            x       y       z     vdW  Elec       q    Type
REMARK                         _______ _______ _______ _____ _____    ______ ____
ROOT
ATOM      1  C   UNL     1       2.239   6.144  19.990  0.00  0.00    +0.000 C 
ATOM      2  N   UNL     1       3.439   5.906  19.533  0.00  0.00    +0.000 NA
ATOM      3  N   UNL     1       3.876   4.595  19.587  0.00  0.00    +0.000 N 
ATOM      4  C   UNL     1       3.385   3.559  20.342  0.00  0.00    +0.000 A 
ATOM      5  N   UNL     1       4.051   2.454  20.131  0.00  0.00    +0.000 NA
ATOM      6  N   UNL     1       5.026   2.749  19.209  0.00  0.00    +0.000 NA
ATOM      7  C   UNL     1       4.953   4.039  18.904  0.00  0.00    +0.000 A 
ATOM      8  S   UNL     1       2.050   3.791  21.399  0.00  0.00    +0.000 S 
ATOM      9  C   UNL     1       1.241   5.077  20.430  0.00  0.00    +0.000 C 
ENDROOT
BRANCH   1  14
ATOM     10  C   UNL     1       0.715   9.384  21.240  0.00  0.00    +0.000 A 
ATOM     11  C   UNL     1       0.733  10.179  20.085  0.00  0.00    +0.000 A 
ATOM     12  C   UNL     1       1.299   9.676  18.914  0.00  0.00    +0.000 A 
ATOM     13  C   UNL     1       1.823   8.381  18.890  0.00  0.00    +0.000 A 
ATOM     14  C   UNL     1       1.771   7.569  20.033  0.00  0.00    +0.000 A 
ATOM     15  C   UNL     1       1.239   8.083  21.223  0.00  0.00    +0.000 A 
BRANCH  10  17
ATOM     16  O   UNL     1      -0.897  10.618  22.363  0.00  0.00    +0.000 OA
ATOM     17  N   UNL     1       0.118   9.918  22.471  0.00  0.00    +0.000 N 
ATOM     18  O   UNL     1       0.664   9.628  23.545  0.00  0.00    +0.000 OA
ENDBRANCH  10  17
ENDBRANCH   1  14
BRANCH   7  19
ATOM     19  C   UNL     1       5.820   4.728  17.949  0.00  0.00    +0.000 A 
ATOM     20  C   UNL     1       5.852   4.302  16.620  0.00  0.00    +0.000 A 
ATOM     21  C   UNL     1       6.671   4.967  15.723  0.00  0.00    +0.000 A 
ATOM     22  N   UNL     1       7.454   6.012  16.061  0.00  0.00    +0.000 NA
ATOM     23  C   UNL     1       7.429   6.396  17.353  0.00  0.00    +0.000 A 
ATOM     24  C   UNL     1       6.643   5.792  18.321  0.00  0.00    +0.000 A 
ENDBRANCH   7  19
TORSDOF 3
ENDMDL
MODEL 2
REMARK VINA RESULT:      -8.5      0.037      1.149
REMARK  Name = 
REMARK  3 active torsions:
REMARK  status: ('A' for Active; 'I' for Inactive)
REMARK    1  A    between atoms: N_2  and  C_4
REMARK    2  A    between atoms: C_8  and  C_9
REMARK    3  A    between atoms: C_15  and  C_16
REMARK                            x       y       z     vdW  Elec       q    Type
REMARK                         _______ _______ _______ _____ _____    ______ ____
ROOT
ATOM      1  C   UNL     1       2.246   6.133  19.985  0.00  0.00    +0.000 C 
ATOM      2  N   UNL     1       3.438   5.886  19.513  0.00  0.00    +0.000 NA
ATOM      3  N   UNL     1       3.872   4.575  19.574  0.00  0.00    +0.000 N 
ATOM      4  C   UNL     1       3.388   3.548  20.347  0.00  0.00    +0.000 A 
ATOM      5  N   UNL     1       4.048   2.439  20.139  0.00  0.00    +0.000 NA
ATOM      6  N   UNL     1       5.010   2.722  19.199  0.00  0.00    +0.000 NA
ATOM      7  C   UNL     1       4.937   4.008  18.882  0.00  0.00    +0.000 A 
ATOM      8  S   UNL     1       2.070   3.795  21.422  0.00  0.00    +0.000 S 
ATOM      9  C   UNL     1       1.251   5.074  20.451  0.00  0.00    +0.000 C 
ENDROOT
BRANCH   1  14
ATOM     10  C   UNL     1       0.727   9.384  21.214  0.00  0.00    +0.000 A 
ATOM     11  C   UNL     1       0.753  10.174  20.055  0.00  0.00    +0.000 A 
ATOM     12  C   UNL     1       1.323   9.663  18.890  0.00  0.00    +0.000 A 
ATOM     13  C   UNL     1       1.842   8.366  18.873  0.00  0.00    +0.000 A 
ATOM     14  C   UNL     1       1.782   7.560  20.020  0.00  0.00    +0.000 A 
ATOM     15  C   UNL     1       1.247   8.080  21.205  0.00  0.00    +0.000 A 
BRANCH  10  17
ATOM     16  O   UNL     1       0.668   9.644  23.518  0.00  0.00    +0.000 OA
ATOM     17  N   UNL     1       0.127   9.925  22.440  0.00  0.00    +0.000 N 
ATOM     18  O   UNL     1      -0.880  10.636  22.320  0.00  0.00    +0.000 OA
ENDBRANCH  10  17
ENDBRANCH   1  14
BRANCH   7  19
ATOM     19  C   UNL     1       5.791   4.684  17.907  0.00  0.00    +0.000 A 
ATOM     20  C   UNL     1       6.591   5.752  18.317  0.00  0.00    +0.000 A 
ATOM     21  C   UNL     1       7.402   6.379  17.385  0.00  0.00    +0.000 A 
ATOM     22  N   UNL     1       7.463   6.019  16.087  0.00  0.00    +0.000 NA
ATOM     23  C   UNL     1       6.667   5.000  15.702  0.00  0.00    +0.000 A 
ATOM     24  C   UNL     1       5.824   4.315  16.561  0.00  0.00    +0.000 A 
ENDBRANCH   7  19
TORSDOF 3
ENDMDL
MODEL 3
REMARK VINA RESULT:      -8.0      1.798      2.108
REMARK  Name = 
REMARK  3 active torsions:
REMARK  status: ('A' for Active; 'I' for Inactive)
REMARK    1  A    between atoms: N_2  and  C_4
REMARK    2  A    between atoms: C_8  and  C_9
REMARK    3  A    between atoms: C_15  and  C_16
REMARK                            x       y       z     vdW  Elec       q    Type
REMARK                         _______ _______ _______ _____ _____    ______ ____
ROOT
ATOM      1  C   UNL     1       2.114   5.809  20.200  0.00  0.00    +0.000 C 
ATOM      2  N   UNL     1       3.337   5.663  19.764  0.00  0.00    +0.000 NA
ATOM      3  N   UNL     1       3.837   4.375  19.737  0.00  0.00    +0.000 N 
ATOM      4  C   UNL     1       3.378   3.263  20.400  0.00  0.00    +0.000 A 
ATOM      5  N   UNL     1       4.105   2.211  20.131  0.00  0.00    +0.000 NA
ATOM      6  N   UNL     1       5.088   2.619  19.262  0.00  0.00    +0.000 NA
ATOM      7  C   UNL     1       4.959   3.923  19.050  0.00  0.00    +0.000 A 
ATOM      8  S   UNL     1       2.005   3.352  21.430  0.00  0.00    +0.000 S 
ATOM      9  C   UNL     1       1.159   4.666  20.531  0.00  0.00    +0.000 C 
ENDROOT
BRANCH   1  14
ATOM     10  C   UNL     1       1.364   9.452  19.458  0.00  0.00    +0.000 A 
ATOM     11  C   UNL     1       0.720   9.862  20.633  0.00  0.00    +0.000 A 
ATOM     12  C   UNL     1       0.477   8.932  21.643  0.00  0.00    +0.000 A 
ATOM     13  C   UNL     1       0.894   7.608  21.490  0.00  0.00    +0.000 A 
ATOM     14  C   UNL     1       1.574   7.203  20.332  0.00  0.00    +0.000 A 
ATOM     15  C   UNL     1       1.787   8.124  19.297  0.00  0.00    +0.000 A 
BRANCH  10  17
ATOM     16  O   UNL     1       1.283  11.608  18.605  0.00  0.00    +0.000 OA
ATOM     17  N   UNL     1       1.618  10.435  18.396  0.00  0.00    +0.000 N 
ATOM     18  O   UNL     1       2.160  10.030  17.358  0.00  0.00    +0.000 OA
ENDBRANCH  10  17
ENDBRANCH   1  14
BRANCH   7  19
ATOM     19  C   UNL     1       5.815   4.721  18.173  0.00  0.00    +0.000 A 
ATOM     20  C   UNL     1       5.766   4.518  16.793  0.00  0.00    +0.000 A 
ATOM     21  C   UNL     1       6.577   5.285  15.973  0.00  0.00    +0.000 A 
ATOM     22  N   UNL     1       7.426   6.225  16.434  0.00  0.00    +0.000 NA
ATOM     23  C   UNL     1       7.479   6.393  17.771  0.00  0.00    +0.000 A 
ATOM     24  C   UNL     1       6.708   5.673  18.668  0.00  0.00    +0.000 A 
ENDBRANCH   7  19
TORSDOF 3
ENDMDL
MODEL 4
REMARK VINA RESULT:      -8.0      1.792      2.338
REMARK  Name = 
REMARK  3 active torsions:
REMARK  status: ('A' for Active; 'I' for Inactive)
REMARK    1  A    between atoms: N_2  and  C_4
REMARK    2  A    between atoms: C_8  and  C_9
REMARK    3  A    between atoms: C_15  and  C_16
REMARK                            x       y       z     vdW  Elec       q    Type
REMARK                         _______ _______ _______ _____ _____    ______ ____
ROOT
ATOM      1  C   UNL     1       2.106   5.802  20.211  0.00  0.00    +0.000 C 
ATOM      2  N   UNL     1       3.330   5.664  19.776  0.00  0.00    +0.000 NA
ATOM      3  N   UNL     1       3.835   4.377  19.742  0.00  0.00    +0.000 N 
ATOM      4  C   UNL     1       3.380   3.260  20.397  0.00  0.00    +0.000 A 
ATOM      5  N   UNL     1       4.111   2.212  20.123  0.00  0.00    +0.000 NA
ATOM      6  N   UNL     1       5.094   2.630  19.259  0.00  0.00    +0.000 NA
ATOM      7  C   UNL     1       4.960   3.934  19.054  0.00  0.00    +0.000 A 
ATOM      8  S   UNL     1       2.004   3.337  21.426  0.00  0.00    +0.000 S 
ATOM      9  C   UNL     1       1.155   4.653  20.534  0.00  0.00    +0.000 C 
ENDROOT
BRANCH   1  14
ATOM     10  C   UNL     1       1.326   9.441  19.480  0.00  0.00    +0.000 A 
ATOM     11  C   UNL     1       0.696   9.847  20.664  0.00  0.00    +0.000 A 
ATOM     12  C   UNL     1       0.472   8.916  21.677  0.00  0.00    +0.000 A 
ATOM     13  C   UNL     1       0.894   7.594  21.518  0.00  0.00    +0.000 A 
ATOM     14  C   UNL     1       1.560   7.193  20.350  0.00  0.00    +0.000 A 
ATOM     15  C   UNL     1       1.753   8.115  19.313  0.00  0.00    +0.000 A 
BRANCH  10  17
ATOM     16  O   UNL     1       2.234  10.068  17.439  0.00  0.00    +0.000 OA
ATOM     17  N   UNL     1       1.559  10.425  18.414  0.00  0.00    +0.000 N 
ATOM     18  O   UNL     1       1.061  11.550  18.554  0.00  0.00    +0.000 OA
ENDBRANCH  10  17
ENDBRANCH   1  14
BRANCH   7  19
ATOM     19  C   UNL     1       5.815   4.741  18.184  0.00  0.00    +0.000 A 
ATOM     20  C   UNL     1       6.695   5.664  18.750  0.00  0.00    +0.000 A 
ATOM     21  C   UNL     1       7.505   6.417  17.916  0.00  0.00    +0.000 A 
ATOM     22  N   UNL     1       7.491   6.314  16.571  0.00  0.00    +0.000 NA
ATOM     23  C   UNL     1       6.618   5.434  16.039  0.00  0.00    +0.000 A 
ATOM     24  C   UNL     1       5.770   4.640  16.792  0.00  0.00    +0.000 A 
ENDBRANCH   7  19
TORSDOF 3
ENDMDL
MODEL 5
REMARK VINA RESULT:      -7.6      3.992      6.148
REMARK  Name = 
REMARK  3 active torsions:
REMARK  status: ('A' for Active; 'I' for Inactive)
REMARK    1  A    between atoms: N_2  and  C_4
REMARK    2  A    between atoms: C_8  and  C_9
REMARK    3  A    between atoms: C_15  and  C_16
REMARK                            x       y       z     vdW  Elec       q    Type
REMARK                         _______ _______ _______ _____ _____    ______ ____
ROOT
ATOM      1  C   UNL     1       5.060   4.095  17.129  0.00  0.00    +0.000 C 
ATOM      2  N   UNL     1       5.061   4.098  15.823  0.00  0.00    +0.000 NA
ATOM      3  N   UNL     1       6.165   4.656  15.205  0.00  0.00    +0.000 N 
ATOM      4  C   UNL     1       7.108   5.502  15.735  0.00  0.00    +0.000 A 
ATOM      5  N   UNL     1       8.013   5.826  14.850  0.00  0.00    +0.000 NA
ATOM      6  N   UNL     1       7.674   5.184  13.684  0.00  0.00    +0.000 NA
ATOM      7  C   UNL     1       6.547   4.511  13.875  0.00  0.00    +0.000 A 
ATOM      8  S   UNL     1       7.019   6.008  17.376  0.00  0.00    +0.000 S 
ATOM      9  C   UNL     1       6.233   4.514  18.009  0.00  0.00    +0.000 C 
ENDROOT
BRANCH   1  14
ATOM     10  C   UNL     1       2.381   3.593  19.768  0.00  0.00    +0.000 A 
ATOM     11  C   UNL     1       1.649   2.521  19.240  0.00  0.00    +0.000 A 
ATOM     12  C   UNL     1       1.995   2.002  17.993  0.00  0.00    +0.000 A 
ATOM     13  C   UNL     1       3.077   2.535  17.288  0.00  0.00    +0.000 A 
ATOM     14  C   UNL     1       3.836   3.582  17.831  0.00  0.00    +0.000 A 
ATOM     15  C   UNL     1       3.470   4.134  19.066  0.00  0.00    +0.000 A 
BRANCH  10  17
ATOM     16  O   UNL     1       2.145   3.400  22.068  0.00  0.00    +0.000 OA
ATOM     17  N   UNL     1       2.014   4.138  21.082  0.00  0.00    +0.000 N 
ATOM     18  O   UNL     1       1.602   5.305  21.124  0.00  0.00    +0.000 OA
ENDBRANCH  10  17
ENDBRANCH   1  14
BRANCH   7  19
ATOM     19  C   UNL     1       5.874   3.693  12.867  0.00  0.00    +0.000 A 
ATOM     20  C   UNL     1       6.516   2.562  12.359  0.00  0.00    +0.000 A 
ATOM     21  C   UNL     1       5.865   1.792  11.410  0.00  0.00    +0.000 A 
ATOM     22  N   UNL     1       4.634   2.074  10.936  0.00  0.00    +0.000 NA
ATOM     23  C   UNL     1       4.037   3.183  11.420  0.00  0.00    +0.000 A 
ATOM     24  C   UNL     1       4.610   4.014  12.368  0.00  0.00    +0.000 A 
ENDBRANCH   7  19
TORSDOF 3
ENDMDL
MODEL 6
REMARK VINA RESULT:      -7.6      4.677      6.409
REMARK  Name = 
REMARK  3 active torsions:
REMARK  status: ('A' for Active; 'I' for Inactive)
REMARK    1  A    between atoms: N_2  and  C_4
REMARK    2  A    between atoms: C_8  and  C_9
REMARK    3  A    between atoms: C_15  and  C_16
REMARK                            x       y       z     vdW  Elec       q    Type
REMARK                         _______ _______ _______ _____ _____    ______ ____
ROOT
ATOM      1  C   UNL     1       5.102   4.157  17.167  0.00  0.00    +0.000 C 
ATOM      2  N   UNL     1       5.110   4.143  15.861  0.00  0.00    +0.000 NA
ATOM      3  N   UNL     1       6.223   4.679  15.241  0.00  0.00    +0.000 N 
ATOM      4  C   UNL     1       7.174   5.520  15.765  0.00  0.00    +0.000 A 
ATOM      5  N   UNL     1       8.088   5.821  14.880  0.00  0.00    +0.000 NA
ATOM      6  N   UNL     1       7.747   5.168  13.721  0.00  0.00    +0.000 NA
ATOM      7  C   UNL     1       6.610   4.511  13.916  0.00  0.00    +0.000 A 
ATOM      8  S   UNL     1       7.083   6.049  17.398  0.00  0.00    +0.000 S 
ATOM      9  C   UNL     1       6.276   4.574  18.047  0.00  0.00    +0.000 C 
ENDROOT
BRANCH   1  14
ATOM     10  C   UNL     1       2.798   2.849  19.881  0.00  0.00    +0.000 A 
ATOM     11  C   UNL     1       1.619   2.595  19.165  0.00  0.00    +0.000 A 
ATOM     12  C   UNL     1       1.560   2.909  17.808  0.00  0.00    +0.000 A 
ATOM     13  C   UNL     1       2.675   3.451  17.165  0.00  0.00    +0.000 A 
ATOM     14  C   UNL     1       3.868   3.670  17.869  0.00  0.00    +0.000 A 
ATOM     15  C   UNL     1       3.922   3.393  19.242  0.00  0.00    +0.000 A 
BRANCH  10  17
ATOM     16  O   UNL     1       3.872   1.943  21.727  0.00  0.00    +0.000 OA
ATOM     17  N   UNL     1       2.857   2.517  21.310  0.00  0.00    +0.000 N 
ATOM     18  O   UNL     1       1.889   2.838  22.014  0.00  0.00    +0.000 OA
ENDBRANCH  10  17
ENDBRANCH   1  14
BRANCH   7  19
ATOM     19  C   UNL     1       5.933   3.688  12.915  0.00  0.00    +0.000 A 
ATOM     20  C   UNL     1       4.643   4.029  12.503  0.00  0.00    +0.000 A 
ATOM     21  C   UNL     1       4.014   3.246  11.549  0.00  0.00    +0.000 A 
ATOM     22  N   UNL     1       4.578   2.157  10.990  0.00  0.00    +0.000 NA
ATOM     23  C   UNL     1       5.815   1.827  11.415  0.00  0.00    +0.000 A 
ATOM     24  C   UNL     1       6.520   2.548  12.364  0.00  0.00    +0.000 A 
ENDBRANCH   7  19
TORSDOF 3
ENDMDL
MODEL 7
REMARK VINA RESULT:      -7.1      4.151      7.643
REMARK  Name = 
REMARK  3 active torsions:
REMARK  status: ('A' for Active; 'I' for Inactive)
REMARK    1  A    between atoms: N_2  and  C_4
REMARK    2  A    between atoms: C_8  and  C_9
REMARK    3  A    between atoms: C_15  and  C_16
REMARK                            x       y       z     vdW  Elec       q    Type
REMARK                         _______ _______ _______ _____ _____    ______ ____
ROOT
ATOM      1  C   UNL     1       2.243   6.056  19.349  0.00  0.00    +0.000 C 
ATOM      2  N   UNL     1       1.955   7.151  20.000  0.00  0.00    +0.000 NA
ATOM      3  N   UNL     1       1.943   8.324  19.268  0.00  0.00    +0.000 N 
ATOM      4  C   UNL     1       2.504   8.573  18.039  0.00  0.00    +0.000 A 
ATOM      5  N   UNL     1       2.288   9.803  17.654  0.00  0.00    +0.000 NA
ATOM      6  N   UNL     1       1.562  10.408  18.651  0.00  0.00    +0.000 NA
ATOM      7  C   UNL     1       1.383   9.541  19.639  0.00  0.00    +0.000 A 
ATOM      8  S   UNL     1       3.361   7.346  17.194  0.00  0.00    +0.000 S 
ATOM      9  C   UNL     1       2.414   5.953  17.837  0.00  0.00    +0.000 C 
ENDROOT
BRANCH   1  14
ATOM     10  C   UNL     1       3.504   2.691  20.563  0.00  0.00    +0.000 A 
ATOM     11  C   UNL     1       2.498   2.310  21.462  0.00  0.00    +0.000 A 
ATOM     12  C   UNL     1       1.440   3.180  21.716  0.00  0.00    +0.000 A 
ATOM     13  C   UNL     1       1.373   4.413  21.061  0.00  0.00    +0.000 A 
ATOM     14  C   UNL     1       2.358   4.780  20.132  0.00  0.00    +0.000 A 
ATOM     15  C   UNL     1       3.445   3.927  19.901  0.00  0.00    +0.000 A 
BRANCH  10  17
ATOM     16  O   UNL     1       5.427   1.567  21.213  0.00  0.00    +0.000 OA
ATOM     17  N   UNL     1       4.619   1.771  20.298  0.00  0.00    +0.000 N 
ATOM     18  O   UNL     1       4.677   1.250  19.175  0.00  0.00    +0.000 OA
ENDBRANCH  10  17
ENDBRANCH   1  14
BRANCH   7  19
ATOM     19  C   UNL     1       0.647   9.813  20.874  0.00  0.00    +0.000 A 
ATOM     20  C   UNL     1       0.958   9.098  22.031  0.00  0.00    +0.000 A 
ATOM     21  C   UNL     1       0.259   9.370  23.196  0.00  0.00    +0.000 A 
ATOM     22  N   UNL     1      -0.720  10.293  23.279  0.00  0.00    +0.000 NA
ATOM     23  C   UNL     1      -1.024  10.960  22.147  0.00  0.00    +0.000 A 
ATOM     24  C   UNL     1      -0.381  10.755  20.937  0.00  0.00    +0.000 A 
ENDBRANCH   7  19
TORSDOF 3
ENDMDL
MODEL 8
REMARK VINA RESULT:      -7.0      1.971      2.440
REMARK  Name = 
REMARK  3 active torsions:
REMARK  status: ('A' for Active; 'I' for Inactive)
REMARK    1  A    between atoms: N_2  and  C_4
REMARK    2  A    between atoms: C_8  and  C_9
REMARK    3  A    between atoms: C_15  and  C_16
REMARK                            x       y       z     vdW  Elec       q    Type
REMARK                         _______ _______ _______ _____ _____    ______ ____
ROOT
ATOM      1  C   UNL     1       2.003   5.801  20.088  0.00  0.00    +0.000 C 
ATOM      2  N   UNL     1       3.026   5.594  19.304  0.00  0.00    +0.000 NA
ATOM      3  N   UNL     1       3.480   4.291  19.206  0.00  0.00    +0.000 N 
ATOM      4  C   UNL     1       3.239   3.234  20.050  0.00  0.00    +0.000 A 
ATOM      5  N   UNL     1       3.834   2.147  19.637  0.00  0.00    +0.000 NA
ATOM      6  N   UNL     1       4.501   2.474  18.481  0.00  0.00    +0.000 NA
ATOM      7  C   UNL     1       4.325   3.766  18.235  0.00  0.00    +0.000 A 
ATOM      8  S   UNL     1       2.257   3.425  21.448  0.00  0.00    +0.000 S 
ATOM      9  C   UNL     1       1.187   4.709  20.774  0.00  0.00    +0.000 C 
ENDROOT
BRANCH   1  14
ATOM     10  C   UNL     1       1.399   9.498  19.491  0.00  0.00    +0.000 A 
ATOM     11  C   UNL     1       0.851   9.905  20.716  0.00  0.00    +0.000 A 
ATOM     12  C   UNL     1       0.623   8.959  21.714  0.00  0.00    +0.000 A 
ATOM     13  C   UNL     1       0.960   7.620  21.500  0.00  0.00    +0.000 A 
ATOM     14  C   UNL     1       1.545   7.216  20.290  0.00  0.00    +0.000 A 
ATOM     15  C   UNL     1       1.741   8.155  19.269  0.00  0.00    +0.000 A 
BRANCH  10  17
ATOM     16  O   UNL     1       1.339  11.673  18.687  0.00  0.00    +0.000 OA
ATOM     17  N   UNL     1       1.637  10.497  18.441  0.00  0.00    +0.000 N 
ATOM     18  O   UNL     1       2.129  10.103  17.375  0.00  0.00    +0.000 OA
ENDBRANCH  10  17
ENDBRANCH   1  14
BRANCH   7  19
ATOM     19  C   UNL     1       4.873   4.485  17.086  0.00  0.00    +0.000 A 
ATOM     20  C   UNL     1       4.718   5.870  17.003  0.00  0.00    +0.000 A 
ATOM     21  C   UNL     1       5.248   6.540  15.914  0.00  0.00    +0.000 A 
ATOM     22  N   UNL     1       5.910   5.928  14.911  0.00  0.00    +0.000 NA
ATOM     23  C   UNL     1       6.031   4.587  14.993  0.00  0.00    +0.000 A 
ATOM     24  C   UNL     1       5.534   3.832  16.043  0.00  0.00    +0.000 A 
ENDBRANCH   7  19
TORSDOF 3
ENDMDL
MODEL 9
REMARK VINA RESULT:      -6.8      1.956      2.260
REMARK  Name = 
REMARK  3 active torsions:
REMARK  status: ('A' for Active; 'I' for Inactive)
REMARK    1  A    between atoms: N_2  and  C_4
REMARK    2  A    between atoms: C_8  and  C_9
REMARK    3  A    between atoms: C_15  and  C_16
REMARK                            x       y       z     vdW  Elec       q    Type
REMARK                         _______ _______ _______ _____ _____    ______ ____
ROOT
ATOM      1  C   UNL     1       1.945   5.972  20.149  0.00  0.00    +0.000 C 
ATOM      2  N   UNL     1       2.967   5.758  19.364  0.00  0.00    +0.000 NA
ATOM      3  N   UNL     1       3.377   4.445  19.223  0.00  0.00    +0.000 N 
ATOM      4  C   UNL     1       3.094   3.367  20.026  0.00  0.00    +0.000 A 
ATOM      5  N   UNL     1       3.655   2.275  19.578  0.00  0.00    +0.000 NA
ATOM      6  N   UNL     1       4.341   2.621  18.440  0.00  0.00    +0.000 NA
ATOM      7  C   UNL     1       4.212   3.926  18.239  0.00  0.00    +0.000 A 
ATOM      8  S   UNL     1       2.108   3.542  21.423  0.00  0.00    +0.000 S 
ATOM      9  C   UNL     1       1.087   4.885  20.789  0.00  0.00    +0.000 C 
ENDROOT
BRANCH   1  14
ATOM     10  C   UNL     1       1.275   9.664  19.596  0.00  0.00    +0.000 A 
ATOM     11  C   UNL     1       0.933  10.095  20.886  0.00  0.00    +0.000 A 
ATOM     12  C   UNL     1       0.863   9.166  21.923  0.00  0.00    +0.000 A 
ATOM     13  C   UNL     1       1.154   7.821  21.680  0.00  0.00    +0.000 A 
ATOM     14  C   UNL     1       1.534   7.394  20.399  0.00  0.00    +0.000 A 
ATOM     15  C   UNL     1       1.569   8.316  19.344  0.00  0.00    +0.000 A 
BRANCH  10  17
ATOM     16  O   UNL     1       0.431  11.472  18.412  0.00  0.00    +0.000 OA
ATOM     17  N   UNL     1       1.348  10.646  18.505  0.00  0.00    +0.000 N 
ATOM     18  O   UNL     1       2.328  10.591  17.749  0.00  0.00    +0.000 OA
ENDBRANCH  10  17
ENDBRANCH   1  14
BRANCH   7  19
ATOM     19  C   UNL     1       4.794   4.667  17.120  0.00  0.00    +0.000 A 
ATOM     20  C   UNL     1       5.593   3.996  16.193  0.00  0.00    +0.000 A 
ATOM     21  C   UNL     1       6.132   4.706  15.134  0.00  0.00    +0.000 A 
ATOM     22  N   UNL     1       5.933   6.027  14.944  0.00  0.00    +0.000 NA
ATOM     23  C   UNL     1       5.178   6.665  15.861  0.00  0.00    +0.000 A 
ATOM     24  C   UNL     1       4.599   6.039  16.952  0.00  0.00    +0.000 A 
ENDBRANCH   7  19
TORSDOF 3
ENDMDL
