MODEL 1
REMARK VINA RESULT:      -6.7      0.000      0.000
REMARK  Name = 
REMARK  5 active torsions:
REMARK  status: ('A' for Active; 'I' for Inactive)
REMARK    1  A    between atoms: C_1  and  O_2
REMARK    2  A    between atoms: O_2  and  C_3
REMARK    3  A    between atoms: C_3  and  C_5
REMARK    4  A    between atoms: C_9  and  N_10
REMARK    5  A    between atoms: N_13  and  C_14
REMARK                            x       y       z     vdW  Elec       q    Type
REMARK                         _______ _______ _______ _____ _____    ______ ____
ROOT
ATOM      1  N   UNL     1       5.619   3.142  16.307  0.00  0.00    +0.000 N 
ATOM      2  C   UNL     1       4.410   3.541  16.854  0.00  0.00    +0.000 C 
ATOM      3  O   UNL     1       3.677   4.376  16.340  0.00  0.00    +0.000 OA
ATOM      4  N   UNL     1       4.133   2.917  18.056  0.00  0.00    +0.000 N 
ATOM      5  H   UNL     1       5.995   2.238  16.565  0.00  0.00    +0.000 HD
ATOM      6  H   UNL     1       4.914   2.488  18.540  0.00  0.00    +0.000 HD
ENDROOT
BRANCH   4   7
ATOM      7  C   UNL     1       2.989   3.188  18.869  0.00  0.00    +0.000 A 
ATOM      8  C   UNL     1       1.929   2.278  18.987  0.00  0.00    +0.000 A 
ATOM      9  C   UNL     1       0.774   2.599  19.701  0.00  0.00    +0.000 A 
ATOM     10  C   UNL     1       0.671   3.830  20.336  0.00  0.00    +0.000 A 
ATOM     11  C   UNL     1       1.735   4.734  20.279  0.00  0.00    +0.000 A 
ATOM     12 CL   UNL     1       1.536   6.239  21.108  0.00  0.00    +0.000 Cl
ATOM     13  C   UNL     1       2.900   4.415  19.556  0.00  0.00    +0.000 A 
ATOM     14 CL   UNL     1       4.227   5.535  19.465  0.00  0.00    +0.000 Cl
ENDBRANCH   4   7
BRANCH   1  19
ATOM     15  C   UNL     1       7.016   4.904  15.278  0.00  0.00    +0.000 A 
ATOM     16  S   UNL     1       7.550   5.407  13.715  0.00  0.00    +0.000 S 
ATOM     17  C   UNL     1       6.725   4.144  12.938  0.00  0.00    +0.000 A 
ATOM     18  C   UNL     1       6.034   3.368  13.834  0.00  0.00    +0.000 A 
ATOM     19  C   UNL     1       6.204   3.779  15.201  0.00  0.00    +0.000 A 
BRANCH  15  20
ATOM     20  C   UNL     1       7.505   5.680  16.408  0.00  0.00    +0.000 C 
ATOM     21  O   UNL     1       7.637   6.900  16.447  0.00  0.00    +0.000 OA
BRANCH  20  23
ATOM     22  C   UNL     1       7.719   5.497  18.726  0.00  0.00    +0.000 C 
ATOM     23  O   UNL     1       7.831   4.854  17.452  0.00  0.00    +0.000 OA
ENDBRANCH  20  23
ENDBRANCH  15  20
ENDBRANCH   1  19
TORSDOF 4
ENDMDL
MODEL 2
REMARK VINA RESULT:      -6.6      4.726      6.711
REMARK  Name = 
REMARK  5 active torsions:
REMARK  status: ('A' for Active; 'I' for Inactive)
REMARK    1  A    between atoms: C_1  and  O_2
REMARK    2  A    between atoms: O_2  and  C_3
REMARK    3  A    between atoms: C_3  and  C_5
REMARK    4  A    between atoms: C_9  and  N_10
REMARK    5  A    between atoms: N_13  and  C_14
REMARK                            x       y       z     vdW  Elec       q    Type
REMARK                         _______ _______ _______ _____ _____    ______ ____
ROOT
ATOM      1  N   UNL     1       2.682   6.166  20.432  0.00  0.00    +0.000 N 
ATOM      2  C   UNL     1       2.069   7.297  19.915  0.00  0.00    +0.000 C 
ATOM      3  O   UNL     1       1.979   7.530  18.717  0.00  0.00    +0.000 OA
ATOM      4  N   UNL     1       1.596   8.147  20.898  0.00  0.00    +0.000 N 
ATOM      5  H   UNL     1       2.427   5.856  21.362  0.00  0.00    +0.000 HD
ATOM      6  H   UNL     1       1.978   8.027  21.829  0.00  0.00    +0.000 HD
ENDROOT
BRANCH   4   7
ATOM      7  C   UNL     1       0.982   9.413  20.650  0.00  0.00    +0.000 A 
ATOM      8  C   UNL     1       1.027  10.026  19.390  0.00  0.00    +0.000 A 
ATOM      9  C   UNL     1       0.512  11.308  19.188  0.00  0.00    +0.000 A 
ATOM     10  C   UNL     1      -0.084  11.989  20.242  0.00  0.00    +0.000 A 
ATOM     11  C   UNL     1      -0.189  11.379  21.494  0.00  0.00    +0.000 A 
ATOM     12 CL   UNL     1      -0.959  12.287  22.750  0.00  0.00    +0.000 Cl
ATOM     13  C   UNL     1       0.332  10.089  21.702  0.00  0.00    +0.000 A 
ATOM     14 CL   UNL     1       0.220   9.322  23.259  0.00  0.00    +0.000 Cl
ENDBRANCH   4   7
BRANCH   1  19
ATOM     15  C   UNL     1       2.877   4.117  19.062  0.00  0.00    +0.000 A 
ATOM     16  S   UNL     1       4.070   3.251  18.161  0.00  0.00    +0.000 S 
ATOM     17  C   UNL     1       5.281   4.384  18.522  0.00  0.00    +0.000 A 
ATOM     18  C   UNL     1       4.808   5.387  19.330  0.00  0.00    +0.000 A 
ATOM     19  C   UNL     1       3.410   5.263  19.641  0.00  0.00    +0.000 A 
BRANCH  15  20
ATOM     20  C   UNL     1       1.533   3.562  19.052  0.00  0.00    +0.000 C 
ATOM     21  O   UNL     1       0.984   3.006  18.105  0.00  0.00    +0.000 OA
BRANCH  20  23
ATOM     22  C   UNL     1       1.307   2.787  21.244  0.00  0.00    +0.000 C 
ATOM     23  O   UNL     1       0.924   3.758  20.264  0.00  0.00    +0.000 OA
ENDBRANCH  20  23
ENDBRANCH  15  20
ENDBRANCH   1  19
TORSDOF 4
ENDMDL
MODEL 3
REMARK VINA RESULT:      -6.5      4.474      5.759
REMARK  Name = 
REMARK  5 active torsions:
REMARK  status: ('A' for Active; 'I' for Inactive)
REMARK    1  A    between atoms: C_1  and  O_2
REMARK    2  A    between atoms: O_2  and  C_3
REMARK    3  A    between atoms: C_3  and  C_5
REMARK    4  A    between atoms: C_9  and  N_10
REMARK    5  A    between atoms: N_13  and  C_14
REMARK                            x       y       z     vdW  Elec       q    Type
REMARK                         _______ _______ _______ _____ _____    ______ ____
ROOT
ATOM      1  N   UNL     1       2.653   6.613  18.595  0.00  0.00    +0.000 N 
ATOM      2  C   UNL     1       1.997   7.066  19.729  0.00  0.00    +0.000 C 
ATOM      3  O   UNL     1       1.645   6.333  20.645  0.00  0.00    +0.000 OA
ATOM      4  N   UNL     1       1.757   8.427  19.704  0.00  0.00    +0.000 N 
ATOM      5  H   UNL     1       3.214   7.268  18.064  0.00  0.00    +0.000 HD
ATOM      6  H   UNL     1       1.806   8.883  18.799  0.00  0.00    +0.000 HD
ENDROOT
BRANCH   4   7
ATOM      7  C   UNL     1       1.041   9.145  20.710  0.00  0.00    +0.000 A 
ATOM      8  C   UNL     1       1.180   8.850  22.074  0.00  0.00    +0.000 A 
ATOM      9  C   UNL     1       0.399   9.490  23.037  0.00  0.00    +0.000 A 
ATOM     10  C   UNL     1      -0.518  10.461  22.654  0.00  0.00    +0.000 A 
ATOM     11  C   UNL     1      -0.637  10.812  21.307  0.00  0.00    +0.000 A 
ATOM     12 CL   UNL     1      -1.790  12.040  20.912  0.00  0.00    +0.000 Cl
ATOM     13  C   UNL     1       0.145  10.166  20.332  0.00  0.00    +0.000 A 
ATOM     14 CL   UNL     1      -0.002  10.582  18.650  0.00  0.00    +0.000 Cl
ENDBRANCH   4   7
BRANCH   1  19
ATOM     15  C   UNL     1       4.048   4.589  18.326  0.00  0.00    +0.000 A 
ATOM     16  S   UNL     1       3.872   2.921  17.914  0.00  0.00    +0.000 S 
ATOM     17  C   UNL     1       2.192   3.064  17.719  0.00  0.00    +0.000 A 
ATOM     18  C   UNL     1       1.767   4.351  17.932  0.00  0.00    +0.000 A 
ATOM     19  C   UNL     1       2.825   5.251  18.305  0.00  0.00    +0.000 A 
BRANCH  15  20
ATOM     20  C   UNL     1       5.393   5.034  18.657  0.00  0.00    +0.000 C 
ATOM     21  O   UNL     1       6.190   4.450  19.386  0.00  0.00    +0.000 OA
BRANCH  20  23
ATOM     22  C   UNL     1       6.190   6.084  16.730  0.00  0.00    +0.000 C 
ATOM     23  O   UNL     1       5.665   6.233  18.053  0.00  0.00    +0.000 OA
ENDBRANCH  20  23
ENDBRANCH  15  20
ENDBRANCH   1  19
TORSDOF 4
ENDMDL
MODEL 4
REMARK VINA RESULT:      -6.3      5.646      7.910
REMARK  Name = 
REMARK  5 active torsions:
REMARK  status: ('A' for Active; 'I' for Inactive)
REMARK    1  A    between atoms: C_1  and  O_2
REMARK    2  A    between atoms: O_2  and  C_3
REMARK    3  A    between atoms: C_3  and  C_5
REMARK    4  A    between atoms: C_9  and  N_10
REMARK    5  A    between atoms: N_13  and  C_14
REMARK                            x       y       z     vdW  Elec       q    Type
REMARK                         _______ _______ _______ _____ _____    ______ ____
ROOT
ATOM      1  N   UNL     1       1.655   8.484  21.551  0.00  0.00    +0.000 N 
ATOM      2  C   UNL     1       1.255   7.264  21.026  0.00  0.00    +0.000 C 
ATOM      3  O   UNL     1       0.101   7.012  20.706  0.00  0.00    +0.000 OA
ATOM      4  N   UNL     1       2.292   6.355  20.930  0.00  0.00    +0.000 N 
ATOM      5  H   UNL     1       2.627   8.754  21.465  0.00  0.00    +0.000 HD
ATOM      6  H   UNL     1       3.118   6.543  21.487  0.00  0.00    +0.000 HD
ENDROOT
BRANCH   4   7
ATOM      7  C   UNL     1       2.150   5.004  20.488  0.00  0.00    +0.000 A 
ATOM      8  C   UNL     1       1.857   3.959  21.375  0.00  0.00    +0.000 A 
ATOM      9  C   UNL     1       1.822   2.631  20.946  0.00  0.00    +0.000 A 
ATOM     10  C   UNL     1       2.052   2.328  19.610  0.00  0.00    +0.000 A 
ATOM     11  C   UNL     1       2.292   3.356  18.695  0.00  0.00    +0.000 A 
ATOM     12 CL   UNL     1       2.553   2.899  17.047  0.00  0.00    +0.000 Cl
ATOM     13  C   UNL     1       2.332   4.695  19.125  0.00  0.00    +0.000 A 
ATOM     14 CL   UNL     1       2.644   5.984  17.999  0.00  0.00    +0.000 Cl
ENDBRANCH   4   7
BRANCH   1  19
ATOM     15  C   UNL     1       0.523  10.655  21.204  0.00  0.00    +0.000 A 
ATOM     16  S   UNL     1      -0.658  11.654  21.972  0.00  0.00    +0.000 S 
ATOM     17  C   UNL     1      -0.879  10.553  23.245  0.00  0.00    +0.000 A 
ATOM     18  C   UNL     1      -0.060   9.460  23.114  0.00  0.00    +0.000 A 
ATOM     19  C   UNL     1       0.749   9.488  21.926  0.00  0.00    +0.000 A 
BRANCH  15  20
ATOM     20  C   UNL     1       1.060  11.143  19.944  0.00  0.00    +0.000 C 
ATOM     21  O   UNL     1       1.407  12.296  19.701  0.00  0.00    +0.000 OA
BRANCH  20  23
ATOM     22  C   UNL     1      -0.075  10.025  18.236  0.00  0.00    +0.000 C 
ATOM     23  O   UNL     1       1.117  10.131  19.022  0.00  0.00    +0.000 OA
ENDBRANCH  20  23
ENDBRANCH  15  20
ENDBRANCH   1  19
TORSDOF 4
ENDMDL
MODEL 5
REMARK VINA RESULT:      -6.2      4.275      5.972
REMARK  Name = 
REMARK  5 active torsions:
REMARK  status: ('A' for Active; 'I' for Inactive)
REMARK    1  A    between atoms: C_1  and  O_2
REMARK    2  A    between atoms: O_2  and  C_3
REMARK    3  A    between atoms: C_3  and  C_5
REMARK    4  A    between atoms: C_9  and  N_10
REMARK    5  A    between atoms: N_13  and  C_14
REMARK                            x       y       z     vdW  Elec       q    Type
REMARK                         _______ _______ _______ _____ _____    ______ ____
ROOT
ATOM      1  N   UNL     1       2.954   5.553  20.227  0.00  0.00    +0.000 N 
ATOM      2  C   UNL     1       1.857   6.352  20.513  0.00  0.00    +0.000 C 
ATOM      3  O   UNL     1       0.702   5.945  20.501  0.00  0.00    +0.000 OA
ATOM      4  N   UNL     1       2.203   7.662  20.786  0.00  0.00    +0.000 N 
ATOM      5  H   UNL     1       3.861   5.827  20.584  0.00  0.00    +0.000 HD
ATOM      6  H   UNL     1       3.120   7.966  20.479  0.00  0.00    +0.000 HD
ENDROOT
BRANCH   4   7
ATOM      7  C   UNL     1       1.270   8.712  21.047  0.00  0.00    +0.000 A 
ATOM      8  C   UNL     1       0.812   8.993  22.342  0.00  0.00    +0.000 A 
ATOM      9  C   UNL     1      -0.176   9.953  22.569  0.00  0.00    +0.000 A 
ATOM     10  C   UNL     1      -0.704  10.671  21.503  0.00  0.00    +0.000 A 
ATOM     11  C   UNL     1      -0.226  10.447  20.209  0.00  0.00    +0.000 A 
ATOM     12 CL   UNL     1      -0.923  11.392  18.938  0.00  0.00    +0.000 Cl
ATOM     13  C   UNL     1       0.766   9.478  19.976  0.00  0.00    +0.000 A 
ATOM     14 CL   UNL     1       1.361   9.179  18.369  0.00  0.00    +0.000 Cl
ENDBRANCH   4   7
BRANCH   1  19
ATOM     15  C   UNL     1       3.385   3.810  18.528  0.00  0.00    +0.000 A 
ATOM     16  S   UNL     1       3.036   2.142  18.243  0.00  0.00    +0.000 S 
ATOM     17  C   UNL     1       2.175   1.991  19.698  0.00  0.00    +0.000 A 
ATOM     18  C   UNL     1       2.125   3.181  20.380  0.00  0.00    +0.000 A 
ATOM     19  C   UNL     1       2.838   4.247  19.729  0.00  0.00    +0.000 A 
BRANCH  15  20
ATOM     20  C   UNL     1       4.202   4.478  17.527  0.00  0.00    +0.000 C 
ATOM     21  O   UNL     1       4.434   4.072  16.391  0.00  0.00    +0.000 OA
BRANCH  20  23
ATOM     22  C   UNL     1       4.506   6.764  17.157  0.00  0.00    +0.000 C 
ATOM     23  O   UNL     1       4.714   5.646  18.027  0.00  0.00    +0.000 OA
ENDBRANCH  20  23
ENDBRANCH  15  20
ENDBRANCH   1  19
TORSDOF 4
ENDMDL
MODEL 6
REMARK VINA RESULT:      -6.2      6.276      7.888
REMARK  Name = 
REMARK  5 active torsions:
REMARK  status: ('A' for Active; 'I' for Inactive)
REMARK    1  A    between atoms: C_1  and  O_2
REMARK    2  A    between atoms: O_2  and  C_3
REMARK    3  A    between atoms: C_3  and  C_5
REMARK    4  A    between atoms: C_9  and  N_10
REMARK    5  A    between atoms: N_13  and  C_14
REMARK                            x       y       z     vdW  Elec       q    Type
REMARK                         _______ _______ _______ _____ _____    ______ ____
ROOT
ATOM      1  N   UNL     1       1.018   9.414  19.288  0.00  0.00    +0.000 N 
ATOM      2  C   UNL     1       1.830   8.736  18.392  0.00  0.00    +0.000 C 
ATOM      3  O   UNL     1       2.028   9.107  17.243  0.00  0.00    +0.000 OA
ATOM      4  N   UNL     1       2.368   7.580  18.926  0.00  0.00    +0.000 N 
ATOM      5  H   UNL     1       1.165   9.274  20.280  0.00  0.00    +0.000 HD
ATOM      6  H   UNL     1       1.917   7.204  19.752  0.00  0.00    +0.000 HD
ENDROOT
BRANCH   4   7
ATOM      7  C   UNL     1       3.185   6.656  18.204  0.00  0.00    +0.000 A 
ATOM      8  C   UNL     1       4.213   7.082  17.351  0.00  0.00    +0.000 A 
ATOM      9  C   UNL     1       4.935   6.174  16.576  0.00  0.00    +0.000 A 
ATOM     10  C   UNL     1       4.659   4.815  16.661  0.00  0.00    +0.000 A 
ATOM     11  C   UNL     1       3.676   4.359  17.544  0.00  0.00    +0.000 A 
ATOM     12 CL   UNL     1       3.402   2.652  17.604  0.00  0.00    +0.000 Cl
ATOM     13  C   UNL     1       2.943   5.272  18.324  0.00  0.00    +0.000 A 
ATOM     14 CL   UNL     1       1.708   4.721  19.417  0.00  0.00    +0.000 Cl
ENDBRANCH   4   7
BRANCH   1  19
ATOM     15  C   UNL     1       0.514  11.832  19.165  0.00  0.00    +0.000 A 
ATOM     16  S   UNL     1      -0.716  12.885  18.563  0.00  0.00    +0.000 S 
ATOM     17  C   UNL     1      -1.642  11.595  17.966  0.00  0.00    +0.000 A 
ATOM     18  C   UNL     1      -1.054  10.385  18.237  0.00  0.00    +0.000 A 
ATOM     19  C   UNL     1       0.209  10.499  18.915  0.00  0.00    +0.000 A 
BRANCH  15  20
ATOM     20  C   UNL     1       1.662  12.471  19.788  0.00  0.00    +0.000 C 
ATOM     21  O   UNL     1       1.823  12.659  20.991  0.00  0.00    +0.000 OA
BRANCH  20  23
ATOM     22  C   UNL     1       3.154  14.140  19.124  0.00  0.00    +0.000 C 
ATOM     23  O   UNL     1       2.566  12.867  18.838  0.00  0.00    +0.000 OA
ENDBRANCH  20  23
ENDBRANCH  15  20
ENDBRANCH   1  19
TORSDOF 4
ENDMDL
MODEL 7
REMARK VINA RESULT:      -6.2      6.203      8.147
REMARK  Name = 
REMARK  5 active torsions:
REMARK  status: ('A' for Active; 'I' for Inactive)
REMARK    1  A    between atoms: C_1  and  O_2
REMARK    2  A    between atoms: O_2  and  C_3
REMARK    3  A    between atoms: C_3  and  C_5
REMARK    4  A    between atoms: C_9  and  N_10
REMARK    5  A    between atoms: N_13  and  C_14
REMARK                            x       y       z     vdW  Elec       q    Type
REMARK                         _______ _______ _______ _____ _____    ______ ____
ROOT
ATOM      1  N   UNL     1       1.039   9.255  19.561  0.00  0.00    +0.000 N 
ATOM      2  C   UNL     1       1.762   8.579  18.590  0.00  0.00    +0.000 C 
ATOM      3  O   UNL     1       1.760   8.890  17.406  0.00  0.00    +0.000 OA
ATOM      4  N   UNL     1       2.464   7.501  19.096  0.00  0.00    +0.000 N 
ATOM      5  H   UNL     1       1.341   9.189  20.525  0.00  0.00    +0.000 HD
ATOM      6  H   UNL     1       2.169   7.147  19.999  0.00  0.00    +0.000 HD
ENDROOT
BRANCH   4   7
ATOM      7  C   UNL     1       3.237   6.593  18.309  0.00  0.00    +0.000 A 
ATOM      8  C   UNL     1       4.253   7.034  17.449  0.00  0.00    +0.000 A 
ATOM      9  C   UNL     1       4.931   6.147  16.612  0.00  0.00    +0.000 A 
ATOM     10  C   UNL     1       4.622   4.793  16.641  0.00  0.00    +0.000 A 
ATOM     11  C   UNL     1       3.651   4.319  17.527  0.00  0.00    +0.000 A 
ATOM     12 CL   UNL     1       3.335   2.619  17.514  0.00  0.00    +0.000 Cl
ATOM     13  C   UNL     1       2.963   5.211  18.370  0.00  0.00    +0.000 A 
ATOM     14 CL   UNL     1       1.742   4.639  19.469  0.00  0.00    +0.000 Cl
ENDBRANCH   4   7
BRANCH   1  19
ATOM     15  C   UNL     1      -0.151  11.366  20.052  0.00  0.00    +0.000 A 
ATOM     16  S   UNL     1      -1.371  12.374  19.361  0.00  0.00    +0.000 S 
ATOM     17  C   UNL     1      -1.564  11.356  18.016  0.00  0.00    +0.000 A 
ATOM     18  C   UNL     1      -0.743  10.259  18.093  0.00  0.00    +0.000 A 
ATOM     19  C   UNL     1       0.101  10.253  19.257  0.00  0.00    +0.000 A 
BRANCH  15  20
ATOM     20  C   UNL     1       0.441  11.830  21.297  0.00  0.00    +0.000 C 
ATOM     21  O   UNL     1       0.880  12.956  21.516  0.00  0.00    +0.000 OA
BRANCH  20  23
ATOM     22  C   UNL     1      -0.789  10.639  22.885  0.00  0.00    +0.000 C 
ATOM     23  O   UNL     1       0.467  10.820  22.222  0.00  0.00    +0.000 OA
ENDBRANCH  20  23
ENDBRANCH  15  20
ENDBRANCH   1  19
TORSDOF 4
ENDMDL
MODEL 8
REMARK VINA RESULT:      -6.2      4.312      5.975
REMARK  Name = 
REMARK  5 active torsions:
REMARK  status: ('A' for Active; 'I' for Inactive)
REMARK    1  A    between atoms: C_1  and  O_2
REMARK    2  A    between atoms: O_2  and  C_3
REMARK    3  A    between atoms: C_3  and  C_5
REMARK    4  A    between atoms: C_9  and  N_10
REMARK    5  A    between atoms: N_13  and  C_14
REMARK                            x       y       z     vdW  Elec       q    Type
REMARK                         _______ _______ _______ _____ _____    ______ ____
ROOT
ATOM      1  N   UNL     1       3.436   5.401  19.527  0.00  0.00    +0.000 N 
ATOM      2  C   UNL     1       2.288   6.111  19.842  0.00  0.00    +0.000 C 
ATOM      3  O   UNL     1       1.158   5.654  19.732  0.00  0.00    +0.000 OA
ATOM      4  N   UNL     1       2.553   7.399  20.267  0.00  0.00    +0.000 N 
ATOM      5  H   UNL     1       4.311   5.677  19.955  0.00  0.00    +0.000 HD
ATOM      6  H   UNL     1       3.466   7.777  20.039  0.00  0.00    +0.000 HD
ENDROOT
BRANCH   4   7
ATOM      7  C   UNL     1       1.556   8.370  20.592  0.00  0.00    +0.000 A 
ATOM      8  C   UNL     1       1.031   8.491  21.886  0.00  0.00    +0.000 A 
ATOM      9  C   UNL     1      -0.015   9.373  22.165  0.00  0.00    +0.000 A 
ATOM     10  C   UNL     1      -0.535  10.172  21.156  0.00  0.00    +0.000 A 
ATOM     11  C   UNL     1       0.006  10.110  19.869  0.00  0.00    +0.000 A 
ATOM     12 CL   UNL     1      -0.686  11.148  18.671  0.00  0.00    +0.000 Cl
ATOM     13  C   UNL     1       1.057   9.219  19.583  0.00  0.00    +0.000 A 
ATOM     14 CL   UNL     1       1.732   9.120  17.984  0.00  0.00    +0.000 Cl
ENDBRANCH   4   7
BRANCH   1  19
ATOM     15  C   UNL     1       3.507   2.929  19.546  0.00  0.00    +0.000 A 
ATOM     16  S   UNL     1       3.439   1.607  18.436  0.00  0.00    +0.000 S 
ATOM     17  C   UNL     1       3.273   2.636  17.097  0.00  0.00    +0.000 A 
ATOM     18  C   UNL     1       3.294   3.957  17.470  0.00  0.00    +0.000 A 
ATOM     19  C   UNL     1       3.410   4.151  18.890  0.00  0.00    +0.000 A 
BRANCH  15  20
ATOM     20  C   UNL     1       3.614   2.584  20.955  0.00  0.00    +0.000 C 
ATOM     21  O   UNL     1       4.435   1.819  21.454  0.00  0.00    +0.000 OA
BRANCH  20  23
ATOM     22  C   UNL     1       1.361   2.595  21.569  0.00  0.00    +0.000 C 
ATOM     23  O   UNL     1       2.643   3.222  21.681  0.00  0.00    +0.000 OA
ENDBRANCH  20  23
ENDBRANCH  15  20
ENDBRANCH   1  19
TORSDOF 4
ENDMDL
MODEL 9
REMARK VINA RESULT:      -6.2      4.902      6.992
REMARK  Name = 
REMARK  5 active torsions:
REMARK  status: ('A' for Active; 'I' for Inactive)
REMARK    1  A    between atoms: C_1  and  O_2
REMARK    2  A    between atoms: O_2  and  C_3
REMARK    3  A    between atoms: C_3  and  C_5
REMARK    4  A    between atoms: C_9  and  N_10
REMARK    5  A    between atoms: N_13  and  C_14
REMARK                            x       y       z     vdW  Elec       q    Type
REMARK                         _______ _______ _______ _____ _____    ______ ____
ROOT
ATOM      1  N   UNL     1       2.485   6.073  20.638  0.00  0.00    +0.000 N 
ATOM      2  C   UNL     1       1.456   6.981  20.833  0.00  0.00    +0.000 C 
ATOM      3  O   UNL     1       0.308   6.654  21.107  0.00  0.00    +0.000 OA
ATOM      4  N   UNL     1       1.856   8.292  20.657  0.00  0.00    +0.000 N 
ATOM      5  H   UNL     1       3.440   6.386  20.764  0.00  0.00    +0.000 HD
ATOM      6  H   UNL     1       2.719   8.442  20.146  0.00  0.00    +0.000 HD
ENDROOT
BRANCH   4   7
ATOM      7  C   UNL     1       0.988   9.424  20.731  0.00  0.00    +0.000 A 
ATOM      8  C   UNL     1       0.570   9.960  21.958  0.00  0.00    +0.000 A 
ATOM      9  C   UNL     1      -0.358  11.001  22.016  0.00  0.00    +0.000 A 
ATOM     10  C   UNL     1      -0.865  11.545  20.842  0.00  0.00    +0.000 A 
ATOM     11  C   UNL     1      -0.424  11.064  19.606  0.00  0.00    +0.000 A 
ATOM     12 CL   UNL     1      -1.090  11.804  18.191  0.00  0.00    +0.000 Cl
ATOM     13  C   UNL     1       0.508  10.013  19.544  0.00  0.00    +0.000 A 
ATOM     14 CL   UNL     1       1.056   9.396  18.013  0.00  0.00    +0.000 Cl
ENDBRANCH   4   7
BRANCH   1  19
ATOM     15  C   UNL     1       2.067   3.981  19.386  0.00  0.00    +0.000 A 
ATOM     16  S   UNL     1       1.847   2.295  19.688  0.00  0.00    +0.000 S 
ATOM     17  C   UNL     1       2.037   2.488  21.364  0.00  0.00    +0.000 A 
ATOM     18  C   UNL     1       2.236   3.804  21.700  0.00  0.00    +0.000 A 
ATOM     19  C   UNL     1       2.277   4.687  20.566  0.00  0.00    +0.000 A 
BRANCH  15  20
ATOM     20  C   UNL     1       2.039   4.397  17.992  0.00  0.00    +0.000 C 
ATOM     21  O   UNL     1       1.541   3.772  17.059  0.00  0.00    +0.000 OA
BRANCH  20  23
ATOM     22  C   UNL     1       3.998   5.470  17.311  0.00  0.00    +0.000 C 
ATOM     23  O   UNL     1       2.673   5.601  17.837  0.00  0.00    +0.000 OA
ENDBRANCH  20  23
ENDBRANCH  15  20
ENDBRANCH   1  19
TORSDOF 4
ENDMDL
